# MOL2 file generated by ConQuest
# Please check atom types

@<TRIPOS>MOLECULE
LOBJAP
   549   448     5
SMALL
NO_CHARGES
****
Generated from CSD

@<TRIPOS>ATOM
      1 C1        -0.3888    3.4637    8.0599 C.ar      1 RES1    0.0000
      2 C2         0.5696    3.8068    7.1173 C.ar      1 RES1    0.0000
      3 C3         0.3653    4.9808    6.3918 C.ar      1 RES1    0.0000
      4 C4        -0.7100    5.7868    6.6268 C.ar      1 RES1    0.0000
      5 C5        -1.6364    5.4675    7.6109 C.ar      1 RES1    0.0000
      6 C6        -1.4958    4.2838    8.3358 C.ar      1 RES1    0.0000
      7 C7        -2.4958    3.9579    9.4227 C.3       1 RES1    0.0000
      8 C8        -2.2664    4.7672   10.6652 C.ar      1 RES1    0.0000
      9 C9        -1.2014    4.5244   11.5209 C.ar      1 RES1    0.0000
     10 O1        -0.3167    3.5090   11.3029 O.3       1 RES1    0.0000
     11 C10       -0.9504    5.2873   12.6738 C.ar      1 RES1    0.0000
     12 C11        0.2847    5.0348   13.4777 C.3       1 RES1    0.0000
     13 C12        1.4737    5.6423   12.7449 C.ar      1 RES1    0.0000
     14 C13        1.4935    7.0126   12.4724 C.ar      1 RES1    0.0000
     15 C14        2.4790    7.5726   11.7004 C.ar      1 RES1    0.0000
     16 C15        3.4651    6.7688   11.1542 C.ar      1 RES1    0.0000
     17 C16        3.5123    5.4103   11.4285 C.ar      1 RES1    0.0000
     18 C17        4.5759    4.5276   10.8108 C.3       1 RES1    0.0000
     19 C18        4.0274    3.4130    9.9428 C.ar      1 RES1    0.0000
     20 C19        3.2724    3.6881    8.7884 C.ar      1 RES1    0.0000
     21 C20        2.6714    2.6566    8.0402 C.ar      1 RES1    0.0000
     22 C21        1.7835    2.9458    6.8411 C.3       1 RES1    0.0000
     23 C22        2.9012    1.3553    8.4257 C.ar      1 RES1    0.0000
     24 C23        3.6840    1.0952    9.5403 C.ar      1 RES1    0.0000
     25 C24        4.2348    2.1009   10.3120 C.ar      1 RES1    0.0000
     26 N1         3.9051   -0.2935    9.9336 N.pl3     1 RES1    0.0000
     27 O2         3.4556   -1.1686    9.2223 O.2       1 RES1    0.0000
     28 O3         4.5147   -0.5244   10.9722 O.2       1 RES1    0.0000
     29 C25       -1.8447    6.3285   12.9527 C.ar      1 RES1    0.0000
     30 C26       -2.8888    6.5789   12.1207 C.ar      1 RES1    0.0000
     31 C27       -3.1162    5.8386   10.9851 C.ar      1 RES1    0.0000
     32 O4         2.5636    3.5058   12.5256 O.3       1 RES1    0.0000
     33 C28        3.0948    3.1788   13.8106 C.3       1 RES1    0.0000
     34 O5        -3.5608    8.3701   13.4162 O.2       1 RES1    0.0000
     35 O6        -4.8122    7.8036   11.7226 O.2       1 RES1    0.0000
     36 C29        2.5193    4.8664   12.2587 C.ar      1 RES1    0.0000
     37 C30        1.5193    1.2614   13.9664 C.3       1 RES1    0.0000
     38 C31        2.9993    1.6887   13.9984 C.3       1 RES1    0.0000
     39 N2        -3.8010    7.6784   12.4554 N.pl3     1 RES1    0.0000
     40 C32        1.3134   -0.2309   13.9365 C.3       1 RES1    0.0000
     41 C33        3.6721    1.3251   15.3465 C.3       1 RES1    0.0000
     42 O7        -0.2159    2.3091    8.8133 O.3       1 RES1    0.0000
     43 C34       -0.8488    1.1276    8.2849 C.3       1 RES1    0.0000
     44 C35       -0.4124   -0.0572    9.1668 C.3       1 RES1    0.0000
     45 C36       -1.0721   -1.3035    8.6003 C.3       1 RES1    0.0000
     46 C37       -0.3486   -2.5918    9.3762 C.3       1 RES1    0.0000
     47 C38       -0.8141    0.1446   10.6048 C.3       1 RES1    0.0000
     48 O8         3.1168    4.9840    8.4090 O.3       1 RES1    0.0000
     49 C39        4.2961    5.3304    7.3624 C.3       1 RES1    0.0000
     50 C40        4.3816    6.8572    7.1863 C.3       1 RES1    0.0000
     51 C41        3.1146    7.3536    6.4633 C.3       1 RES1    0.0000
     52 C42        3.4073    8.7218    5.8197 C.3       1 RES1    0.0000
     53 C43        2.0754    9.4081    5.4718 C.3       1 RES1    0.0000
     54 C44        2.3661   10.6770    4.6435 C.3       1 RES1    0.0000
     55 H1         0.9875    5.2031    5.7089 H         1 RES1    0.0000
     56 H2        -0.8141    6.5896    6.1307 H         1 RES1    0.0000
     57 H3        -2.3633    6.0534    7.7843 H         1 RES1    0.0000
     58 H4        -3.3780    4.1057    9.1053 H         1 RES1    0.0000
     59 H5        -2.3879    3.0418    9.6472 H         1 RES1    0.0000
     60 H6         0.1901    5.4297   14.3368 H         1 RES1    0.0000
     61 H7         0.4215    4.1003   13.5732 H         1 RES1    0.0000
     62 H8         0.7973    7.5629   12.8126 H         1 RES1    0.0000
     63 H9         2.4806    8.5071   11.5286 H         1 RES1    0.0000
     64 H10        4.1305    7.1475   10.5925 H         1 RES1    0.0000
     65 H11        5.0870    4.1500   11.5163 H         1 RES1    0.0000
     66 H12        5.1373    5.0704   10.2692 H         1 RES1    0.0000
     67 H13        2.3161    3.3838    6.1862 H         1 RES1    0.0000
     68 H14        1.4819    2.1127    6.4972 H         1 RES1    0.0000
     69 H15        2.5440    0.6291    7.9290 H         1 RES1    0.0000
     70 H16        4.7396    1.8926   11.0883 H         1 RES1    0.0000
     71 H17       -1.7150    6.8831   13.7148 H         1 RES1    0.0000
     72 H18       -3.8373    6.0652   10.4078 H         1 RES1    0.0000
     73 H19        2.5920    3.6148   14.4877 H         1 RES1    0.0000
     74 H20        4.0035    3.4540   13.8596 H         1 RES1    0.0000
     75 H21        1.1225    1.5678   14.7741 H         1 RES1    0.0000
     76 H22        1.0798    1.6617   13.2252 H         1 RES1    0.0000
     77 H23        3.4479    1.2560   13.2807 H         1 RES1    0.0000
     78 H24        0.3884   -0.4510   13.9489 H         1 RES1    0.0000
     79 H25        1.7455   -0.6388   14.6786 H         1 RES1    0.0000
     80 H26        1.7028   -0.5449   13.1298 H         1 RES1    0.0000
     81 H27        3.6199    0.3841   15.4669 H         1 RES1    0.0000
     82 H28        3.2187    1.7610   16.0581 H         1 RES1    0.0000
     83 H29        4.5836    1.5937   15.3407 H         1 RES1    0.0000
     84 H30       -1.7931    1.2128    8.3354 H         1 RES1    0.0000
     85 H31       -0.5899    1.0154    7.3778 H         1 RES1    0.0000
     86 H32        0.5274   -0.1608    9.0929 H         1 RES1    0.0000
     87 H33       -2.0084   -1.2560    8.7511 H         1 RES1    0.0000
     88 H34       -0.9055   -1.3866    7.6703 H         1 RES1    0.0000
     89 H35       -0.7294   -3.4130    9.0868 H         1 RES1    0.0000
     90 H36       -0.5150   -2.4742   10.3031 H         1 RES1    0.0000
     91 H37        0.5882   -2.6048    9.2192 H         1 RES1    0.0000
     92 H38       -0.5090   -0.6075   11.1006 H         1 RES1    0.0000
     93 H39       -0.4239    0.9355   10.9589 H         1 RES1    0.0000
     94 H40       -1.7603    0.2029   10.6664 H         1 RES1    0.0000
     95 H41        5.1118    5.0056    7.7288 H         1 RES1    0.0000
     96 H42        4.1392    4.9171    6.5218 H         1 RES1    0.0000
     97 H43        4.4543    7.2759    8.0368 H         1 RES1    0.0000
     98 H44        5.1426    7.0709    6.6604 H         1 RES1    0.0000
     99 H45        2.4040    7.4173    7.0914 H         1 RES1    0.0000
    100 H46        2.8765    6.7440    5.7766 H         1 RES1    0.0000
    101 H47        3.8352    9.2743    6.4633 H         1 RES1    0.0000
    102 H48        3.9694    8.6290    5.0592 H         1 RES1    0.0000
    103 H49        1.5859    9.6573    6.2447 H         1 RES1    0.0000
    104 H50        1.5703    8.7844    4.9637 H         1 RES1    0.0000
    105 H51        1.5468   11.0763    4.3817 H         1 RES1    0.0000
    106 H52        2.8736   11.2996    5.1515 H         1 RES1    0.0000
    107 H53        2.8581   10.4267    3.8706 H         1 RES1    0.0000
    108 H54       -0.3975    3.1583   10.5155 H         1 RES1    0.0000
    109 C45        3.7945    5.5678    7.5318 Du        5 SUP5    0.0000
    110 C46        3.1909    6.9436    7.2700 Du        5 SUP5    0.0000
    111 C47        3.8236    7.5403    6.0045 Du        5 SUP5    0.0000
    112 C48        3.2121    8.9355    5.7489 Du        5 SUP5    0.0000
    113 C49        1.8810    8.7704    5.0007 Du        5 SUP5    0.0000
    114 C50        1.3237   10.1634    4.6527 Du        5 SUP5    0.0000
    115 H55        3.3573    7.5349    7.9937 Du        5 SUP5    0.0000
    116 H56        2.2517    6.8411    7.1561 Du        5 SUP5    0.0000
    117 H57        4.7636    7.6201    6.1092 Du        5 SUP5    0.0000
    118 H58        3.6356    6.9619    5.2747 Du        5 SUP5    0.0000
    119 H59        3.1284    9.4135    6.5649 Du        5 SUP5    0.0000
    120 H60        3.7753    9.4189    5.1546 Du        5 SUP5    0.0000
    121 H61        1.3014    8.3377    5.6165 Du        5 SUP5    0.0000
    122 H62        1.9576    8.2427    4.2124 Du        5 SUP5    0.0000
    123 H63        0.4661   10.0620    4.2586 Du        5 SUP5    0.0000
    124 H64        1.2495   10.6900    5.4410 Du        5 SUP5    0.0000
    125 H65        1.9058   10.5950    4.0369 Du        5 SUP5    0.0000
    126 H66        4.6856    5.6725    7.8459 Du        5 SUP5    0.0000
    127 H67        3.8011    5.0585    6.7312 Du        5 SUP5    0.0000
    128 C51        5.0064    6.0879   15.8749 C.ar      2 RES2    0.0000
    129 C52        5.5062    4.8502   16.2740 C.ar      2 RES2    0.0000
    130 C53        6.3857    4.2018   15.4087 C.ar      2 RES2    0.0000
    131 C54        6.7735    4.7682   14.2124 C.ar      2 RES2    0.0000
    132 C55        6.3003    6.0167   13.8605 C.ar      2 RES2    0.0000
    133 C56        5.4084    6.7105   14.6857 C.ar      2 RES2    0.0000
    134 C57        4.9245    8.0895   14.3021 C.3       2 RES2    0.0000
    135 C58        5.9131    9.2009   14.5869 C.ar      2 RES2    0.0000
    136 C59        6.1995    9.6131   15.9026 C.ar      2 RES2    0.0000
    137 O9         5.6005    9.0617   16.9810 O.3       2 RES2    0.0000
    138 C60        7.1055   10.6554   16.1924 C.ar      2 RES2    0.0000
    139 C61        7.3890   11.0104   17.6285 C.3       2 RES2    0.0000
    140 C62        8.1741    9.9120   18.3306 C.ar      2 RES2    0.0000
    141 C63        7.6134    9.1621   19.3631 C.ar      2 RES2    0.0000
    142 C64        8.2765    8.0463   19.8958 C.ar      2 RES2    0.0000
    143 C65        9.5646    7.7809   19.4591 C.ar      2 RES2    0.0000
    144 C66       10.1691    8.5675   18.4670 C.ar      2 RES2    0.0000
    145 C67        9.4554    9.5991   17.8992 C.ar      2 RES2    0.0000
    146 C68        7.5954    7.1453   20.9045 C.3       2 RES2    0.0000
    147 C69        6.3260    6.4710   20.4038 C.ar      2 RES2    0.0000
    148 C70        6.3007    5.6530   19.2630 C.ar      2 RES2    0.0000
    149 C71        5.1221    5.0412   18.8156 C.ar      2 RES2    0.0000
    150 C72        5.0872    4.1845   17.5734 C.3       2 RES2    0.0000
    151 C73        3.9748    5.2020   19.5543 C.ar      2 RES2    0.0000
    152 C74        3.9993    6.0221   20.6763 C.ar      2 RES2    0.0000
    153 C75        5.1484    6.6479   21.1084 C.ar      2 RES2    0.0000
    154 N3         2.7340    6.2595   21.4043 N.pl3     2 RES2    0.0000
    155 O10        2.7134    7.0342   22.3145 O.2       2 RES2    0.0000
    156 O11        1.7616    5.7005   21.0311 O.2       2 RES2    0.0000
    157 C76        7.7122   11.2931   15.1319 C.ar      2 RES2    0.0000
    158 C77        7.4331   10.8982   13.8371 C.ar      2 RES2    0.0000
    159 C78        6.5585    9.8656   13.5495 C.ar      2 RES2    0.0000
    160 N4         8.0461   11.6179   12.7316 N.pl3     2 RES2    0.0000
    161 O12        7.8921   11.1777   11.5914 O.2       2 RES2    0.0000
    162 O13        8.7074   12.6096   12.9681 O.2       2 RES2    0.0000
    163 O14        4.1349    6.7817   16.7122 O.3       2 RES2    0.0000
    164 C79        2.7340    6.5281   16.4498 C.3       2 RES2    0.0000
    165 C80        1.9034    7.2576   17.4977 C.3       2 RES2    0.0000
    166 C81        0.3625    7.0385   17.1790 C.3       2 RES2    0.0000
    167 C82       -0.1080    7.9147   16.1567 C.3       2 RES2    0.0000
    168 C83        2.2543    8.7229   17.6039 C.3       2 RES2    0.0000
    169 O15        6.3707    9.5009   19.8563 O.3       2 RES2    0.0000
    170 C84        6.4525   10.4957   20.8691 C.3       2 RES2    0.0000
    171 C85        5.1273   11.1593   21.0215 C.3       2 RES2    0.0000
    172 C86        5.1764   12.2751   22.0411 C.3       2 RES2    0.0000
    173 C87        6.1684   13.4318   21.7485 C.3       2 RES2    0.0000
    174 C88        4.0695   10.2152   21.4591 C.3       2 RES2    0.0000
    175 O16        7.4430    5.4977   18.5258 O.3       2 RES2    0.0000
    176 C89        8.3403    4.5438   18.7124 C.3       2 RES2    0.0000
    177 C90        9.3780    4.6409   17.6193 C.3       2 RES2    0.0000
    178 C91       10.3787    3.5025   17.7609 C.3       2 RES2    0.0000
    179 C92       11.4139    3.6126   16.6093 C.3       2 RES2    0.0000
    180 C93       12.4230    2.4926   16.7386 C.3       2 RES2    0.0000
    181 C94       11.8886    1.2625   16.0181 C.3       2 RES2    0.0000
    182 H68        6.7262    3.3450   15.6363 H         2 RES2    0.0000
    183 H69        7.3721    4.3032   13.6379 H         2 RES2    0.0000
    184 H70        6.5778    6.4073   13.0405 H         2 RES2    0.0000
    185 H71        4.1267    8.2686   14.7833 H         2 RES2    0.0000
    186 H72        4.7371    8.0809   13.3700 H         2 RES2    0.0000
    187 H73        7.8770   11.8251   17.6624 H         2 RES2    0.0000
    188 H74        6.5629   11.1162   18.0873 H         2 RES2    0.0000
    189 H75       10.0539    7.0666   19.8487 H         2 RES2    0.0000
    190 H76       11.0551    8.3819   18.1828 H         2 RES2    0.0000
    191 H77        9.8558   10.1041   17.2005 H         2 RES2    0.0000
    192 H78        7.3650    7.6827   21.6531 H         2 RES2    0.0000
    193 H79        8.2081    6.4720   21.1727 H         2 RES2    0.0000
    194 H80        5.6688    3.4475   17.7209 H         2 RES2    0.0000
    195 H81        4.1970    3.8694   17.4653 H         2 RES2    0.0000
    196 H82        3.1790    4.7456   19.3067 H         2 RES2    0.0000
    197 H83        5.1317    7.2155   21.8686 H         2 RES2    0.0000
    198 H84        8.3120   12.0161   15.2760 H         2 RES2    0.0000
    199 H85        6.3940    9.6088   12.6494 H         2 RES2    0.0000
    200 H86        2.5595    5.5948   16.4769 H         2 RES2    0.0000
    201 H87        2.5042    6.8680   15.5932 H         2 RES2    0.0000
    202 H88        2.1401    6.8918   18.3429 H         2 RES2    0.0000
    203 H89       -0.1264    7.2230   17.9734 H         2 RES2    0.0000
    204 H90        0.2356    6.1300   16.9326 H         2 RES2    0.0000
    205 H91       -1.0319    7.7550   16.0058 H         2 RES2    0.0000
    206 H92        0.0214    8.8232   16.4030 H         2 RES2    0.0000
    207 H93        0.3806    7.7291   15.3653 H         2 RES2    0.0000
    208 H94        1.7527    9.1567   18.2844 H         2 RES2    0.0000
    209 H95        3.1819    8.8427   17.7702 H         2 RES2    0.0000
    210 H96        2.0339    9.0952   16.7602 H         2 RES2    0.0000
    211 H97        6.6583   10.0706   21.6931 H         2 RES2    0.0000
    212 H98        7.1297   11.1281   20.6616 H         2 RES2    0.0000
    213 H99        4.8893   11.5381   20.1843 H         2 RES2    0.0000
    214 H100       5.4204   11.8758   22.8663 H         2 RES2    0.0000
    215 H101       4.3101   12.6570   22.1150 H         2 RES2    0.0000
    216 H102       6.1558   14.0814   22.4444 H         2 RES2    0.0000
    217 H103       7.0416   13.0628   21.6808 H         2 RES2    0.0000
    218 H104       5.9316   13.8429   20.9264 H         2 RES2    0.0000
    219 H105       3.2466   10.6857   21.5114 H         2 RES2    0.0000
    220 H106       4.2962    9.8731   22.3151 H         2 RES2    0.0000
    221 H107       3.9850    9.4976   20.8432 H         2 RES2    0.0000
    222 H108       9.7875    5.4955   17.5577 H         2 RES2    0.0000
    223 H109       8.9275    4.4478   16.8033 H         2 RES2    0.0000
    224 H110      10.7674    3.6439   18.6139 H         2 RES2    0.0000
    225 H111       9.9817    2.6393   17.7301 H         2 RES2    0.0000
    226 H112      11.9430    4.3863   16.7633 H         2 RES2    0.0000
    227 H113      11.0058    3.6730   15.7533 H         2 RES2    0.0000
    228 H114      12.3839    2.1127   17.6070 H         2 RES2    0.0000
    229 H115      13.3194    2.7321   16.5354 H         2 RES2    0.0000
    230 H116      12.4351    0.4856   16.0489 H         2 RES2    0.0000
    231 H117      10.9897    1.0262   16.2213 H         2 RES2    0.0000
    232 H118      11.9276    1.6455   15.1498 H         2 RES2    0.0000
    233 H119       8.7565    4.6528   19.5592 H         2 RES2    0.0000
    234 H120       7.9144    3.6946   18.6755 H         2 RES2    0.0000
    235 H121       5.0982    8.3927   16.7540 H         2 RES2    0.0000
    236 C95        8.1807    4.1996   19.0758 Du        5 SUP5    0.0000
    237 C96        9.6001    4.1154   18.4414 Du        5 SUP5    0.0000
    238 C97        9.4650    3.9698   16.9142 Du        5 SUP5    0.0000
    239 C98       10.8731    3.8004   16.2983 Du        5 SUP5    0.0000
    240 C99       11.2744    2.3145   16.3661 Du        5 SUP5    0.0000
    241 C100      12.5968    2.1138   15.5993 Du        5 SUP5    0.0000
    242 H122       8.2261    4.2579   20.0211 Du        5 SUP5    0.0000
    243 H123       7.6521    3.4497   18.8263 Du        5 SUP5    0.0000
    244 H124      10.1544    4.8146   18.7678 Du        5 SUP5    0.0000
    245 H125       9.9609    3.2770   18.7063 Du        5 SUP5    0.0000
    246 H126       9.0920    4.8028   16.6493 Du        5 SUP5    0.0000
    247 H127       8.9203    3.2619   16.5908 Du        5 SUP5    0.0000
    248 H128      11.4937    4.2018   16.8926 Du        5 SUP5    0.0000
    249 H129      10.9177    4.2320   15.4515 Du        5 SUP5    0.0000
    250 H130      11.2396    1.8851   17.2128 Du        5 SUP5    0.0000
    251 H131      10.6482    1.9110   15.7810 Du        5 SUP5    0.0000
    252 H132      12.8113    1.1945   15.4946 Du        5 SUP5    0.0000
    253 H133      13.2228    2.5195   16.1875 Du        5 SUP5    0.0000
    254 H134      12.6316    2.5454   14.7525 Du        5 SUP5    0.0000
    255 O17       10.6752    6.7774   26.6984 O.3       3 RES3    0.0000
    256 C101       9.8650    5.7297   26.9949 C.ar      3 RES3    0.0000
    257 C102      10.1885    5.0326   28.1665 C.ar      3 RES3    0.0000
    258 C103      11.4728    5.3660   28.8957 C.3       3 RES3    0.0000
    259 C104      12.6351    4.7618   28.1234 C.ar      3 RES3    0.0000
    260 C105      13.6274    5.5538   27.5719 C.ar      3 RES3    0.0000
    261 C106      14.5854    5.0153   26.6993 C.ar      3 RES3    0.0000
    262 C107      14.5623    3.6482   26.4511 C.ar      3 RES3    0.0000
    263 C108      13.6056    2.8465   27.0232 C.ar      3 RES3    0.0000
    264 C109      12.6442    3.4043   27.8408 C.ar      3 RES3    0.0000
    265 C110      15.6089    5.8926   26.0151 C.3       3 RES3    0.0000
    266 C111       9.3721    3.9730   28.5536 C.ar      3 RES3    0.0000
    267 C112       8.3157    3.5997   27.7610 C.ar      3 RES3    0.0000
    268 N5         7.5008    2.4429   28.1351 N.pl3     3 RES3    0.0000
    269 O18        7.7942    1.8505   29.1867 O.2       3 RES3    0.0000
    270 O19        6.6002    2.0998   27.4137 O.2       3 RES3    0.0000
    271 C113       8.0091    4.2740   26.5863 C.ar      3 RES3    0.0000
    272 C114       8.7767    5.3574   26.1878 C.ar      3 RES3    0.0000
    273 C115       8.4841    6.1084   24.9137 C.3       3 RES3    0.0000
    274 C116       9.4727    5.8041   23.8165 C.ar      3 RES3    0.0000
    275 C117      10.4933    6.6727   23.4652 C.ar      3 RES3    0.0000
    276 O20       10.6101    7.8910   24.1417 O.3       3 RES3    0.0000
    277 C118       9.8676    8.9570   23.4914 C.3       3 RES3    0.0000
    278 C119      11.4620    6.3620   22.4915 C.ar      3 RES3    0.0000
    279 C120      12.5996    7.3018   22.1565 C.3       3 RES3    0.0000
    280 C121      13.5337    7.6385   23.2974 C.ar      3 RES3    0.0000
    281 C122      13.7348    8.9668   23.6438 C.ar      3 RES3    0.0000
    282 C123      14.5703    9.2797   24.7104 C.ar      3 RES3    0.0000
    283 C124      15.1951    8.3107   25.4698 C.ar      3 RES3    0.0000
    284 N6        14.7494   10.6770   25.0685 N.pl3     3 RES3    0.0000
    285 O21       15.5098   10.9500   26.0105 O.2       3 RES3    0.0000
    286 O22       14.1511   11.5316   24.4231 O.2       3 RES3    0.0000
    287 C125      11.3196    5.1513   21.8240 C.ar      3 RES3    0.0000
    288 C126      10.3105    4.2546   22.1587 C.ar      3 RES3    0.0000
    289 C127       9.3922    4.5719   23.1483 C.ar      3 RES3    0.0000
    290 C128      10.2985   11.6557   26.2503 C.3       3 RES3    0.0000
    291 C129       9.9291   10.3404   25.5822 C.3       3 RES3    0.0000
    292 C130      15.0074    6.9716   25.1511 C.ar      3 RES3    0.0000
    293 C131      14.2227    6.6673   24.0324 C.ar      3 RES3    0.0000
    294 C132       9.4682   11.3773   23.3005 C.3       3 RES3    0.0000
    295 C133      10.2220   10.2961   24.0897 C.3       3 RES3    0.0000
    296 O23       13.6419    6.9134   27.8066 O.3       3 RES3    0.0000
    297 C134      14.3733    7.2371   29.0586 C.3       3 RES3    0.0000
    298 C135      13.7269    8.4833   29.7222 C.3       3 RES3    0.0000
    299 C136      13.7825    9.6746   28.7291 C.3       3 RES3    0.0000
    300 C137      12.5687    9.6142   27.8054 C.3       3 RES3    0.0000
    301 C138      14.5279    8.8481   30.9776 C.3       3 RES3    0.0000
    302 O24       14.0632    5.3369   23.6955 O.3       3 RES3    0.0000
    303 C139      14.7575    4.7866   22.7000 C.3       3 RES3    0.0000
    304 C140      14.3230    3.3903   22.5276 C.3       3 RES3    0.0000
    305 C141      14.8394    2.8670   21.1850 C.3       3 RES3    0.0000
    306 C142      14.2586    1.3240   20.9449 C.3       3 RES3    0.0000
    307 C143      12.8371    1.3822   20.7632 C.3       3 RES3    0.0000
    308 C144      12.3614    0.0680   20.1658 C.3       3 RES3    0.0000
    309 H135      11.4524    4.9916   29.7699 H         3 RES3    0.0000
    310 H136      11.5629    6.3102   28.9570 H         3 RES3    0.0000
    311 H137      15.2253    3.2673   25.8870 H         3 RES3    0.0000
    312 H138      13.5995    1.9110   26.8570 H         3 RES3    0.0000
    313 H139      11.9776    2.8540   28.2303 H         3 RES3    0.0000
    314 H140      16.1384    6.3145   26.6814 H         3 RES3    0.0000
    315 H141      16.1612    5.3455   25.4713 H         3 RES3    0.0000
    316 H142       9.5521    3.5079   29.3604 H         3 RES3    0.0000
    317 H143       7.2622    4.0043   26.0656 H         3 RES3    0.0000
    318 H144       8.4952    7.0396   25.1018 H         3 RES3    0.0000
    319 H145       7.6217    5.8591   24.6030 H         3 RES3    0.0000
    320 H146       8.9377    8.8006   23.6145 H         3 RES3    0.0000
    321 H147      10.0653    8.9711   22.5614 H         3 RES3    0.0000
    322 H148      12.2308    8.1122   21.8255 H         3 RES3    0.0000
    323 H149      13.1197    6.8907   21.4745 H         3 RES3    0.0000
    324 H150      13.3114    9.6595   23.1496 H         3 RES3    0.0000
    325 H151      15.7565    8.5632   26.1949 H         3 RES3    0.0000
    326 H152      11.9407    4.9161   21.1450 H         3 RES3    0.0000
    327 H153      10.2391    3.4302   21.6931 H         3 RES3    0.0000
    328 H154       8.6953    3.9644   23.3713 H         3 RES3    0.0000
    329 H155      10.0594   11.6061   27.1680 H         3 RES3    0.0000
    330 H156      11.2360   11.7949   26.1764 H         3 RES3    0.0000
    331 H157       9.8369   12.3787   25.8408 H         3 RES3    0.0000
    332 H158      10.3919    9.6271   26.0071 H         3 RES3    0.0000
    333 H159       8.9926   10.2109   25.6745 H         3 RES3    0.0000
    334 H160       9.6546   12.2492   23.6299 H         3 RES3    0.0000
    335 H161       8.5329   11.2133   23.3497 H         3 RES3    0.0000
    336 H162       9.7529   11.3115   22.3952 H         3 RES3    0.0000
    337 H163      11.1570   10.4299   23.9902 H         3 RES3    0.0000
    338 H164      14.2632    6.5066   29.6560 H         3 RES3    0.0000
    339 H165      15.3010    7.3687   28.8923 H         3 RES3    0.0000
    340 H166      12.8234    8.3290   29.9700 H         3 RES3    0.0000
    341 H167      13.8580   10.5055   29.1848 H         3 RES3    0.0000
    342 H168      14.5366    9.5516   28.1687 H         3 RES3    0.0000
    343 H169      12.6085   10.3188   27.1680 H         3 RES3    0.0000
    344 H170      11.8144    9.7383   28.3689 H         3 RES3    0.0000
    345 H171      12.4953    8.7833   27.3527 H         3 RES3    0.0000
    346 H172      14.1651    9.6347   31.3680 H         3 RES3    0.0000
    347 H173      14.5009    8.1391   31.6082 H         3 RES3    0.0000
    348 H174      15.4290    9.0088   30.7183 H         3 RES3    0.0000
    349 H175      15.6832    4.7952   22.9186 H         3 RES3    0.0000
    350 H176      14.6201    5.2635   21.8902 H         3 RES3    0.0000
    351 H177      14.6907    2.8530   23.2173 H         3 RES3    0.0000
    352 H178      13.3756    3.3601   22.5738 H         3 RES3    0.0000
    353 H179      15.7873    2.9155   21.1327 H         3 RES3    0.0000
    354 H180      14.4573    3.3936   20.4922 H         3 RES3    0.0000
    355 H181      14.4533    0.8449   21.7424 H         3 RES3    0.0000
    356 H182      14.7176    0.9237   20.2151 H         3 RES3    0.0000
    357 H183      12.3710    1.5020   21.5792 H         3 RES3    0.0000
    358 H184      12.6045    2.0771   20.1597 H         3 RES3    0.0000
    359 H185      11.4264    0.0410   19.9995 H         3 RES3    0.0000
    360 H186      12.5964   -0.6258   20.7693 H         3 RES3    0.0000
    361 H187      12.8302   -0.0507   19.3467 H         3 RES3    0.0000
    362 H188      10.4729    7.1777   25.9455 H         3 RES3    0.0000
    363 C145      14.0632    7.4173   28.9539 Du        5 SUP5    0.0000
    364 C146      13.9173    8.9365   28.9089 Du        5 SUP5    0.0000
    365 C147      14.7612    9.5613   30.0409 Du        5 SUP5    0.0000
    366 C148      14.2048    9.1027   31.3926 Du        5 SUP5    0.0000
    367 C149      12.4442    9.3023   29.1202 Du        5 SUP5    0.0000
    368 C150      15.1812    5.0920   22.6138 Du        5 SUP5    0.0000
    369 C151      15.3383    3.5187   22.3705 Du        5 SUP5    0.0000
    370 C152      14.0842    2.9932   21.6993 Du        5 SUP5    0.0000
    371 C153      14.3954    1.6239   21.0403 Du        5 SUP5    0.0000
    372 C154      12.9984    0.8503   20.7385 Du        5 SUP5    0.0000
    373 C155      13.2914   -0.4079   19.9718 Du        5 SUP5    0.0000
    374 H189      14.2078    9.3067   28.0825 Du        5 SUP5    0.0000
    375 H190      15.6815    9.3466   29.9362 Du        5 SUP5    0.0000
    376 H191      14.6556   10.5055   30.0439 Du        5 SUP5    0.0000
    377 H192      14.6999    9.4750   32.1132 Du        5 SUP5    0.0000
    378 H193      14.3129    8.1586   31.3896 Du        5 SUP5    0.0000
    379 H194      13.2845    9.3174   31.4973 Du        5 SUP5    0.0000
    380 H195      12.3113   10.2433   29.1263 Du        5 SUP5    0.0000
    381 H196      12.1634    8.9365   29.9485 Du        5 SUP5    0.0000
    382 H197      11.9380    8.9160   28.4150 Du        5 SUP5    0.0000
    383 H198      16.0054    5.4081   22.9648 Du        5 SUP5    0.0000
    384 H199      14.9929    5.5408   21.7978 Du        5 SUP5    0.0000
    385 H200      15.4523    3.0634   23.1958 Du        5 SUP5    0.0000
    386 H201      16.0806    3.3385   21.8040 Du        5 SUP5    0.0000
    387 H202      13.4106    2.8594   22.3551 Du        5 SUP5    0.0000
    388 H203      13.7921    3.6460   21.0742 Du        5 SUP5    0.0000
    389 H204      15.0059    1.1017   21.5484 Du        5 SUP5    0.0000
    390 H205      14.7689    1.8041   20.1874 Du        5 SUP5    0.0000
    391 H206      12.6492    0.6280   21.5946 Du        5 SUP5    0.0000
    392 H207      12.3722    1.3909   20.2736 Du        5 SUP5    0.0000
    393 H208      12.4764   -0.8880   19.8671 Du        5 SUP5    0.0000
    394 H209      13.9174   -0.9474   20.4399 Du        5 SUP5    0.0000
    395 H210      13.6380   -0.1834   19.1189 Du        5 SUP5    0.0000
    396 H211      14.9764    7.1896   29.0863 Du        5 SUP5    0.0000
    397 H212      13.5416    7.0666   29.6683 Du        5 SUP5    0.0000
    398 C156       0.7755    6.3879   26.9891 C.ar      4 RES4    0.0000
    399 C157       0.2521    5.6811   28.0652 C.ar      4 RES4    0.0000
    400 C158       1.0723    4.6334   28.7944 C.3       4 RES4    0.0000
    401 C159       1.3674    5.0671   30.2321 C.ar      4 RES4    0.0000
    402 C160       2.2841    6.1354   30.4356 C.ar      4 RES4    0.0000
    403 O25        2.8723    6.6091   29.3320 O.3       4 RES4    0.0000
    404 C161       2.5461    6.6004   31.7209 C.ar      4 RES4    0.0000
    405 C162       3.5422    7.7226   31.9731 C.3       4 RES4    0.0000
    406 C163       3.0674    9.0952   31.5207 C.ar      4 RES4    0.0000
    407 C164       2.2187    9.8559   32.3216 C.ar      4 RES4    0.0000
    408 C165       1.7758   11.0719   31.9189 C.ar      4 RES4    0.0000
    409 C166       2.1409   11.5866   30.6736 C.ar      4 RES4    0.0000
    410 C167       2.9927   10.8659   29.8358 C.ar      4 RES4    0.0000
    411 C168       3.4668    9.6390   30.2943 C.ar      4 RES4    0.0000
    412 C169       3.4083   11.4475   28.4966 C.3       4 RES4    0.0000
    413 C170       3.3222   10.5357   27.2905 C.ar      4 RES4    0.0000
    414 C171       4.4583   10.3026   26.5487 C.ar      4 RES4    0.0000
    415 C172       4.4048    9.4135   25.4796 C.ar      4 RES4    0.0000
    416 C173       3.2346    8.7855   25.1184 C.ar      4 RES4    0.0000
    417 C174       2.0645    9.0142   25.8171 C.ar      4 RES4    0.0000
    418 C175       2.1147    9.9012   26.9084 C.ar      4 RES4    0.0000
    419 C176       0.7710    8.3539   25.3928 C.3       4 RES4    0.0000
    420 C177       0.1122    7.4863   26.4252 C.ar      4 RES4    0.0000
    421 C178      -1.1678    7.7680   26.8865 C.ar      4 RES4    0.0000
    422 C179      -1.7230    7.0223   27.8897 C.ar      4 RES4    0.0000
    423 C180      -1.0277    6.0016   28.5117 C.ar      4 RES4    0.0000
    424 N7         5.6294    9.1254   24.7609 N.pl3     4 RES4    0.0000
    425 O26        5.6430    8.1391   24.0151 O.2       4 RES4    0.0000
    426 O27        6.5794    9.8807   24.9260 O.2       4 RES4    0.0000
    427 C181       1.9495    5.9670   32.8023 C.ar      4 RES4    0.0000
    428 C182       1.0782    4.9139   32.5858 C.ar      4 RES4    0.0000
    429 C183       0.7707    4.4769   31.3175 C.ar      4 RES4    0.0000
    430 N8         0.4550    4.2535   33.7322 N.pl3     4 RES4    0.0000
    431 O28       -0.2638    3.3094   33.5309 O.2       4 RES4    0.0000
    432 O29        0.6612    4.7024   34.8392 O.2       4 RES4    0.0000
    433 O30        4.3057    8.8869   29.4925 O.3       4 RES4    0.0000
    434 C184       5.7375    9.0682   29.6714 C.3       4 RES4    0.0000
    435 C185       6.4164    7.8014   29.3108 C.3       4 RES4    0.0000
    436 C186       7.8545    7.8251   29.7391 C.3       4 RES4    0.0000
    437 C187       8.6865    8.9150   29.0340 C.3       4 RES4    0.0000
    438 C188       6.1831    7.4842   27.8454 C.3       4 RES4    0.0000
    439 O31        2.0150    6.0264   26.4662 O.3       4 RES4    0.0000
    440 C189       1.8055    4.9938   25.4805 C.3       4 RES4    0.0000
    441 C190       3.1751    4.3409   25.1203 C.3       4 RES4    0.0000
    442 C191       2.9539    2.8411   24.7970 C.3       4 RES4    0.0000
    443 C192       1.8877    2.7148   23.7162 C.3       4 RES4    0.0000
    444 C193       4.1207    4.4532   26.3273 C.3       4 RES4    0.0000
    445 O32        1.0000   10.1267   27.6348 O.3       4 RES4    0.0000
    446 C194       0.1695   11.1799   27.3724 C.3       4 RES4    0.0000
    447 C195      -0.9390   11.2057   28.4366 C.3       4 RES4    0.0000
    448 C196      -1.7509   12.4995   28.2980 C.3       4 RES4    0.0000
    449 C197      -2.6405   12.6668   29.5574 C.3       4 RES4    0.0000
    450 C198      -3.6760   13.7814   29.3019 C.3       4 RES4    0.0000
    451 C199      -3.7010   14.7245   30.5089 C.3       4 RES4    0.0000
    452 H213       0.5897    3.8165   28.8092 H         4 RES4    0.0000
    453 H214       1.8953    4.5050   28.3381 H         4 RES4    0.0000
    454 H215       3.7236    7.7626   32.9045 H         4 RES4    0.0000
    455 H216       4.3453    7.5284   31.5035 H         4 RES4    0.0000
    456 H217       1.9287    9.5041   33.1540 H         4 RES4    0.0000
    457 H218       1.2131   11.5802   32.4919 H         4 RES4    0.0000
    458 H219       1.8240   12.4348   30.3827 H         4 RES4    0.0000
    459 H220       5.2754   10.7321   26.7738 H         4 RES4    0.0000
    460 H221       3.2452    8.1866   24.3813 H         4 RES4    0.0000
    461 H222       0.1586    9.0347   25.1418 H         4 RES4    0.0000
    462 H223       0.9695    7.8111   24.6368 H         4 RES4    0.0000
    463 H224      -1.6549    8.4801   26.4905 H         4 RES4    0.0000
    464 H225      -2.6146    7.2047   28.1595 H         4 RES4    0.0000
    465 H226      -1.4060    5.5214   29.2372 H         4 RES4    0.0000
    466 H227       2.1031    6.2735   33.6897 H         4 RES4    0.0000
    467 H228       0.1650    3.7561   31.1894 H         4 RES4    0.0000
    468 H229       3.5889    4.7057   24.3443 H         4 RES4    0.0000
    469 H230       2.5377    2.4829   25.5729 H         4 RES4    0.0000
    470 H231       3.7731    2.3868   24.6399 H         4 RES4    0.0000
    471 H232       1.7147    1.7901   23.5837 H         4 RES4    0.0000
    472 H233       1.0683    3.1702   23.8763 H         4 RES4    0.0000
    473 H234       2.3038    3.0742   22.9433 H         4 RES4    0.0000
    474 H235       4.9453    4.0108   26.1641 H         4 RES4    0.0000
    475 H236       3.7074    4.0777   27.0971 H         4 RES4    0.0000
    476 H237       4.2802    5.3779   26.4751 H         4 RES4    0.0000
    477 H238       0.6415   11.9783   27.5744 H         4 RES4    0.0000
    478 H239      -0.0810   11.1831   26.4567 H         4 RES4    0.0000
    479 H240      -1.0730   13.1642   28.3103 H         4 RES4    0.0000
    480 H241      -2.3227   12.6463   27.5559 H         4 RES4    0.0000
    481 H242      -2.1712   13.1815   30.2041 H         4 RES4    0.0000
    482 H243      -2.7782   11.7884   29.8931 H         4 RES4    0.0000
    483 H244      -4.3690   13.2775   29.7145 H         4 RES4    0.0000
    484 H245      -3.8202   13.8116   28.3658 H         4 RES4    0.0000
    485 H246      -4.5372   15.1377   30.3334 H         4 RES4    0.0000
    486 H247      -3.5546   14.6910   31.4481 H         4 RES4    0.0000
    487 H248      -3.0058   15.2251   30.0994 H         4 RES4    0.0000
    488 H249       1.2173    4.3388   25.8347 H         4 RES4    0.0000
    489 H250       1.4230    5.3693   24.6953 H         4 RES4    0.0000
    490 H251      -0.6782   10.9036   29.2988 H         4 RES4    0.0000
    491 H252      -1.5679   10.5983   28.0671 H         4 RES4    0.0000
    492 H253       4.3120   11.7291   28.5782 H         4 RES4    0.0000
    493 H254       2.8544   12.2017   28.3288 H         4 RES4    0.0000
    494 H255       5.9182    9.2764   30.5797 H         4 RES4    0.0000
    495 H256       6.0498    9.7750   29.1171 H         4 RES4    0.0000
    496 H257       5.9938    7.1076   29.8038 H         4 RES4    0.0000
    497 H258       7.8859    7.9784   30.6752 H         4 RES4    0.0000
    498 H259       8.2380    6.9781   29.5451 H         4 RES4    0.0000
    499 H260       9.5800    8.8729   29.3480 H         4 RES4    0.0000
    500 H261       8.3227    9.7717   29.2280 H         4 RES4    0.0000
    501 H262       8.6750    8.7715   28.0948 H         4 RES4    0.0000
    502 H263       6.6230    6.6727   27.6206 H         4 RES4    0.0000
    503 H264       6.5349    8.1920   27.3188 H         4 RES4    0.0000
    504 H265       5.2528    7.3968   27.6822 H         4 RES4    0.0000
    505 H266       3.3384    7.2360   29.4250 H         4 RES4    0.0000
    506 C200       5.7202    9.2732   29.7329 Du        5 SUP5    0.0000
    507 C201       6.6828    8.3981   28.7199 Du        5 SUP5    0.0000
    508 C202       6.7719    6.9393   29.2187 Du        5 SUP5    0.0000
    509 C203       7.6402    6.7817   30.5028 Du        5 SUP5    0.0000
    510 C204       7.9866    9.0952   28.5413 Du        5 SUP5    0.0000
    511 C205       3.1468    4.3172   25.1665 Du        5 SUP5    0.0000
    512 C206       4.2446    5.3984   25.0495 Du        5 SUP5    0.0000
    513 C207       4.9016    5.5991   26.4289 Du        5 SUP5    0.0000
    514 C208       3.0258    3.5791   23.8270 Du        5 SUP5    0.0000
    515 C209      -2.0075   12.2190   28.0178 Du        5 SUP5    0.0000
    516 C210      -3.0913   12.2815   29.1048 Du        5 SUP5    0.0000
    517 C211      -2.8830   13.5494   29.9454 Du        5 SUP5    0.0000
    518 C212      -4.2246   13.9659   30.5582 Du        5 SUP5    0.0000
    519 H267       3.3812    3.6860   25.8377 Du        5 SUP5    0.0000
    520 H268       3.8496    6.2109   24.7538 Du        5 SUP5    0.0000
    521 H269       4.9150    5.1297   24.4336 Du        5 SUP5    0.0000
    522 H270       5.5701    6.2724   26.3766 Du        5 SUP5    0.0000
    523 H271       4.2291    5.8667   27.0417 Du        5 SUP5    0.0000
    524 H272       5.2944    4.7855   26.7215 Du        5 SUP5    0.0000
    525 H273       3.8573    3.1724   23.6084 Du        5 SUP5    0.0000
    526 H274       2.3504    2.9145   23.8732 Du        5 SUP5    0.0000
    527 H275       2.8006    4.2179   23.1619 Du        5 SUP5    0.0000
    528 H276      -1.5111   13.0272   27.9716 Du        5 SUP5    0.0000
    529 H277      -2.4217   12.0539   27.1772 Du        5 SUP5    0.0000
    530 H278      -2.8805   11.6989   29.8253 Du        5 SUP5    0.0000
    531 H279      -3.9369   12.0463   28.7445 Du        5 SUP5    0.0000
    532 H280      -2.0132   13.8159   30.2195 Du        5 SUP5    0.0000
    533 H281      -3.1840   14.1213   29.2495 Du        5 SUP5    0.0000
    534 H282      -4.2581   14.8604   30.8784 Du        5 SUP5    0.0000
    535 H283      -3.9236   13.3929   31.2541 Du        5 SUP5    0.0000
    536 H284      -5.0942   13.6972   30.2810 Du        5 SUP5    0.0000
    537 H285      -0.6722   11.2942   29.3450 Du        5 SUP5    0.0000
    538 H286      -1.3725   10.3695   28.3165 Du        5 SUP5    0.0000
    539 H287       5.9554    9.0887   30.6352 Du        5 SUP5    0.0000
    540 H288       5.8325   10.2001   29.5574 Du        5 SUP5    0.0000
    541 H289       6.2595    8.3841   27.8700 Du        5 SUP5    0.0000
    542 H290       5.8917    6.6339   29.4035 Du        5 SUP5    0.0000
    543 H291       7.1542    6.4073   28.5290 Du        5 SUP5    0.0000
    544 H292       7.6536    5.8667   30.7583 Du        5 SUP5    0.0000
    545 H293       7.2642    7.3018   31.2048 Du        5 SUP5    0.0000
    546 H294       8.5268    7.0741   30.3303 Du        5 SUP5    0.0000
    547 H295       8.5441    8.5923   27.9562 Du        5 SUP5    0.0000
    548 H296       8.4101    9.1750   29.3881 Du        5 SUP5    0.0000
    549 H297       7.8449    9.9595   28.1749 Du        5 SUP5    0.0000
@<TRIPOS>BOND
     1    1    2 ar
     2    2    3 ar
     3    3    4 ar
     4    4    5 ar
     5    5    6 ar
     6    6    1 ar
     7    7    6 1
     8    8    7 1
     9    9    8 ar
    10   10    9 1
    11   11    9 ar
    12   12   11 1
    13   13   12 1
    14   14   13 ar
    15   15   14 ar
    16   16   15 ar
    17   17   16 ar
    18   18   17 1
    19   19   18 1
    20   20   19 ar
    21   21   20 ar
    22   22    2 1
    23   23   21 ar
    24   24   23 ar
    25   25   19 ar
    26   26   24 1
    27   27   26 2
    28   28   26 2
    29   29   11 ar
    30   30   29 ar
    31   31    8 ar
    32   32   33 1
    33   33   38 1
    34   34   39 2
    35   35   39 2
    36   36   13 ar
    37   37   38 1
    38   38   41 1
    39   39   30 1
    40   40   37 1
    41   41   81 1
    42   42    1 1
    43   43   42 1
    44   44   43 1
    45   45   44 1
    46   46   45 1
    47   47   44 1
    48   48   20 1
    49   49   48 1
    50   50   49 1
    51   51   50 1
    52   52   51 1
    53   53   52 1
    54   54   53 1
    55   55    3 1
    56   56    4 1
    57   57    5 1
    58   58    7 1
    59   59    7 1
    60   60   12 1
    61   61   12 1
    62   62   14 1
    63   63   15 1
    64   64   16 1
    65   65   18 1
    66   66   18 1
    67   67   22 1
    68   68   22 1
    69   69   23 1
    70   70   25 1
    71   71   29 1
    72   72   31 1
    73   73   33 1
    74   74   33 1
    75   75   37 1
    76   76   37 1
    77   77   38 1
    78   78   40 1
    79   79   40 1
    80   80   40 1
    81   82   41 1
    82   83   41 1
    83   84   43 1
    84   85   43 1
    85   86   44 1
    86   87   45 1
    87   88   45 1
    88   89   46 1
    89   90   46 1
    90   91   46 1
    91   92   47 1
    92   93   47 1
    93   94   47 1
    94   95   49 1
    95   96   49 1
    96   97   50 1
    97   98   50 1
    98   99   51 1
    99  100   51 1
   100  101   52 1
   101  102   52 1
   102  103   53 1
   103  104   53 1
   104  105   54 1
   105  106   54 1
   106  107   54 1
   107  108   10 1
   108  128  129 ar
   109  129  130 ar
   110  130  131 ar
   111  131  132 ar
   112  132  133 ar
   113  133  128 ar
   114  134  133 1
   115  135  134 1
   116  136  135 ar
   117  137  136 1
   118  138  136 ar
   119  139  138 1
   120  140  139 1
   121  141  140 ar
   122  142  141 ar
   123  143  142 ar
   124  144  143 ar
   125  145  140 ar
   126  146  142 1
   127  147  146 1
   128  148  147 ar
   129  149  148 ar
   130  150  129 1
   131  151  149 ar
   132  152  151 ar
   133  153  147 ar
   134  154  152 1
   135  155  154 2
   136  156  154 2
   137  157  138 ar
   138  158  157 ar
   139  159  135 ar
   140  160  158 1
   141  161  160 2
   142  162  160 2
   143  163  128 1
   144  164  163 1
   145  165  164 1
   146  166  165 1
   147  167  166 1
   148  168  165 1
   149  169  141 1
   150  170  169 1
   151  171  170 1
   152  172  171 1
   153  173  172 1
   154  174  171 1
   155  175  148 1
   156  176  175 1
   157  177  176 1
   158  178  177 1
   159  179  178 1
   160  180  179 1
   161  181  180 1
   162  182  130 1
   163  183  131 1
   164  184  132 1
   165  185  134 1
   166  186  134 1
   167  187  139 1
   168  188  139 1
   169  189  143 1
   170  190  144 1
   171  191  145 1
   172  192  146 1
   173  193  146 1
   174  194  150 1
   175  195  150 1
   176  196  151 1
   177  197  153 1
   178  198  157 1
   179  199  159 1
   180  200  164 1
   181  201  164 1
   182  202  165 1
   183  203  166 1
   184  204  166 1
   185  205  167 1
   186  206  167 1
   187  207  167 1
   188  208  168 1
   189  209  168 1
   190  210  168 1
   191  211  170 1
   192  212  170 1
   193  213  171 1
   194  214  172 1
   195  215  172 1
   196  216  173 1
   197  217  173 1
   198  218  173 1
   199  219  174 1
   200  220  174 1
   201  221  174 1
   202  222  177 1
   203  223  177 1
   204  224  178 1
   205  225  178 1
   206  226  179 1
   207  227  179 1
   208  228  180 1
   209  229  180 1
   210  230  181 1
   211  231  181 1
   212  232  181 1
   213  233  176 1
   214  234  176 1
   215  235  137 1
   216  255  256 1
   217  256  257 ar
   218  257  258 1
   219  258  259 1
   220  259  260 ar
   221  260  261 ar
   222  261  262 ar
   223  262  263 ar
   224  263  264 ar
   225  264  259 ar
   226  265  261 1
   227  266  257 ar
   228  267  266 ar
   229  268  267 1
   230  269  268 2
   231  270  268 2
   232  271  267 ar
   233  272  256 ar
   234  273  272 1
   235  274  273 1
   236  275  274 ar
   237  276  275 1
   238  277  276 1
   239  278  275 ar
   240  279  278 1
   241  280  279 1
   242  281  280 ar
   243  282  281 ar
   244  283  282 ar
   245  284  282 1
   246  285  284 2
   247  286  284 2
   248  287  278 ar
   249  288  287 ar
   250  289  274 ar
   251  290  291 1
   252  291  295 1
   253  292  265 1
   254  293  280 ar
   255  294  295 1
   256  295  277 1
   257  296  260 1
   258  297  296 1
   259  298  297 1
   260  299  298 1
   261  300  299 1
   262  301  298 1
   263  302  293 1
   264  303  302 1
   265  304  303 1
   266  305  304 1
   267  306  305 1
   268  307  306 1
   269  308  307 1
   270  309  258 1
   271  310  258 1
   272  311  262 1
   273  312  263 1
   274  313  264 1
   275  314  265 1
   276  315  265 1
   277  316  266 1
   278  317  271 1
   279  318  273 1
   280  319  273 1
   281  320  277 1
   282  321  277 1
   283  322  279 1
   284  323  279 1
   285  324  281 1
   286  325  283 1
   287  326  287 1
   288  327  288 1
   289  328  289 1
   290  329  290 1
   291  330  290 1
   292  331  290 1
   293  332  291 1
   294  333  291 1
   295  334  294 1
   296  335  294 1
   297  336  294 1
   298  337  295 1
   299  338  297 1
   300  339  297 1
   301  340  298 1
   302  341  299 1
   303  342  299 1
   304  343  300 1
   305  344  300 1
   306  345  300 1
   307  346  301 1
   308  347  301 1
   309  348  301 1
   310  349  303 1
   311  350  303 1
   312  351  304 1
   313  352  304 1
   314  353  305 1
   315  354  305 1
   316  355  306 1
   317  356  306 1
   318  357  307 1
   319  358  307 1
   320  359  308 1
   321  360  308 1
   322  361  308 1
   323  362  255 1
   324  398  399 ar
   325  399  400 1
   326  400  401 1
   327  401  402 ar
   328  402  403 1
   329  403  505 1
   330  404  402 ar
   331  405  404 1
   332  406  405 1
   333  407  406 ar
   334  408  407 ar
   335  409  408 ar
   336  410  409 ar
   337  411  406 ar
   338  412  410 1
   339  413  412 1
   340  414  413 ar
   341  415  414 ar
   342  416  415 ar
   343  417  416 ar
   344  418  413 ar
   345  419  417 1
   346  420  398 ar
   347  421  420 ar
   348  422  421 ar
   349  423  399 ar
   350  424  415 1
   351  425  424 2
   352  426  424 2
   353  427  404 ar
   354  428  427 ar
   355  429  401 ar
   356  430  428 1
   357  431  430 2
   358  432  430 2
   359  433  411 1
   360  434  433 1
   361  435  434 1
   362  436  435 1
   363  437  436 1
   364  438  435 1
   365  439  398 1
   366  440  439 1
   367  441  440 1
   368  442  441 1
   369  443  442 1
   370  444  441 1
   371  445  418 1
   372  446  445 1
   373  447  446 1
   374  448  447 1
   375  449  448 1
   376  450  449 1
   377  451  450 1
   378  452  400 1
   379  453  400 1
   380  454  405 1
   381  455  405 1
   382  456  407 1
   383  457  408 1
   384  458  409 1
   385  459  414 1
   386  460  416 1
   387  461  419 1
   388  462  419 1
   389  463  421 1
   390  464  422 1
   391  465  423 1
   392  466  427 1
   393  467  429 1
   394  468  441 1
   395  469  442 1
   396  470  442 1
   397  471  443 1
   398  472  443 1
   399  473  443 1
   400  474  444 1
   401  475  444 1
   402  476  444 1
   403  477  446 1
   404  478  446 1
   405  479  448 1
   406  480  448 1
   407  481  449 1
   408  482  449 1
   409  483  450 1
   410  484  450 1
   411  485  451 1
   412  486  451 1
   413  487  451 1
   414  488  440 1
   415  489  440 1
   416  490  447 1
   417  491  447 1
   418  492  412 1
   419  493  412 1
   420  494  434 1
   421  495  434 1
   422  496  435 1
   423  497  436 1
   424  498  436 1
   425  499  437 1
   426  500  437 1
   427  501  437 1
   428  502  438 1
   429  503  438 1
   430  504  438 1
   431   17   36 ar
   432   21   22 1
   433   24   25 ar
   434   30   31 ar
   435   32   36 1
   436  144  145 ar
   437  149  150 1
   438  152  153 ar
   439  158  159 ar
   440  271  272 ar
   441  283  292 ar
   442  288  289 ar
   443  292  293 ar
   444  410  411 ar
   445  417  418 ar
   446  419  420 1
   447  422  423 ar
   448  428  429 ar
@<TRIPOS>SUBSTRUCTURE
     1 RES1 1
     2 RES2 128
     3 RES3 255
     4 RES4 398
     5 SUP5 109

@<TRIPOS>CRYSIN
  24.5098   10.7903   30.8946  90.0000  94.6663  90.0000   4 1

