# MOL2 file generated by ConQuest
# Please check atom types

@<TRIPOS>MOLECULE
LOBJET
   563   520     5
SMALL
NO_CHARGES
****
Generated from CSD

@<TRIPOS>ATOM
      1 O1        10.9994   11.5105   12.8510 O.2       1 RES1    0.0000
      2 N1        10.9821   12.4843   12.1224 N.pl3     1 RES1    0.0000
      3 O2        11.9502   12.8208   11.4386 O.2       1 RES1    0.0000
      4 C1         9.7689   13.2790   12.0421 C.ar      1 RES1    0.0000
      5 C2         8.6556   12.8778   12.7778 C.ar      1 RES1    0.0000
      6 C3         7.4908   13.6088   12.6992 C.ar      1 RES1    0.0000
      7 C4         7.4502   14.7260   11.8457 C.ar      1 RES1    0.0000
      8 C5         8.6079   15.1763   11.1636 C.ar      1 RES1    0.0000
      9 C6         9.7505   14.4225   11.2564 C.ar      1 RES1    0.0000
     10 C7         8.6199   16.4998   10.4261 C.3       1 RES1    0.0000
     11 C8         8.5032   17.6579   11.4082 C.ar      1 RES1    0.0000
     12 C9         9.5612   17.9379   12.2940 C.ar      1 RES1    0.0000
     13 O3        10.7166   17.2169   12.1676 O.3       1 RES1    0.0000
     14 C10       11.6686   17.8969   11.3153 C.3       1 RES1    0.0000
     15 C11       12.7770   16.9596   10.8779 C.3       1 RES1    0.0000
     16 C12       13.4513   16.2747   12.0582 C.3       1 RES1    0.0000
     17 C13       14.5176   15.2529   11.6332 C.3       1 RES1    0.0000
     18 C14       13.7589   17.7802   10.0261 C.3       1 RES1    0.0000
     19 C15        9.4170   18.8953   13.3063 C.ar      1 RES1    0.0000
     20 C16        8.2639   19.6545   13.3474 C.ar      1 RES1    0.0000
     21 C17        7.2320   19.4355   12.4421 C.ar      1 RES1    0.0000
     22 C18        7.3582   18.4218   11.4921 C.ar      1 RES1    0.0000
     23 C19       10.4942   19.0518   14.3830 C.3       1 RES1    0.0000
     24 C20       10.5375   17.8358   15.2728 C.ar      1 RES1    0.0000
     25 C21        9.4721   17.5264   16.1275 C.ar      1 RES1    0.0000
     26 O4         8.4490   18.4342   16.2388 O.3       1 RES1    0.0000
     27 C22        8.5561   19.3207   17.3792 C.3       1 RES1    0.0000
     28 C23        7.7175   20.4991   17.1668 C.3       1 RES1    0.0000
     29 C24        6.3023   20.2617   16.7489 C.3       1 RES1    0.0000
     30 C25        5.4841   21.5200   16.6329 C.3       1 RES1    0.0000
     31 C26        4.1150   21.3866   16.1347 C.3       1 RES1    0.0000
     32 C27        9.3950   16.2984   16.7879 C.ar      1 RES1    0.0000
     33 C28       10.4435   15.4251   16.7061 C.ar      1 RES1    0.0000
     34 C29       11.5591   15.7771   15.9311 C.ar      1 RES1    0.0000
     35 C30       11.6090   16.9493   15.2062 C.ar      1 RES1    0.0000
     36 N2        12.6828   14.8536   15.8883 N.pl3     1 RES1    0.0000
     37 O5        13.6429   15.1382   15.1740 O.2       1 RES1    0.0000
     38 O6        12.6527   13.8473   16.5882 O.2       1 RES1    0.0000
     39 C31        8.1319   15.8909   17.5221 C.3       1 RES1    0.0000
     40 C32        6.9991   15.6132   16.5472 C.ar      1 RES1    0.0000
     41 C33        5.9264   16.4797   16.4525 C.ar      1 RES1    0.0000
     42 C34        4.9241   16.2722   15.5044 C.ar      1 RES1    0.0000
     43 C35        5.0293   15.2123   14.6151 C.ar      1 RES1    0.0000
     44 C36        6.1070   14.3532   14.6616 C.ar      1 RES1    0.0000
     45 C37        7.0562   14.5130   15.6686 C.ar      1 RES1    0.0000
     46 O7         8.0973   13.6148   15.7617 O.3       1 RES1    0.0000
     47 C38        7.8485   12.5455   16.6864 C.3       1 RES1    0.0000
     48 C39        8.6726   11.3375   16.3347 C.3       1 RES1    0.0000
     49 C40        8.3004   10.2439   17.3882 C.3       1 RES1    0.0000
     50 C41        8.8001    8.8657   16.9739 C.3       1 RES1    0.0000
     51 C42       10.1247   11.5825   16.2186 C.3       1 RES1    0.0000
     52 C43        6.3000   13.2821   13.5902 C.3       1 RES1    0.0000
     53 C44        3.9413   20.8623   14.7508 C.3       1 RES1    0.0000
     54 O8         6.2808   15.4135   11.7350 O.3       1 RES1    0.0000
     55 C45        5.5356   15.1777   10.5297 C.3       1 RES1    0.0000
     56 C46        4.0754   15.5181   10.7797 C.3       1 RES1    0.0000
     57 C47        3.8190   16.8971   11.3939 C.3       1 RES1    0.0000
     58 C48        2.3893   17.0013   11.9474 C.3       1 RES1    0.0000
     59 C49        2.1299   18.4821   12.2653 C.3       1 RES1    0.0000
     60 C50        0.6827   18.7312   12.7224 C.3       1 RES1    0.0000
     61 H1         8.7033   12.1057   13.3295 H         1 RES1    0.0000
     62 H2        10.5308   14.6866   10.7850 H         1 RES1    0.0000
     63 H3         9.4375   16.5818    9.9511 H         1 RES1    0.0000
     64 H4         7.8931   16.5264    9.8137 H         1 RES1    0.0000
     65 H5        12.0501   18.6241   11.7939 H         1 RES1    0.0000
     66 H6        11.2165   18.2269   10.5475 H         1 RES1    0.0000
     67 H7        12.3939   16.2847   10.3297 H         1 RES1    0.0000
     68 H8        13.8794   16.9426   12.5831 H         1 RES1    0.0000
     69 H9        12.7884   15.8399   12.5813 H         1 RES1    0.0000
     70 H10       14.9071   14.8666   12.4081 H         1 RES1    0.0000
     71 H11       15.1930   15.6772   11.1154 H         1 RES1    0.0000
     72 H12       14.1020   14.5745   11.1136 H         1 RES1    0.0000
     73 H13       14.4670   17.2187    9.7315 H         1 RES1    0.0000
     74 H14       14.1134   18.4911   10.5458 H         1 RES1    0.0000
     75 H15       13.3041   18.1348    9.2708 H         1 RES1    0.0000
     76 H16        8.1782   20.3366   14.0009 H         1 RES1    0.0000
     77 H17        6.4457   19.9664   12.4706 H         1 RES1    0.0000
     78 H18        6.6417   18.2517   10.8904 H         1 RES1    0.0000
     79 H19       10.2917   19.8170   14.9115 H         1 RES1    0.0000
     80 H20       11.3399   19.1672   13.9705 H         1 RES1    0.0000
     81 H21        9.4615   19.5872   17.4953 H         1 RES1    0.0000
     82 H22        8.2594   18.8672   18.1578 H         1 RES1    0.0000
     83 H23        7.7032   21.0020   17.9721 H         1 RES1    0.0000
     84 H24        8.1266   21.0117   16.4811 H         1 RES1    0.0000
     85 H25        5.8978   19.7026   17.4007 H         1 RES1    0.0000
     86 H26        6.3027   19.8184   15.9079 H         1 RES1    0.0000
     87 H27        5.4745   21.9425   17.4846 H         1 RES1    0.0000
     88 H28        5.9188   22.0845   16.0043 H         1 RES1    0.0000
     89 H29        3.6708   22.2217   16.2222 H         1 RES1    0.0000
     90 H30        3.6970   20.7464   16.7007 H         1 RES1    0.0000
     91 H31       10.4167   14.5924   17.1632 H         1 RES1    0.0000
     92 H32       12.3691   17.1521   14.6741 H         1 RES1    0.0000
     93 H33        7.8681   16.5944   18.1042 H         1 RES1    0.0000
     94 H34        8.3070   15.1089   18.0328 H         1 RES1    0.0000
     95 H35        5.8709   17.2192   17.0471 H         1 RES1    0.0000
     96 H36        4.1807   16.8619   15.4633 H         1 RES1    0.0000
     97 H37        4.3491   15.0755   13.9652 H         1 RES1    0.0000
     98 H38        8.0645   12.8278   17.5667 H         1 RES1    0.0000
     99 H39        6.9267   12.3158   16.6454 H         1 RES1    0.0000
    100 H40        8.3776   11.0270   15.4865 H         1 RES1    0.0000
    101 H41        8.6766   10.4789   18.2274 H         1 RES1    0.0000
    102 H42        7.3555   10.1937   17.4685 H         1 RES1    0.0000
    103 H43        8.5660    8.2153   17.6257 H         1 RES1    0.0000
    104 H44        9.7474    8.9089   16.8971 H         1 RES1    0.0000
    105 H45        8.4249    8.6240   16.1365 H         1 RES1    0.0000
    106 H46       10.5736   10.7763   15.9954 H         1 RES1    0.0000
    107 H47       10.4504   11.9063   17.0507 H         1 RES1    0.0000
    108 H48       10.2827   12.2309   15.5419 H         1 RES1    0.0000
    109 H49        6.4495   12.4437   14.0134 H         1 RES1    0.0000
    110 H50        5.5158   13.2325   13.0581 H         1 RES1    0.0000
    111 H51        3.0214   20.7740   14.5330 H         1 RES1    0.0000
    112 H52        4.3458   21.4958   14.1723 H         1 RES1    0.0000
    113 H53        4.3720   20.0204   14.6508 H         1 RES1    0.0000
    114 H54        5.8486   15.7555    9.8440 H         1 RES1    0.0000
    115 H55        5.6312   14.2753   10.2529 H         1 RES1    0.0000
    116 H56        3.7584   14.8772   11.4064 H         1 RES1    0.0000
    117 H57        3.5873   15.4361    9.9690 H         1 RES1    0.0000
    118 H58        4.4293   17.0528   12.1046 H         1 RES1    0.0000
    119 H59        3.9576   17.5415   10.7100 H         1 RES1    0.0000
    120 H60        2.2776   16.4544   12.7170 H         1 RES1    0.0000
    121 H61        1.7702   16.7349   11.2778 H         1 RES1    0.0000
    122 H62        2.7570   18.7306   12.9349 H         1 RES1    0.0000
    123 H63        2.2657   19.0148   11.4921 H         1 RES1    0.0000
    124 H64        0.5839   19.6524   12.9367 H         1 RES1    0.0000
    125 H65        0.5397   18.2077   13.5009 H         1 RES1    0.0000
    126 H66        0.0485   18.4921   12.0564 H         1 RES1    0.0000
    127 C51        2.3039   17.1229   11.5100 Du        5 SUP5    0.0000
    128 C52        1.9657   18.1017   12.6456 Du        5 SUP5    0.0000
    129 C53        0.4479   18.0815   12.8992 Du        5 SUP5    0.0000
    130 H67        1.9016   17.4358   10.7082 Du        5 SUP5    0.0000
    131 H68        1.9693   16.2595   11.7171 Du        5 SUP5    0.0000
    132 H69        2.3001   18.9667   12.4385 Du        5 SUP5    0.0000
    133 H70        2.3678   17.7904   13.4474 Du        5 SUP5    0.0000
    134 H71        0.2413   18.6789   13.6081 Du        5 SUP5    0.0000
    135 H72        0.0461   18.3930   12.0957 Du        5 SUP5    0.0000
    136 H73        0.1138   17.2167   13.1045 Du        5 SUP5    0.0000
    137 O9         1.9957    7.1866   16.6257 O.3       2 RES2    0.0000
    138 C54        2.6755    8.3902   16.5436 C.ar      2 RES2    0.0000
    139 C55        3.7983    8.4907   15.6918 C.ar      2 RES2    0.0000
    140 C56        4.5043    9.6662   15.6561 C.ar      2 RES2    0.0000
    141 C57        4.0782   10.7639   16.3775 C.ar      2 RES2    0.0000
    142 C58        2.9370   10.6967   17.1400 C.ar      2 RES2    0.0000
    143 C59        2.1998    9.5078   17.2203 C.ar      2 RES2    0.0000
    144 C60        0.8864    9.4745   17.9863 C.3       2 RES2    0.0000
    145 C61       -0.3004    9.4618   17.0439 C.ar      2 RES2    0.0000
    146 C62       -0.5894   10.5685   16.2382 C.ar      2 RES2    0.0000
    147 C63       -2.3979    9.4068   15.1758 C.ar      2 RES2    0.0000
    148 C64       -2.1663    8.3421   16.0400 C.ar      2 RES2    0.0000
    149 C65       -1.1040    8.3508   16.9328 C.ar      2 RES2    0.0000
    150 N3        -3.0194    7.1617   15.9650 N.pl3     2 RES2    0.0000
    151 O10       -4.0395    7.2321   15.2990 O.2       2 RES2    0.0000
    152 O11       -2.7090    6.1703   16.5668 O.2       2 RES2    0.0000
    153 C66       -1.7080   11.6392   14.2187 C.3       2 RES2    0.0000
    154 C67       -0.4817   11.6594   13.3295 C.ar      2 RES2    0.0000
    155 C68       -0.1666   10.5964   12.4796 C.ar      2 RES2    0.0000
    156 O12       -1.0795    9.5614   12.3560 O.3       2 RES2    0.0000
    157 C69       -2.0352    9.7845   11.2975 C.3       2 RES2    0.0000
    158 C70       -3.2139    8.8423   11.4261 C.3       2 RES2    0.0000
    159 C71       -4.1284    9.0850   10.2386 C.3       2 RES2    0.0000
    160 C72       -2.7634    7.3982   11.5564 C.3       2 RES2    0.0000
    161 C73       -3.8656    6.3973   11.8242 C.3       2 RES2    0.0000
    162 C74        1.0518   10.5313   11.7885 C.ar      2 RES2    0.0000
    163 C75        1.4219    9.2914   11.0029 C.3       2 RES2    0.0000
    164 C76        1.7370    8.1153   11.8992 C.ar      2 RES2    0.0000
    165 C77        2.8662    8.1314   12.7438 C.ar      2 RES2    0.0000
    166 C78        3.0740    7.1483   13.7170 C.ar      2 RES2    0.0000
    167 C79        4.1472    7.3274   14.7812 C.3       2 RES2    0.0000
    168 C80        2.2186    6.0618   13.7438 C.ar      2 RES2    0.0000
    169 C81        1.1749    5.9985   12.8438 C.ar      2 RES2    0.0000
    170 C82        0.9047    7.0295   11.9474 C.ar      2 RES2    0.0000
    171 N4         0.2930    4.8381   12.8617 N.pl3     2 RES2    0.0000
    172 O13       -0.6542    4.8056   12.1010 O.2       2 RES2    0.0000
    173 O14        0.5144    3.9413   13.6420 O.2       2 RES2    0.0000
    174 C83        1.9157   11.6069   11.8957 C.ar      2 RES2    0.0000
    175 C84        1.6062   12.6970   12.6670 C.ar      2 RES2    0.0000
    176 C85        0.4167   12.7303   13.3795 C.ar      2 RES2    0.0000
    177 C86        2.4772    6.3697   17.7078 C.3       2 RES2    0.0000
    178 C87        1.9229    4.9604   17.5703 C.3       2 RES2    0.0000
    179 C88        0.4539    4.9366   17.3989 C.3       2 RES2    0.0000
    180 C89       -0.1139    3.5616   17.1096 C.3       2 RES2    0.0000
    181 C90        2.3898    4.1624   18.7970 C.3       2 RES2    0.0000
    182 C91       -1.5911   10.5268   15.2383 C.ar      2 RES2    0.0000
    183 O15        0.1724   11.7053   16.3484 O.3       2 RES2    0.0000
    184 C92       -0.3412   12.7177   17.2293 C.3       2 RES2    0.0000
    185 C93        0.5044   13.9740   16.9650 C.3       2 RES2    0.0000
    186 C94       -0.0589   15.1685   17.7346 C.3       2 RES2    0.0000
    187 C95        0.9396   16.3407   17.7417 C.3       2 RES2    0.0000
    188 C96        0.9121   17.1217   16.4239 C.3       2 RES2    0.0000
    189 C97        1.7225   18.4127   16.6382 C.3       2 RES2    0.0000
    190 O16        3.7627    9.1618   12.6403 O.3       2 RES2    0.0000
    191 C98        4.8489    8.8339   11.7600 C.3       2 RES2    0.0000
    192 C99        5.6956   10.1011   11.8171 C.3       2 RES2    0.0000
    193 C100       6.8974   10.0370   10.8689 C.3       2 RES2    0.0000
    194 C101       7.6488    8.7101   11.0279 C.3       2 RES2    0.0000
    195 C102       8.5226    8.7611   12.2939 C.3       2 RES2    0.0000
    196 C103       8.6870    7.3221   12.8099 C.3       2 RES2    0.0000
    197 H74        5.2945    9.7261   15.1347 H         2 RES2    0.0000
    198 H75        4.5737   11.5749   16.3382 H         2 RES2    0.0000
    199 H76        2.6496   11.4607   17.6239 H         2 RES2    0.0000
    200 H77        0.8341   10.2371   18.5506 H         2 RES2    0.0000
    201 H78        0.8583    8.6870   18.5167 H         2 RES2    0.0000
    202 H79       -3.1051    9.3641   14.5437 H         2 RES2    0.0000
    203 H80       -0.9383    7.5895   17.4757 H         2 RES2    0.0000
    204 H81       -1.7899   12.4725   14.6669 H         2 RES2    0.0000
    205 H82       -2.4762   11.4924   13.6813 H         2 RES2    0.0000
    206 H83       -2.3436   10.6831   11.3439 H         2 RES2    0.0000
    207 H84       -1.6151    9.6358   10.4583 H         2 RES2    0.0000
    208 H85       -3.6903    9.0718   12.2153 H         2 RES2    0.0000
    209 H86       -4.8810    8.5075   10.3011 H         2 RES2    0.0000
    210 H87       -4.4242    9.9882   10.2333 H         2 RES2    0.0000
    211 H88       -3.6549    8.9012    9.4351 H         2 RES2    0.0000
    212 H89       -2.1257    7.3399   12.2581 H         2 RES2    0.0000
    213 H90       -2.3554    7.1463   10.7368 H         2 RES2    0.0000
    214 H91       -3.5081    5.5206   11.8814 H         2 RES2    0.0000
    215 H92       -4.2797    6.6261   12.6474 H         2 RES2    0.0000
    216 H93       -4.5094    6.4324   11.1261 H         2 RES2    0.0000
    217 H94        2.1823    9.4847   10.4690 H         2 RES2    0.0000
    218 H95        0.6914    9.0575   10.4440 H         2 RES2    0.0000
    219 H96        4.2129    6.5332   15.2990 H         2 RES2    0.0000
    220 H97        4.9795    7.4995   14.3580 H         2 RES2    0.0000
    221 H98        2.3473    5.3618   14.3741 H         2 RES2    0.0000
    222 H99        0.1481    6.9831   11.3743 H         2 RES2    0.0000
    223 H100       2.7482   11.5889   11.4403 H         2 RES2    0.0000
    224 H101       2.1950   13.4428   12.6974 H         2 RES2    0.0000
    225 H102       0.2147   13.4845   13.9187 H         2 RES2    0.0000
    226 H103       2.1817    6.7366   18.5327 H         2 RES2    0.0000
    227 H104       3.4264    6.3453   17.6935 H         2 RES2    0.0000
    228 H105       2.3086    4.5714   16.7936 H         2 RES2    0.0000
    229 H106       0.0655    5.2536   18.2060 H         2 RES2    0.0000
    230 H107       0.2217    5.5192   16.6864 H         2 RES2    0.0000
    231 H108      -1.0588    3.6271   17.0239 H         2 RES2    0.0000
    232 H109       0.0993    2.9679   17.8203 H         2 RES2    0.0000
    233 H110       0.2558    3.2336   16.2990 H         2 RES2    0.0000
    234 H111       2.0705    3.2695   18.7434 H         2 RES2    0.0000
    235 H112       2.0590    4.5709   19.5880 H         2 RES2    0.0000
    236 H113       3.3407    4.1585   18.8166 H         2 RES2    0.0000
    237 H114      -0.2525   12.4464   18.1345 H         2 RES2    0.0000
    238 H115      -1.2546   12.8887   17.0364 H         2 RES2    0.0000
    239 H116       1.3987   13.8169   17.2471 H         2 RES2    0.0000
    240 H117       0.4939   14.1698   16.0365 H         2 RES2    0.0000
    241 H118       0.6975   16.9519   18.4292 H         2 RES2    0.0000
    242 H119       1.8023   15.9873   17.9203 H         2 RES2    0.0000
    243 H120       0.0286   17.2894   16.1204 H         2 RES2    0.0000
    244 H121       1.3779   16.6051   15.7758 H         2 RES2    0.0000
    245 H122       1.7620   18.9028   15.8258 H         2 RES2    0.0000
    246 H123       1.2529   18.9188   17.2917 H         2 RES2    0.0000
    247 H124       2.6019   18.2362   16.9471 H         2 RES2    0.0000
    248 H125       6.0029   10.2473   12.7045 H         2 RES2    0.0000
    249 H126       5.1579   10.8339   11.5439 H         2 RES2    0.0000
    250 H127       7.4937   10.7568   11.0368 H         2 RES2    0.0000
    251 H128       6.5942   10.0813    9.9690 H         2 RES2    0.0000
    252 H129       8.2457    8.5610   10.3029 H         2 RES2    0.0000
    253 H130       7.0226    7.9974   11.0761 H         2 RES2    0.0000
    254 H131       9.3390    9.2250   12.1456 H         2 RES2    0.0000
    255 H132       8.0122    9.2196   12.9510 H         2 RES2    0.0000
    256 H133       9.1791    7.3614   13.6223 H         2 RES2    0.0000
    257 H134       9.1972    6.8652   12.1528 H         2 RES2    0.0000
    258 H135       7.8709    6.8584   12.9563 H         2 RES2    0.0000
    259 H136      -0.2474   14.9020   18.6274 H         2 RES2    0.0000
    260 H137      -0.8610   15.4608   17.3150 H         2 RES2    0.0000
    261 H138       5.3475    8.0898   12.0742 H         2 RES2    0.0000
    262 H139       4.5344    8.6573   10.8814 H         2 RES2    0.0000
    263 C104       0.7809   16.4229   17.4310 Du        5 SUP5    0.0000
    264 C105       0.6999   16.8396   15.9561 Du        5 SUP5    0.0000
    265 C106       1.1505   18.3074   15.9150 Du        5 SUP5    0.0000
    266 C107       6.0420    9.7638   11.9564 Du        5 SUP5    0.0000
    267 C108       7.1370    9.4222   10.9297 Du        5 SUP5    0.0000
    268 C109       7.9271    8.1872   11.3868 Du        5 SUP5    0.0000
    269 C110       8.3210    8.4134   12.8527 Du        5 SUP5    0.0000
    270 C111       9.5283    7.5229   13.1652 Du        5 SUP5    0.0000
    271 H140       0.4252   17.1553   17.9203 Du        5 SUP5    0.0000
    272 H141       1.6749   16.2595   17.7114 Du        5 SUP5    0.0000
    273 H142      -0.1589   16.6902   15.5794 Du        5 SUP5    0.0000
    274 H143       1.3440   16.3158   15.4936 Du        5 SUP5    0.0000
    275 H144       1.1671   18.5840   15.0062 Du        5 SUP5    0.0000
    276 H145       0.5041   18.8167   16.3900 Du        5 SUP5    0.0000
    277 H146       2.0067   18.4439   16.3043 Du        5 SUP5    0.0000
    278 H147       6.3747    9.6483   12.8385 Du        5 SUP5    0.0000
    279 H148       5.7697   10.6657   11.8367 Du        5 SUP5    0.0000
    280 H149       7.7163   10.1681   10.8350 Du        5 SUP5    0.0000
    281 H150       6.7286    9.2291   10.0940 Du        5 SUP5    0.0000
    282 H151       8.7770    8.2047   10.9618 Du        5 SUP5    0.0000
    283 H152       7.4710    7.3876   11.1493 Du        5 SUP5    0.0000
    284 H153       8.3244    9.3178   13.1402 Du        5 SUP5    0.0000
    285 H154       7.6080    7.9497   13.2759 Du        5 SUP5    0.0000
    286 H155       9.6483    7.5550   14.1080 Du        5 SUP5    0.0000
    287 H156      10.2396    7.9884   12.7403 Du        5 SUP5    0.0000
    288 H157       9.5233    6.6184   12.8777 Du        5 SUP5    0.0000
    289 H158      -0.0445   14.9774   18.6649 Du        5 SUP5    0.0000
    290 H159      -0.9540   15.3266   17.4578 Du        5 SUP5    0.0000
    291 H160       5.1241    7.9379   11.9117 Du        5 SUP5    0.0000
    292 H161       4.5516    8.9268   10.8618 Du        5 SUP5    0.0000
    293 O17       20.7075   15.8085    6.4532 O.2       3 RES3    0.0000
    294 N5        20.5613   16.8236    7.0728 N.pl3     3 RES3    0.0000
    295 O18       19.5077   17.0793    7.6674 O.2       3 RES3    0.0000
    296 C112      21.6472   17.7969    7.1495 C.ar      3 RES3    0.0000
    297 C113      22.7596   17.6224    6.3228 C.ar      3 RES3    0.0000
    298 C114      23.8189   18.5099    6.3942 C.ar      3 RES3    0.0000
    299 C115      23.7517   19.5404    7.3674 C.ar      3 RES3    0.0000
    300 C116      22.6121   19.7480    8.1352 C.ar      3 RES3    0.0000
    301 C117      21.5501   18.8642    8.0173 C.ar      3 RES3    0.0000
    302 C118      22.5061   20.9729    9.0208 C.3       3 RES3    0.0000
    303 C119      22.3664   22.2225    8.1638 C.ar      3 RES3    0.0000
    304 C120      21.1824   22.4643    7.4531 C.ar      3 RES3    0.0000
    305 O19       20.1033   21.6203    7.6515 O.3       3 RES3    0.0000
    306 C121      19.2302   22.0841    8.7012 C.3       3 RES3    0.0000
    307 C122      18.3257   20.9492    9.1387 C.3       3 RES3    0.0000
    308 C123      17.5686   20.3524    7.9834 C.3       3 RES3    0.0000
    309 C124      16.6773   19.1764    8.3263 C.3       3 RES3    0.0000
    310 C125      17.4142   21.4604   10.2743 C.3       3 RES3    0.0000
    311 C126      21.1150   23.4840    6.5014 C.ar      3 RES3    0.0000
    312 C127      19.9240   23.5807    5.5568 C.3       3 RES3    0.0000
    313 C128      19.9561   22.4285    4.5801 C.ar      3 RES3    0.0000
    314 C129      19.0809   21.3672    4.7104 C.ar      3 RES3    0.0000
    315 C130      19.2380   20.2416    3.9087 C.ar      3 RES3    0.0000
    316 N6        18.2839   19.1476    4.0408 N.pl3     3 RES3    0.0000
    317 O20       17.3146   19.2850    4.7818 O.2       3 RES3    0.0000
    318 O21       18.4977   18.1176    3.4087 O.2       3 RES3    0.0000
    319 C131      20.2784   20.1303    3.0016 C.ar      3 RES3    0.0000
    320 C132      21.1584   21.1870    2.8409 C.ar      3 RES3    0.0000
    321 C133      20.9447   22.3456    3.5837 C.ar      3 RES3    0.0000
    322 C134      22.3760   21.0424    1.9534 C.3       3 RES3    0.0000
    323 C135      23.6327   20.8852    2.7891 C.ar      3 RES3    0.0000
    324 C136      23.8385   19.7274    3.5166 C.ar      3 RES3    0.0000
    325 O22       22.9457   18.6766    3.3614 O.3       3 RES3    0.0000
    326 C137      23.4404   17.7003    2.4159 C.3       3 RES3    0.0000
    327 C138      22.3098   16.7867    1.9713 C.3       3 RES3    0.0000
    328 C139      22.8806   15.7735    1.0035 C.3       3 RES3    0.0000
    329 C140      21.6238   16.1358    3.1391 C.3       3 RES3    0.0000
    330 C141      20.3597   15.3560    2.7891 C.3       3 RES3    0.0000
    331 C142      24.8797   19.5985    4.4444 C.ar      3 RES3    0.0000
    332 C143      24.9557   18.4332    5.4014 C.3       3 RES3    0.0000
    333 C144      25.7899   20.6506    4.5158 C.ar      3 RES3    0.0000
    334 C145      25.6449   21.7887    3.7480 C.ar      3 RES3    0.0000
    335 C146      24.5475   21.9278    2.8998 C.ar      3 RES3    0.0000
    336 C147      22.2198   24.3339    6.3532 C.ar      3 RES3    0.0000
    337 C148      23.3484   24.1560    7.1156 C.ar      3 RES3    0.0000
    338 C149      23.4341   23.0882    7.9923 C.ar      3 RES3    0.0000
    339 O23       21.7502   23.4434    3.3784 O.3       3 RES3    0.0000
    340 C150      21.1742   24.4758    2.5677 C.3       3 RES3    0.0000
    341 C151      22.1260   25.6549    2.5980 C.3       3 RES3    0.0000
    342 C152      21.4786   26.7679    1.7535 C.3       3 RES3    0.0000
    343 C153      20.1332   27.2088    2.3659 C.3       3 RES3    0.0000
    344 C154      20.3674   27.8852    3.7301 C.3       3 RES3    0.0000
    345 C155      19.0921   28.6313    4.1587 C.3       3 RES3    0.0000
    346 O24       24.8191   20.3753    7.5127 O.3       3 RES3    0.0000
    347 C156      25.7693   19.9101    8.5012 C.3       3 RES3    0.0000
    348 C157      26.7510   20.9897    8.8923 C.3       3 RES3    0.0000
    349 C158      27.7750   21.2422    7.7870 C.3       3 RES3    0.0000
    350 C159      28.9095   22.1347    8.3280 C.3       3 RES3    0.0000
    351 C160      29.9361   22.3488    7.2174 C.3       3 RES3    0.0000
    352 C161      31.0312   23.2938    7.7406 C.3       3 RES3    0.0000
    353 H162      22.7890   16.8982    5.7086 H         3 RES3    0.0000
    354 H163      20.7576   18.9950    8.5245 H         3 RES3    0.0000
    355 H164      23.2878   21.0451    9.5547 H         3 RES3    0.0000
    356 H165      21.7451   20.8919    9.5833 H         3 RES3    0.0000
    357 H166      19.7541   22.3665    9.4423 H         3 RES3    0.0000
    358 H167      18.7034   22.8099    8.3905 H         3 RES3    0.0000
    359 H168      18.8804   20.2682    9.4976 H         3 RES3    0.0000
    360 H169      16.9960   21.0215    7.6281 H         3 RES3    0.0000
    361 H170      18.1954   20.0865    7.3227 H         3 RES3    0.0000
    362 H171      16.2322   18.8626    7.5477 H         3 RES3    0.0000
    363 H172      16.0334   19.4252    8.9798 H         3 RES3    0.0000
    364 H173      17.2328   18.4902    8.6744 H         3 RES3    0.0000
    365 H174      16.8320   20.7679   10.5654 H         3 RES3    0.0000
    366 H175      17.9622   21.7381   10.9993 H         3 RES3    0.0000
    367 H176      16.8999   22.1973    9.9654 H         3 RES3    0.0000
    368 H177      19.9604   24.4010    5.0800 H         3 RES3    0.0000
    369 H178      19.1188   23.5439    6.0621 H         3 RES3    0.0000
    370 H179      18.3709   21.4088    5.3389 H         3 RES3    0.0000
    371 H180      20.3843   19.3369    2.4909 H         3 RES3    0.0000
    372 H181      22.4582   21.8184    1.4106 H         3 RES3    0.0000
    373 H182      22.2710   20.2785    1.3999 H         3 RES3    0.0000
    374 H183      23.8008   18.1466    1.6570 H         3 RES3    0.0000
    375 H184      24.1194   17.1792    2.8284 H         3 RES3    0.0000
    376 H185      21.6654   17.3074    1.5070 H         3 RES3    0.0000
    377 H186      22.1954   15.1864    0.7053 H         3 RES3    0.0000
    378 H187      23.2561   16.2265    0.2571 H         3 RES3    0.0000
    379 H188      23.5593   15.2723    1.4410 H         3 RES3    0.0000
    380 H189      21.3951   16.8096    3.7658 H         3 RES3    0.0000
    381 H190      22.2355   15.5286    3.5355 H         3 RES3    0.0000
    382 H191      19.9855   14.9705    3.5712 H         3 RES3    0.0000
    383 H192      19.7329   15.9528    2.3981 H         3 RES3    0.0000
    384 H193      20.5736   14.6702    2.1677 H         3 RES3    0.0000
    385 H194      25.7836   18.4597    5.8675 H         3 RES3    0.0000
    386 H195      24.8943   17.6207    4.9140 H         3 RES3    0.0000
    387 H196      26.5293   20.5776    5.1068 H         3 RES3    0.0000
    388 H197      26.2903   22.4831    3.7998 H         3 RES3    0.0000
    389 H198      24.4242   22.7276    2.4034 H         3 RES3    0.0000
    390 H199      22.1855   25.0438    5.7211 H         3 RES3    0.0000
    391 H200      24.0775   24.7601    7.0353 H         3 RES3    0.0000
    392 H201      24.2301   22.9559    8.4923 H         3 RES3    0.0000
    393 H202      20.3252   24.7325    2.9052 H         3 RES3    0.0000
    394 H203      21.0800   24.1675    1.6731 H         3 RES3    0.0000
    395 H204      22.2600   25.9286    3.4962 H         3 RES3    0.0000
    396 H205      22.9611   25.4121    2.2124 H         3 RES3    0.0000
    397 H206      22.0677   27.5134    1.7445 H         3 RES3    0.0000
    398 H207      21.3314   26.4704    0.8642 H         3 RES3    0.0000
    399 H208      19.6753   27.7817    1.7624 H         3 RES3    0.0000
    400 H209      19.6050   26.4394    2.5356 H         3 RES3    0.0000
    401 H210      20.9937   28.5825    3.5783 H         3 RES3    0.0000
    402 H211      20.7194   27.2771    4.3694 H         3 RES3    0.0000
    403 H212      19.2701   29.0876    4.9729 H         3 RES3    0.0000
    404 H213      18.7374   29.2423    3.5230 H         3 RES3    0.0000
    405 H214      18.4632   27.9369    4.3140 H         3 RES3    0.0000
    406 H215      26.2429   19.1672    8.1423 H         3 RES3    0.0000
    407 H216      25.2921   19.6364    9.2744 H         3 RES3    0.0000
    408 H217      27.2462   20.6859    9.6440 H         3 RES3    0.0000
    409 H218      26.2795   21.7803    9.1226 H         3 RES3    0.0000
    410 H219      27.3311   21.7480    7.1174 H         3 RES3    0.0000
    411 H220      28.0998   20.4346    7.4102 H         3 RES3    0.0000
    412 H221      28.5868   22.9656    8.6584 H         3 RES3    0.0000
    413 H222      29.3168   21.6503    9.0369 H         3 RES3    0.0000
    414 H223      30.3265   21.5242    6.9567 H         3 RES3    0.0000
    415 H224      29.5036   22.7465    6.4692 H         3 RES3    0.0000
    416 H225      31.6672   23.4499    7.0531 H         3 RES3    0.0000
    417 H226      31.4618   22.8977    8.4887 H         3 RES3    0.0000
    418 H227      30.6389   24.1200    8.0013 H         3 RES3    0.0000
    419 C162      21.1892   24.1504    2.2463 Du        5 SUP5    0.0000
    420 C163      22.0357   25.3393    1.8070 Du        5 SUP5    0.0000
    421 C164      21.6927   26.5314    2.7088 Du        5 SUP5    0.0000
    422 C165      20.5558   27.3516    2.0802 Du        5 SUP5    0.0000
    423 C166      20.1892   28.3858    3.1605 Du        5 SUP5    0.0000
    424 C167      18.6644   28.5376    3.2266 Du        5 SUP5    0.0000
    425 H228      20.3246   24.4615    2.4820 Du        5 SUP5    0.0000
    426 H229      21.1202   23.5477    1.5142 Du        5 SUP5    0.0000
    427 H230      22.9536   25.1249    1.9124 Du        5 SUP5    0.0000
    428 H231      21.8622   25.5510    0.8964 Du        5 SUP5    0.0000
    429 H232      22.4603   27.0845    2.7980 Du        5 SUP5    0.0000
    430 H233      21.4256   26.2220    3.5641 Du        5 SUP5    0.0000
    431 H234      20.8258   27.7342    1.2535 Du        5 SUP5    0.0000
    432 H235      19.7861   26.8091    1.9427 Du        5 SUP5    0.0000
    433 H236      20.4670   29.2251    2.8123 Du        5 SUP5    0.0000
    434 H237      20.6733   28.1959    3.9551 Du        5 SUP5    0.0000
    435 H238      18.5051   29.2210    3.8694 Du        5 SUP5    0.0000
    436 H239      18.1760   28.7303    2.4356 Du        5 SUP5    0.0000
    437 H240      18.3824   27.7011    3.5783 Du        5 SUP5    0.0000
    438 O25       11.7328   12.2385    6.8340 O.3       4 RES4    0.0000
    439 C168      10.7050   11.7492    7.7334 C.3       4 RES4    0.0000
    440 C169       9.3702   12.3401    7.3924 C.3       4 RES4    0.0000
    441 C170       8.3346   11.7608    8.3673 C.3       4 RES4    0.0000
    442 C171       9.4181   13.8576    7.4406 C.3       4 RES4    0.0000
    443 C172       8.1414   14.5904    7.1120 C.3       4 RES4    0.0000
    444 C173      12.8276   11.3946    6.7487 C.ar      4 RES4    0.0000
    445 C174      13.9032   11.5477    7.6327 C.ar      4 RES4    0.0000
    446 C175      14.9404   10.6548    7.5513 C.ar      4 RES4    0.0000
    447 C176      14.9497    9.6256    6.6085 C.ar      4 RES4    0.0000
    448 C177      13.9093    9.5406    5.6996 C.ar      4 RES4    0.0000
    449 C178      12.8423   10.4340    5.7353 C.ar      4 RES4    0.0000
    450 C179      11.7844   10.4569    4.6568 C.3       4 RES4    0.0000
    451 C180      11.9215   11.6871    3.7855 C.ar      4 RES4    0.0000
    452 C181      13.0440   11.8486    2.9409 C.ar      4 RES4    0.0000
    453 O26       13.9351   10.8171    2.8579 O.3       4 RES4    0.0000
    454 C182      13.8673   10.0027    1.6713 C.3       4 RES4    0.0000
    455 C183      14.4238    8.6393    1.9874 C.3       4 RES4    0.0000
    456 C184      15.8170    8.6493    2.5659 C.3       4 RES4    0.0000
    457 C185      16.3145    7.2888    2.9677 C.3       4 RES4    0.0000
    458 C186      17.6317    7.3019    3.6855 C.3       4 RES4    0.0000
    459 C187      18.1255    5.9182    4.0355 C.3       4 RES4    0.0000
    460 C188      13.3122   13.0677    2.2729 C.ar      4 RES4    0.0000
    461 C189      14.6117   13.3300    1.5553 C.3       4 RES4    0.0000
    462 C190      15.7480   13.4187    2.5570 C.ar      4 RES4    0.0000
    463 C191      15.8355   14.5149    3.4291 C.ar      4 RES4    0.0000
    464 O27       14.9429   15.5567    3.3266 O.3       4 RES4    0.0000
    465 C192      15.4266   16.6028    2.4391 C.3       4 RES4    0.0000
    466 C193      14.6836   17.8899    2.6873 C.3       4 RES4    0.0000
    467 C194      13.1756   17.7096    2.5998 C.3       4 RES4    0.0000
    468 C195      12.3654   18.9682    2.8409 C.3       4 RES4    0.0000
    469 C196      15.2118   18.9085    1.6481 C.3       4 RES4    0.0000
    470 C197      16.7793   14.5243    4.4676 C.ar      4 RES4    0.0000
    471 C198      17.7031   13.5002    4.5319 C.ar      4 RES4    0.0000
    472 C199      17.6809   12.4474    3.6373 C.ar      4 RES4    0.0000
    473 C200      16.6959   12.4303    2.6498 C.ar      4 RES4    0.0000
    474 C201      16.7239   15.6162    5.5282 C.3       4 RES4    0.0000
    475 C202      15.4799   15.4417    6.3862 C.ar      4 RES4    0.0000
    476 C203      15.3547   14.3266    7.2486 C.ar      4 RES4    0.0000
    477 O28       16.4383   13.5086    7.4076 O.3       4 RES4    0.0000
    478 C204      17.2473   13.8044    8.5548 C.3       4 RES4    0.0000
    479 C205      18.6227   13.2259    8.3762 C.3       4 RES4    0.0000
    480 C206      18.6960   11.7725    7.9781 C.3       4 RES4    0.0000
    481 C207      20.1023   11.2368    7.8656 C.3       4 RES4    0.0000
    482 C208      14.1398   14.0253    7.8832 C.ar      4 RES4    0.0000
    483 C209      13.9476   12.7098    8.6084 C.3       4 RES4    0.0000
    484 C210      13.0913   14.8988    7.7566 C.ar      4 RES4    0.0000
    485 C211      13.2494   16.0436    6.9871 C.ar      4 RES4    0.0000
    486 C212      14.4120   16.3017    6.2764 C.ar      4 RES4    0.0000
    487 N7        12.1260   16.9809    6.8996 N.pl3     4 RES4    0.0000
    488 O29       12.2400   17.9580    6.1567 O.2       4 RES4    0.0000
    489 O30       11.1542   16.8004    7.6013 O.2       4 RES4    0.0000
    490 C213      12.3557   14.0725    2.3588 C.ar      4 RES4    0.0000
    491 C214      11.2028   13.8809    3.1409 C.ar      4 RES4    0.0000
    492 C215      10.9997   12.7082    3.8569 C.ar      4 RES4    0.0000
    493 N8        10.2079   14.9274    3.1909 N.pl3     4 RES4    0.0000
    494 O31        9.2777   14.8106    3.9605 O.2       4 RES4    0.0000
    495 O32       10.3533   15.9072    2.4534 O.2       4 RES4    0.0000
    496 C216      20.2606    9.8371    7.3567 C.3       4 RES4    0.0000
    497 C217      19.7009    9.5425    6.0425 C.3       4 RES4    0.0000
    498 H241      10.9341   11.9862    8.6244 H         4 RES4    0.0000
    499 H242      10.6545   10.8032    7.6602 H         4 RES4    0.0000
    500 H243       9.1340   12.0709    6.5121 H         4 RES4    0.0000
    501 H244       7.4793   12.1210    8.1727 H         4 RES4    0.0000
    502 H245       8.5802   11.9883    9.2565 H         4 RES4    0.0000
    503 H246       8.3071   10.8148    8.2798 H         4 RES4    0.0000
    504 H247       9.6729   14.1157    8.3191 H         4 RES4    0.0000
    505 H248      10.0770   14.1474    6.8210 H         4 RES4    0.0000
    506 H249       8.2703   15.5306    7.1656 H         4 RES4    0.0000
    507 H250       7.4684   14.3269    7.7299 H         4 RES4    0.0000
    508 H251       7.8728   14.3570    6.2317 H         4 RES4    0.0000
    509 H252      15.6665   10.7398    8.1566 H         4 RES4    0.0000
    510 H253      15.6599    8.9944    6.5871 H         4 RES4    0.0000
    511 H254      13.9245    8.8614    5.0354 H         4 RES4    0.0000
    512 H255      10.9277   10.4625    5.0657 H         4 RES4    0.0000
    513 H256      11.8718    9.6801    4.1158 H         4 RES4    0.0000
    514 H257      14.3730   10.4072    0.9767 H         4 RES4    0.0000
    515 H258      12.9614    9.9164    1.3946 H         4 RES4    0.0000
    516 H259      14.4418    8.1311    1.1856 H         4 RES4    0.0000
    517 H260      13.8499    8.2198    2.6159 H         4 RES4    0.0000
    518 H261      16.4102    8.9909    1.9070 H         4 RES4    0.0000
    519 H262      15.8231    9.2195    3.3248 H         4 RES4    0.0000
    520 H263      16.3877    6.7396    2.1963 H         4 RES4    0.0000
    521 H264      15.6786    6.9120    3.5658 H         4 RES4    0.0000
    522 H265      18.2750    7.6760    3.0962 H         4 RES4    0.0000
    523 H266      17.5678    7.8369    4.4676 H         4 RES4    0.0000
    524 H267      18.9697    5.9520    4.4676 H         4 RES4    0.0000
    525 H268      18.1898    5.3798    3.2551 H         4 RES4    0.0000
    526 H269      17.4808    5.5425    4.6247 H         4 RES4    0.0000
    527 H270      14.5482   14.1474    1.0749 H         4 RES4    0.0000
    528 H271      14.7843   12.6180    0.9482 H         4 RES4    0.0000
    529 H272      16.3549   16.7397    2.5909 H         4 RES4    0.0000
    530 H273      15.2903   16.3361    1.5374 H         4 RES4    0.0000
    531 H274      14.9048   18.1960    3.5587 H         4 RES4    0.0000
    532 H275      12.9691   17.3819    1.7320 H         4 RES4    0.0000
    533 H276      12.9230   17.0644    3.2498 H         4 RES4    0.0000
    534 H277      11.4418   18.7534    2.7695 H         4 RES4    0.0000
    535 H278      12.5882   19.6246    2.1927 H         4 RES4    0.0000
    536 H279      12.5437   19.3071    3.7105 H         4 RES4    0.0000
    537 H280      14.7715   19.7411    1.7713 H         4 RES4    0.0000
    538 H281      16.1471   19.0238    1.7749 H         4 RES4    0.0000
    539 H282      15.0476   18.5885    0.7696 H         4 RES4    0.0000
    540 H283      18.3656   13.5191    5.2140 H         4 RES4    0.0000
    541 H284      18.3282   11.7528    3.6837 H         4 RES4    0.0000
    542 H285      16.6764   11.7137    2.0267 H         4 RES4    0.0000
    543 H286      17.4955   15.5560    6.0800 H         4 RES4    0.0000
    544 H287      16.7041   16.4660    5.1050 H         4 RES4    0.0000
    545 H288      17.3062   14.7456    8.6691 H         4 RES4    0.0000
    546 H289      16.8458   13.4171    9.3244 H         4 RES4    0.0000
    547 H290      19.0888   13.3229    9.1976 H         4 RES4    0.0000
    548 H291      19.0563   13.7371    7.7031 H         4 RES4    0.0000
    549 H292      18.2388   11.2541    8.6298 H         4 RES4    0.0000
    550 H293      18.2676   11.6715    7.1353 H         4 RES4    0.0000
    551 H294      20.5047   11.2984    8.7244 H         4 RES4    0.0000
    552 H295      20.5670   11.8006    7.2567 H         4 RES4    0.0000
    553 H296      14.6747   12.5806    9.2066 H         4 RES4    0.0000
    554 H297      13.1358   12.7399    9.0994 H         4 RES4    0.0000
    555 H298      12.2619   14.7165    8.1834 H         4 RES4    0.0000
    556 H299      14.4692   17.0668    5.7157 H         4 RES4    0.0000
    557 H300      12.4808   14.8861    1.8838 H         4 RES4    0.0000
    558 H301      10.2259   12.6114    4.4015 H         4 RES4    0.0000
    559 H302      21.1902    9.6386    7.3406 H         4 RES4    0.0000
    560 H303      19.8275    9.2665    7.9816 H         4 RES4    0.0000
    561 H304      19.8499    8.6290    5.8318 H         4 RES4    0.0000
    562 H305      20.1307   10.0910    5.3979 H         4 RES4    0.0000
    563 H306      18.7679    9.7207    6.0371 H         4 RES4    0.0000
@<TRIPOS>BOND
     1    1    2 2
     2    2    3 2
     3    4    2 1
     4    5    4 ar
     5    6    5 ar
     6    7    6 ar
     7    8    7 ar
     8    9    4 ar
     9   10    8 1
    10   11   10 1
    11   12   11 ar
    12   13   12 1
    13   14   13 1
    14   15   14 1
    15   16   15 1
    16   17   16 1
    17   18   15 1
    18   19   12 ar
    19   20   19 ar
    20   21   20 ar
    21   22   11 ar
    22   23   19 1
    23   24   23 1
    24   25   24 ar
    25   26   25 1
    26   27   26 1
    27   28   27 1
    28   29   28 1
    29   30   29 1
    30   31   30 1
    31   32   25 ar
    32   33   32 ar
    33   34   33 ar
    34   35   24 ar
    35   36   34 1
    36   37   36 2
    37   38   36 2
    38   39   32 1
    39   40   39 1
    40   41   40 ar
    41   42   41 ar
    42   43   42 ar
    43   44   43 ar
    44   45   40 ar
    45   46   45 1
    46   47   46 1
    47   48   47 1
    48   49   48 1
    49   50   49 1
    50   51   48 1
    51   52    6 1
    52   53   31 1
    53   54    7 1
    54   55   54 1
    55   56   55 1
    56   57   56 1
    57   58   57 1
    58   59   58 1
    59   60   59 1
    60   61    5 1
    61   62    9 1
    62   63   10 1
    63   64   10 1
    64   65   14 1
    65   66   14 1
    66   67   15 1
    67   68   16 1
    68   69   16 1
    69   70   17 1
    70   71   17 1
    71   72   17 1
    72   73   18 1
    73   74   18 1
    74   75   18 1
    75   76   20 1
    76   77   21 1
    77   78   22 1
    78   79   23 1
    79   80   23 1
    80   81   27 1
    81   82   27 1
    82   83   28 1
    83   84   28 1
    84   85   29 1
    85   86   29 1
    86   87   30 1
    87   88   30 1
    88   89   31 1
    89   90   31 1
    90   91   33 1
    91   92   35 1
    92   93   39 1
    93   94   39 1
    94   95   41 1
    95   96   42 1
    96   97   43 1
    97   98   47 1
    98   99   47 1
    99  100   48 1
   100  101   49 1
   101  102   49 1
   102  103   50 1
   103  104   50 1
   104  105   50 1
   105  106   51 1
   106  107   51 1
   107  108   51 1
   108  109   52 1
   109  110   52 1
   110  111   53 1
   111  112   53 1
   112  113   53 1
   113  114   55 1
   114  115   55 1
   115  116   56 1
   116  117   56 1
   117  118   57 1
   118  119   57 1
   119  120   58 1
   120  121   58 1
   121  122   59 1
   122  123   59 1
   123  124   60 1
   124  125   60 1
   125  126   60 1
   126  137  138 1
   127  138  139 ar
   128  139  140 ar
   129  140  141 ar
   130  141  142 ar
   131  142  143 ar
   132  143  138 ar
   133  144  143 1
   134  145  144 1
   135  146  145 ar
   136  147  148 ar
   137  148  149 ar
   138  149  145 ar
   139  150  148 1
   140  151  150 2
   141  152  150 2
   142  153  154 1
   143  154  155 ar
   144  155  156 1
   145  156  157 1
   146  157  158 1
   147  158  159 1
   148  159  209 1
   149  160  158 1
   150  161  160 1
   151  162  155 ar
   152  163  162 1
   153  164  163 1
   154  165  164 ar
   155  166  165 ar
   156  167  139 1
   157  168  166 ar
   158  169  168 ar
   159  170  164 ar
   160  171  169 1
   161  172  171 2
   162  173  171 2
   163  174  162 ar
   164  175  174 ar
   165  176  154 ar
   166  177  137 1
   167  178  177 1
   168  179  178 1
   169  180  179 1
   170  181  178 1
   171  182  146 ar
   172  183  146 1
   173  184  183 1
   174  185  184 1
   175  186  185 1
   176  187  186 1
   177  188  187 1
   178  189  188 1
   179  190  165 1
   180  191  190 1
   181  192  191 1
   182  193  192 1
   183  194  193 1
   184  195  194 1
   185  196  195 1
   186  197  140 1
   187  198  141 1
   188  199  142 1
   189  200  144 1
   190  201  144 1
   191  202  147 1
   192  203  149 1
   193  204  153 1
   194  205  153 1
   195  206  157 1
   196  207  157 1
   197  208  158 1
   198  210  159 1
   199  211  159 1
   200  212  160 1
   201  213  160 1
   202  214  161 1
   203  215  161 1
   204  216  161 1
   205  217  163 1
   206  218  163 1
   207  219  167 1
   208  220  167 1
   209  221  168 1
   210  222  170 1
   211  223  174 1
   212  224  175 1
   213  225  176 1
   214  226  177 1
   215  227  177 1
   216  228  178 1
   217  229  179 1
   218  230  179 1
   219  231  180 1
   220  232  180 1
   221  233  180 1
   222  234  181 1
   223  235  181 1
   224  236  181 1
   225  237  184 1
   226  238  184 1
   227  239  185 1
   228  240  185 1
   229  241  187 1
   230  242  187 1
   231  243  188 1
   232  244  188 1
   233  245  189 1
   234  246  189 1
   235  247  189 1
   236  248  192 1
   237  249  192 1
   238  250  193 1
   239  251  193 1
   240  252  194 1
   241  253  194 1
   242  254  195 1
   243  255  195 1
   244  256  196 1
   245  257  196 1
   246  258  196 1
   247  259  186 1
   248  260  186 1
   249  261  191 1
   250  262  191 1
   251  293  294 2
   252  294  295 2
   253  296  294 1
   254  297  296 ar
   255  298  297 ar
   256  299  298 ar
   257  300  299 ar
   258  301  296 ar
   259  302  300 1
   260  303  302 1
   261  304  303 ar
   262  305  304 1
   263  306  305 1
   264  307  306 1
   265  308  307 1
   266  309  308 1
   267  310  307 1
   268  311  304 ar
   269  312  311 1
   270  313  312 1
   271  314  313 ar
   272  315  314 ar
   273  316  315 1
   274  317  316 2
   275  318  316 2
   276  319  315 ar
   277  320  319 ar
   278  321  313 ar
   279  322  320 1
   280  323  322 1
   281  324  323 ar
   282  325  324 1
   283  326  325 1
   284  327  326 1
   285  328  327 1
   286  329  327 1
   287  330  329 1
   288  331  324 ar
   289  332  298 1
   290  333  331 ar
   291  334  333 ar
   292  335  323 ar
   293  336  311 ar
   294  337  336 ar
   295  338  303 ar
   296  339  321 1
   297  340  339 1
   298  341  340 1
   299  342  341 1
   300  343  342 1
   301  344  343 1
   302  345  344 1
   303  346  299 1
   304  347  346 1
   305  348  347 1
   306  349  348 1
   307  350  349 1
   308  351  350 1
   309  352  351 1
   310  353  297 1
   311  354  301 1
   312  355  302 1
   313  356  302 1
   314  357  306 1
   315  358  306 1
   316  359  307 1
   317  360  308 1
   318  361  308 1
   319  362  309 1
   320  363  309 1
   321  364  309 1
   322  365  310 1
   323  366  310 1
   324  367  310 1
   325  368  312 1
   326  369  312 1
   327  370  314 1
   328  371  319 1
   329  372  322 1
   330  373  322 1
   331  374  326 1
   332  375  326 1
   333  376  327 1
   334  377  328 1
   335  378  328 1
   336  379  328 1
   337  380  329 1
   338  381  329 1
   339  382  330 1
   340  383  330 1
   341  384  330 1
   342  385  332 1
   343  386  332 1
   344  387  333 1
   345  388  334 1
   346  389  335 1
   347  390  336 1
   348  391  337 1
   349  392  338 1
   350  393  340 1
   351  394  340 1
   352  395  341 1
   353  396  341 1
   354  397  342 1
   355  398  342 1
   356  399  343 1
   357  400  343 1
   358  401  344 1
   359  402  344 1
   360  403  345 1
   361  404  345 1
   362  405  345 1
   363  406  347 1
   364  407  347 1
   365  408  348 1
   366  409  348 1
   367  410  349 1
   368  411  349 1
   369  412  350 1
   370  413  350 1
   371  414  351 1
   372  415  351 1
   373  416  352 1
   374  417  352 1
   375  418  352 1
   376  438  439 1
   377  439  440 1
   378  440  441 1
   379  441  501 1
   380  442  440 1
   381  443  442 1
   382  444  438 1
   383  445  444 ar
   384  446  445 ar
   385  447  446 ar
   386  448  447 ar
   387  449  444 ar
   388  450  449 1
   389  451  450 1
   390  452  451 ar
   391  453  452 1
   392  454  453 1
   393  455  454 1
   394  456  455 1
   395  457  456 1
   396  458  457 1
   397  459  458 1
   398  460  452 ar
   399  461  460 1
   400  462  461 1
   401  463  462 ar
   402  464  463 1
   403  465  464 1
   404  466  465 1
   405  467  466 1
   406  468  467 1
   407  469  466 1
   408  470  463 ar
   409  471  470 ar
   410  472  471 ar
   411  473  462 ar
   412  474  470 1
   413  475  474 1
   414  476  475 ar
   415  477  476 1
   416  478  477 1
   417  479  478 1
   418  480  479 1
   419  481  480 1
   420  482  476 ar
   421  483  445 1
   422  484  482 ar
   423  485  484 ar
   424  486  475 ar
   425  487  485 1
   426  488  487 2
   427  489  487 2
   428  490  460 ar
   429  491  490 ar
   430  492  451 ar
   431  493  491 1
   432  494  493 2
   433  495  493 2
   434  496  481 1
   435  497  496 1
   436  498  439 1
   437  499  439 1
   438  500  440 1
   439  502  441 1
   440  503  441 1
   441  504  442 1
   442  505  442 1
   443  506  443 1
   444  507  443 1
   445  508  443 1
   446  509  446 1
   447  510  447 1
   448  511  448 1
   449  512  450 1
   450  513  450 1
   451  514  454 1
   452  515  454 1
   453  516  455 1
   454  517  455 1
   455  518  456 1
   456  519  456 1
   457  520  457 1
   458  521  457 1
   459  522  458 1
   460  523  458 1
   461  524  459 1
   462  525  459 1
   463  526  459 1
   464  527  461 1
   465  528  461 1
   466  529  465 1
   467  530  465 1
   468  531  466 1
   469  532  467 1
   470  533  467 1
   471  534  468 1
   472  535  468 1
   473  536  468 1
   474  537  469 1
   475  538  469 1
   476  539  469 1
   477  540  471 1
   478  541  472 1
   479  542  473 1
   480  543  474 1
   481  544  474 1
   482  545  478 1
   483  546  478 1
   484  547  479 1
   485  548  479 1
   486  549  480 1
   487  550  480 1
   488  551  481 1
   489  552  481 1
   490  553  483 1
   491  554  483 1
   492  555  484 1
   493  556  486 1
   494  557  490 1
   495  558  492 1
   496  559  496 1
   497  560  496 1
   498  561  497 1
   499  562  497 1
   500  563  497 1
   501    8    9 ar
   502   21   22 ar
   503   34   35 ar
   504   44   45 ar
   505   44   52 1
   506  147  182 ar
   507  153  182 1
   508  166  167 1
   509  169  170 ar
   510  175  176 ar
   511  300  301 ar
   512  320  321 ar
   513  331  332 1
   514  334  335 ar
   515  337  338 ar
   516  448  449 ar
   517  472  473 ar
   518  482  483 1
   519  485  486 ar
   520  491  492 ar
@<TRIPOS>SUBSTRUCTURE
     1 RES1 1
     2 RES2 137
     3 RES3 293
     4 RES4 438
     5 SUP5 127

@<TRIPOS>CRYSIN
  16.2598   16.5394   18.0901  95.4880  96.3310  99.9420   1 1

