# MOL2 file generated by ConQuest
# Please check atom types

@<TRIPOS>MOLECULE
LOCDIR
    47    48     1
SMALL
NO_CHARGES
****
Generated from CSD

@<TRIPOS>ATOM
      1 N1         5.7177    2.0069    1.2835 N.2       1 RES1    0.0000
      2 O1         4.6510    1.6306    0.4580 O.3       1 RES1    0.0000
      3 O2         7.9630    1.6584    2.4852 O.3       1 RES1    0.0000
      4 H1         7.3528    1.4741    1.9680 H         1 RES1    0.0000
      5 C1         4.9389    0.3674   -0.1511 C.3       1 RES1    0.0000
      6 H2         5.1060   -0.3055    0.5274 H         1 RES1    0.0000
      7 H3         5.7222    0.4353   -0.7185 H         1 RES1    0.0000
      8 C2         3.7298   -0.0000   -0.9679 C.3       1 RES1    0.0000
      9 H4         3.9573   -0.7485   -1.5403 H         1 RES1    0.0000
     10 H5         3.5022    0.7485   -1.5403 H         1 RES1    0.0000
     11 C3         4.2489    3.9108    1.6469 C.3       1 RES1    0.0000
     12 H6         3.7954    3.5795    0.8687 H         1 RES1    0.0000
     13 H7         4.4675    4.8372    1.5196 H         1 RES1    0.0000
     14 H8         3.6783    3.8188    2.4136 H         1 RES1    0.0000
     15 C4         5.5126    3.1225    1.8651 C.2       1 RES1    0.0000
     16 C5         6.5659    3.6144    2.7558 C.ar      1 RES1    0.0000
     17 C6         7.7206    2.8652    3.0608 C.ar      1 RES1    0.0000
     18 C7         8.6418    3.3351    3.9608 C.ar      1 RES1    0.0000
     19 H9         9.3885    2.8183    4.1643 H         1 RES1    0.0000
     20 C8         8.4762    4.5495    4.5635 C.ar      1 RES1    0.0000
     21 H10        9.1058    4.8576    5.1740 H         1 RES1    0.0000
     22 C9         7.3730    5.3107    4.2617 C.ar      1 RES1    0.0000
     23 H11        7.2603    6.1458    4.6558 H         1 RES1    0.0000
     24 C10        6.4487    4.8405    3.3852 C.ar      1 RES1    0.0000
     25 H12        5.7035    5.3668    3.2000 H         1 RES1    0.0000
     26 N1A        1.7418   -2.0069    1.2835 N.2       1 RES1    0.0000
     27 O1A        2.8085   -1.6306    0.4580 O.3       1 RES1    0.0000
     28 O2A       -0.5035   -1.6584    2.4852 O.3       1 RES1    0.0000
     29 H1A        0.1067   -1.4741    1.9680 H         1 RES1    0.0000
     30 C1A        2.5206   -0.3674   -0.1511 C.3       1 RES1    0.0000
     31 H2A        2.3535    0.3055    0.5274 H         1 RES1    0.0000
     32 H3A        1.7373   -0.4353   -0.7185 H         1 RES1    0.0000
     33 C3A        3.2106   -3.9108    1.6469 C.3       1 RES1    0.0000
     34 H6A        3.6641   -3.5795    0.8687 H         1 RES1    0.0000
     35 H7A        2.9920   -4.8372    1.5196 H         1 RES1    0.0000
     36 H8A        3.7812   -3.8188    2.4136 H         1 RES1    0.0000
     37 C4A        1.9469   -3.1225    1.8651 C.2       1 RES1    0.0000
     38 C5A        0.8936   -3.6144    2.7558 C.ar      1 RES1    0.0000
     39 C6A       -0.2611   -2.8652    3.0608 C.ar      1 RES1    0.0000
     40 C7A       -1.1823   -3.3351    3.9608 C.ar      1 RES1    0.0000
     41 H9A       -1.9290   -2.8183    4.1643 H         1 RES1    0.0000
     42 C8A       -1.0167   -4.5495    4.5635 C.ar      1 RES1    0.0000
     43 H10A      -1.6463   -4.8576    5.1740 H         1 RES1    0.0000
     44 C9A        0.0865   -5.3107    4.2617 C.ar      1 RES1    0.0000
     45 H11A       0.1992   -6.1458    4.6558 H         1 RES1    0.0000
     46 C10A       1.0108   -4.8405    3.3852 C.ar      1 RES1    0.0000
     47 H12A       1.7560   -5.3668    3.2000 H         1 RES1    0.0000
@<TRIPOS>BOND
     1    1    2 1
     2    2    5 1
     3    3    4 1
     4    5    6 1
     5    7    5 1
     6    8    5 1
     7    9    8 1
     8   10    8 1
     9   11   12 1
    10   13   11 1
    11   14   11 1
    12   15    1 2
    13   16   15 1
    14   17    3 1
    15   18   17 ar
    16   19   18 1
    17   20   18 ar
    18   21   20 1
    19   22   20 ar
    20   23   22 1
    21   24   16 ar
    22   25   24 1
    23   26   27 1
    24   27   30 1
    25   28   29 1
    26   30    8 1
    27   31   30 1
    28   32   30 1
    29   33   34 1
    30   35   33 1
    31   36   33 1
    32   37   26 2
    33   38   37 1
    34   39   28 1
    35   40   39 ar
    36   41   40 1
    37   42   40 ar
    38   43   42 1
    39   44   42 ar
    40   45   44 1
    41   46   38 ar
    42   47   46 1
    43   11   15 1
    44   16   17 ar
    45   22   24 ar
    46   33   37 1
    47   38   39 ar
    48   44   46 ar
@<TRIPOS>SUBSTRUCTURE
     1 RES1 1

@<TRIPOS>CRYSIN
   7.4595   25.4590    4.5938  90.0000  90.0000  90.0000  32 1

