# MOL2 file generated by ConQuest
# Please check atom types

@<TRIPOS>MOLECULE
LOCVEF
    29    30     1
SMALL
NO_CHARGES
****
Generated from CSD

@<TRIPOS>ATOM
      1 C1         6.6866   -2.0410    0.3015 C.2       1 RES1    0.0000
      2 C2         7.0604   -0.6624    0.6553 C.2       1 RES1    0.0000
      3 C3         7.3493    1.0971    1.8456 C.2       1 RES1    0.0000
      4 H1         7.3681    1.6926    2.5849 H         1 RES1    0.0000
      5 C4         7.5406    0.3186   -0.1795 C.2       1 RES1    0.0000
      6 C5         8.1812    2.7592    0.1401 C.3       1 RES1    0.0000
      7 H2         8.1010    3.4081    0.8837 H         1 RES1    0.0000
      8 H3         7.5896    3.0655   -0.5918 H         1 RES1    0.0000
      9 C6         9.6074    2.7558   -0.3532 C.ar      1 RES1    0.0000
     10 C7         9.9935    3.6882   -1.3073 C.ar      1 RES1    0.0000
     11 H4         9.3510    4.2915   -1.6613 H         1 RES1    0.0000
     12 C8        11.3013    3.7469   -1.7457 C.ar      1 RES1    0.0000
     13 H5        11.5547    4.3806   -2.4070 H         1 RES1    0.0000
     14 C9        12.2329    2.8874   -1.2223 C.ar      1 RES1    0.0000
     15 H6        13.1342    2.9250   -1.5211 H         1 RES1    0.0000
     16 C10       11.8644    1.9754   -0.2714 C.ar      1 RES1    0.0000
     17 H7        12.5124    1.3840    0.0924 H         1 RES1    0.0000
     18 C11       10.5473    1.9102    0.1631 C.ar      1 RES1    0.0000
     19 H8        10.2988    1.2747    0.8244 H         1 RES1    0.0000
     20 C12        7.8371    0.3157   -1.5600 C.1       1 RES1    0.0000
     21 N1         6.7394   -2.3293   -0.9552 N.2       1 RES1    0.0000
     22 N2         6.9505   -0.1694    1.9308 N.2       1 RES1    0.0000
     23 N3         7.7208    1.4440    0.6043 N.3       1 RES1    0.0000
     24 N4         6.2675   -2.8714    1.3036 N.3       1 RES1    0.0000
     25 N5         8.1032    0.3421   -2.6750 N.1       1 RES1    0.0000
     26 O1         6.3503   -3.6851   -1.1543 O.3       1 RES1    0.0000
     27 H9         6.5492   -2.7000    2.1779 H         1 RES1    0.0000
     28 H10        6.1553   -3.8021    1.0901 H         1 RES1    0.0000
     29 H11        6.5426   -3.7837   -2.0752 H         1 RES1    0.0000
@<TRIPOS>BOND
     1    1    2 1
     2    2    5 2
     3    3    4 1
     4    5   20 1
     5    6    7 1
     6    8    6 1
     7    9    6 1
     8   10    9 ar
     9   11   10 1
    10   12   10 ar
    11   13   12 1
    12   14   12 ar
    13   15   14 1
    14   16   14 ar
    15   17   16 1
    16   18    9 ar
    17   19   18 1
    18   20   25 3
    19   21    1 2
    20   22    2 1
    21   23    3 1
    22   24    1 1
    23   26   21 1
    24   27   24 1
    25   28   24 1
    26   29   26 1
    27    3   22 2
    28    5   23 1
    29    6   23 1
    30   16   18 ar
@<TRIPOS>SUBSTRUCTURE
     1 RES1 1

@<TRIPOS>CRYSIN
  11.2091    9.1837   11.4037  90.0000  90.8620  90.0000  14 1

