# MOL2 file generated by ConQuest
# Please check atom types

@<TRIPOS>MOLECULE
LOCVAB
    19    19     1
SMALL
NO_CHARGES
****
Generated from CSD

@<TRIPOS>ATOM
      1 C1         0.3783    0.2697    4.3339 C.2       1 RES1    0.0000
      2 C2         1.2310    0.9599    6.2172 C.2       1 RES1    0.0000
      3 H1         1.6225    1.5232    6.8752 H         1 RES1    0.0000
      4 C3         0.3761   -0.7606    5.2484 C.2       1 RES1    0.0000
      5 C4        -0.0658    0.3704    2.9899 C.1       1 RES1    0.0000
      6 C5         1.1590    2.6769    4.3719 C.3       1 RES1    0.0000
      7 H2         0.2998    3.1352    4.2583 H         1 RES1    0.0000
      8 H3         1.5884    2.5686    3.4983 H         1 RES1    0.0000
      9 H4         1.7379    3.2088    4.9575 H         1 RES1    0.0000
     10 C6        -0.0983   -2.1388    5.0647 C.2       1 RES1    0.0000
     11 N1         0.9344    1.3596    4.9730 N.3       1 RES1    0.0000
     12 N2         0.9156   -0.3149    6.4266 N.2       1 RES1    0.0000
     13 N3        -0.4063    0.5159    1.9020 N.1       1 RES1    0.0000
     14 N4        -0.0269   -2.9921    6.1259 N.3       1 RES1    0.0000
     15 N5        -0.5915   -2.4187    3.9003 N.2       1 RES1    0.0000
     16 O1        -1.0065   -3.7795    3.8736 O.3       1 RES1    0.0000
     17 H5        -1.2468   -3.9095    2.9624 H         1 RES1    0.0000
     18 H6         0.5249   -2.8047    6.7726 H         1 RES1    0.0000
     19 H7        -0.1681   -3.8529    5.9352 H         1 RES1    0.0000
@<TRIPOS>BOND
     1    1    4 2
     2    2    3 1
     3    4   10 1
     4    5    1 1
     5    6    7 1
     6    8    6 1
     7    9    6 1
     8   10   14 1
     9   11    1 1
    10   12    2 2
    11   13    5 3
    12   14   18 1
    13   15   10 2
    14   16   15 1
    15   17   16 1
    16   19   14 1
    17    2   11 1
    18    4   12 1
    19    6   11 1
@<TRIPOS>SUBSTRUCTURE
     1 RES1 1

@<TRIPOS>CRYSIN
   7.3667    9.4433   10.7573  90.0000 103.3250  90.0000 231 1

