# MOL2 file generated by ConQuest
# Please check atom types

@<TRIPOS>MOLECULE
LOCVEE
    19    20     1
SMALL
NO_CHARGES
****
Generated from CSD

@<TRIPOS>ATOM
      1 N1         5.4950    7.3320    7.0069 N.pl3     1 RES1    0.0000
      2 O1         6.3196    6.9802    8.1344 O.3       1 RES1    0.0000
      3 N2         7.4090    6.2481    7.6988 N.2       1 RES1    0.0000
      4 C1         7.2642    6.1630    6.3830 C.2       1 RES1    0.0000
      5 C2         8.0686    5.5224    5.3811 C.2       1 RES1    0.0000
      6 C3         7.6692    5.5686    4.0835 C.2       1 RES1    0.0000
      7 C4         6.4733    6.2324    3.6807 C.2       1 RES1    0.0000
      8 C5         5.6532    6.8762    4.5675 C.2       1 RES1    0.0000
      9 C6         6.0919    6.8205    5.9239 C.2       1 RES1    0.0000
     10 O2         4.4640    7.9685    7.2240 O.2       1 RES1    0.0000
     11 N3         9.2792    4.8103    5.7565 N.pl3     1 RES1    0.0000
     12 O3         9.4755    4.6097    6.9507 O.2       1 RES1    0.0000
     13 O4        10.0286    4.4322    4.8605 O.2       1 RES1    0.0000
     14 C7         4.3866    7.5841    4.1934 C.3       1 RES1    0.0000
     15 H1         8.2044    5.1443    3.4217 H         1 RES1    0.0000
     16 H2         6.2355    6.2271    2.7599 H         1 RES1    0.0000
     17 H3         4.2419    7.5064    3.2268 H         1 RES1    0.0000
     18 H4         4.4561    8.5304    4.4380 H         1 RES1    0.0000
     19 H5         3.6327    7.1787    4.6695 H         1 RES1    0.0000
@<TRIPOS>BOND
     1    1    2 1
     2    2    3 1
     3    3    4 2
     4    4    5 1
     5    5    6 2
     6    6    7 1
     7    7    8 2
     8    8    9 1
     9    9    1 2
    10   10    1 1
    11   11    5 1
    12   12   11 2
    13   13   11 2
    14   14    8 1
    15   15    6 1
    16   16    7 1
    17   17   14 1
    18   18   14 1
    19   19   14 1
    20    4    9 1
@<TRIPOS>SUBSTRUCTURE
     1 RES1 1

@<TRIPOS>CRYSIN
  11.2189   10.5028   13.0799  90.0000  90.0000  90.0000  61 1

