# MOL2 file generated by ConQuest
# Please check atom types

@<TRIPOS>MOLECULE
LODGAN
    80    75     3
SMALL
NO_CHARGES
****
Generated from CSD

@<TRIPOS>ATOM
      1 O1         6.0538    6.2611    4.7869 O.2       1 RES1    0.0000
      2 O2         3.1095    5.0247    1.6214 O.3       1 RES1    0.0000
      3 O3         6.9988    7.5865    0.5437 O.2       1 RES1    0.0000
      4 O4         2.1796    7.1023   -4.8014 O.2       1 RES1    0.0000
      5 O5         4.0219    6.1693   -5.4601 O.2       1 RES1    0.0000
      6 O6         3.1592    4.4069    5.1958 O.2       2 RES2    0.0000
      7 O7         6.2954    5.4458    8.2403 O.3       2 RES2    0.0000
      8 O8         2.4443    2.9059    9.4371 O.2       2 RES2    0.0000
      9 O9         7.9484    3.3997   14.3403 O.2       2 RES2    0.0000
     10 O10        6.0266    3.8859   15.2293 O.2       2 RES2    0.0000
     11 N1         4.5996    5.7235    3.1428 N.am      1 RES1    0.0000
     12 N2         6.5497    6.8730    2.6490 N.am      1 RES1    0.0000
     13 N3         3.2796    6.6106   -4.5814 N.pl3     1 RES1    0.0000
     14 N4         4.7338    4.8378    6.7725 N.am      2 RES2    0.0000
     15 N5         2.7896    3.6411    7.3202 N.am      2 RES2    0.0000
     16 N6         6.7651    3.6462   14.2506 N.pl3     2 RES2    0.0000
     17 C1         5.7587    6.2928    3.5947 C.2       1 RES1    0.0000
     18 C2         4.2419    5.6964    1.8027 C.2       1 RES1    0.0000
     19 C3         5.0231    6.3306    0.8741 C.2       1 RES1    0.0000
     20 C4         6.2082    6.9740    1.2934 C.2       1 RES1    0.0000
     21 C5         4.6020    6.3934   -0.5588 C.ar      1 RES1    0.0000
     22 C6         3.3536    6.9120   -0.8815 C.ar      1 RES1    0.0000
     23 C7         2.9222    7.0037   -2.1948 C.ar      1 RES1    0.0000
     24 C8         3.7590    6.5431   -3.1703 C.ar      1 RES1    0.0000
     25 C9         4.9977    6.0260   -2.9184 C.ar      1 RES1    0.0000
     26 C10        5.3953    5.9550   -1.5745 C.ar      1 RES1    0.0000
     27 C11        7.8574    7.4440    3.0985 C.3       1 RES1    0.0000
     28 C12        8.9459    6.4243    3.0880 C.3       1 RES1    0.0000
     29 C13        3.5447    4.3105    6.3608 C.2       2 RES2    0.0000
     30 C14        5.1759    4.7675    8.0598 C.2       2 RES2    0.0000
     31 C15        4.4887    4.0746    9.0178 C.2       2 RES2    0.0000
     32 C16        3.1973    3.5140    8.6619 C.2       2 RES2    0.0000
     33 C17        5.0298    3.9124   10.3895 C.ar      2 RES2    0.0000
     34 C18        6.3104    3.4747   10.5686 C.ar      2 RES2    0.0000
     35 C19        6.9007    3.3613   11.8241 C.ar      2 RES2    0.0000
     36 C20        6.1288    3.7068   12.9069 C.ar      2 RES2    0.0000
     37 C21        4.8124    4.1259   12.8041 C.ar      2 RES2    0.0000
     38 C22        4.2646    4.2317   11.5370 C.ar      2 RES2    0.0000
     39 C23        1.5129    3.0597    6.9318 C.3       2 RES2    0.0000
     40 C24        0.3348    3.9993    7.1819 C.3       2 RES2    0.0000
     41 C25       -1.0043    3.3275    6.8926 C.3       2 RES2    0.0000
     42 C26       -1.3905    2.2929    7.9653 C.3       2 RES2    0.0000
     43 C27       10.1536    7.0930    3.4969 Du        3 SUP3    0.0000
     44 C28       10.6066    8.4593    2.8448 Du        3 SUP3    0.0000
     45 C29        9.3739    5.7353    1.8409 C.3       1 RES1    0.0000
     46 C30       10.3542    4.4731    1.9661 C.3       1 RES1    0.0000
     47 H1         2.7923    7.2103   -0.1749 H         1 RES1    0.0000
     48 H2         2.0678    7.3501   -2.4254 H         1 RES1    0.0000
     49 H3         5.5519    5.7213   -3.6281 H         1 RES1    0.0000
     50 H4         6.2463    5.5901   -1.3638 H         1 RES1    0.0000
     51 H5         8.1032    8.1307    2.4890 H         1 RES1    0.0000
     52 H6         7.7563    7.8130    3.9681 H         1 RES1    0.0000
     53 H7         8.7358    5.7602    3.7335 H         1 RES1    0.0000
     54 H8         6.8148    3.2343    9.8009 H         2 RES2    0.0000
     55 H9         7.7911    3.0510   11.9380 H         2 RES2    0.0000
     56 H10        4.3100    4.3341   13.5820 H         2 RES2    0.0000
     57 H11        3.3618    4.5081   11.4290 H         2 RES2    0.0000
     58 H12        1.3721    2.2735    7.4471 H         2 RES2    0.0000
     59 H13        1.5351    2.8335    6.0097 H         2 RES2    0.0000
     60 H14        0.3499    4.2704    8.0932 H         2 RES2    0.0000
     61 H15        0.4440    4.7605    6.6240 H         2 RES2    0.0000
     62 H16       -1.6744    4.0001    6.8626 H         2 RES2    0.0000
     63 H17       -0.9515    2.8948    6.0475 H         2 RES2    0.0000
     64 H18       -2.2301    1.9061    7.7453 H         2 RES2    0.0000
     65 H19       -1.4504    2.7185    8.8128 H         2 RES2    0.0000
     66 H20       -0.7276    1.6132    7.9977 H         2 RES2    0.0000
     67 H21       10.0672    7.2810    4.4253 Du        3 SUP3    0.0000
     68 H22       10.8542    6.4639    3.3677 Du        3 SUP3    0.0000
     69 H23       11.4253    8.7280    3.2464 Du        3 SUP3    0.0000
     70 H24        9.9550    9.1381    2.9721 Du        3 SUP3    0.0000
     71 H25       10.7401    8.3202    1.9144 Du        3 SUP3    0.0000
     72 H26        9.8098    6.3885    1.3061 H         1 RES1    0.0000
     73 H27        8.5946    5.4277    1.3936 H         1 RES1    0.0000
     74 H28       10.5740    4.1189    1.1133 H         1 RES1    0.0000
     75 H29       11.1477    4.7628    2.4035 H         1 RES1    0.0000
     76 H30        9.9326    3.8020    2.4890 H         1 RES1    0.0000
     77 H31        4.1195    5.2794    3.8329 H         1 RES1    0.0000
     78 H32        3.1614    4.5733    0.8469 H         1 RES1    0.0000
     79 H33        5.1840    5.3275    6.0932 H         2 RES2    0.0000
     80 H34        6.1789    5.8044    9.1309 H         2 RES2    0.0000
@<TRIPOS>BOND
     1    1   17 2
     2    2   18 1
     3    3   20 2
     4    4   13 2
     5    5   13 2
     6    6   29 2
     7    7   30 1
     8    8   32 2
     9    9   16 2
    10   10   16 2
    11   11   17 1
    12   12   17 1
    13   13   24 1
    14   14   29 1
    15   15   29 1
    16   16   36 1
    17   18   11 1
    18   19   18 2
    19   20   12 1
    20   21   19 1
    21   22   21 ar
    22   23   22 ar
    23   24   23 ar
    24   25   24 ar
    25   26   21 ar
    26   27   12 1
    27   28   27 1
    28   30   14 1
    29   31   30 2
    30   32   15 1
    31   33   31 1
    32   34   33 ar
    33   35   34 ar
    34   36   35 ar
    35   37   36 ar
    36   38   33 ar
    37   39   15 1
    38   40   39 1
    39   41   40 1
    40   42   41 1
    41   45   28 1
    42   46   45 1
    43   47   22 1
    44   48   23 1
    45   49   25 1
    46   50   26 1
    47   51   27 1
    48   52   27 1
    49   53   28 1
    50   54   34 1
    51   55   35 1
    52   56   37 1
    53   57   38 1
    54   58   39 1
    55   59   39 1
    56   60   40 1
    57   61   40 1
    58   62   41 1
    59   63   41 1
    60   64   42 1
    61   65   42 1
    62   66   42 1
    63   72   45 1
    64   73   45 1
    65   74   46 1
    66   75   46 1
    67   76   46 1
    68   77   11 1
    69   78    2 1
    70   79   14 1
    71   80    7 1
    72   19   20 1
    73   25   26 ar
    74   31   32 1
    75   37   38 ar
@<TRIPOS>SUBSTRUCTURE
     1 RES1 1
     2 RES2 6
     3 SUP3 43

@<TRIPOS>CRYSIN
  19.5654    7.7672   19.9017  90.0000  92.6734  90.0000  14 2

