# MOL2 file generated by ConQuest
# Please check atom types

@<TRIPOS>MOLECULE
LOGFIW
    32    33     1
SMALL
NO_CHARGES
****
Generated from CSD

@<TRIPOS>ATOM
      1 O1         3.1241   -0.4290    5.4723 O.3       1 RES1    0.0000
      2 H1         3.1112   -1.2170    5.8576 H         1 RES1    0.0000
      3 N1         1.8871   -0.3783    4.7837 N.2       1 RES1    0.0000
      4 C1         1.7877    0.6607    4.0672 C.2       1 RES1    0.0000
      5 C2         2.8231    1.7159    3.8342 C.3       1 RES1    0.0000
      6 H2         3.0018    2.2190    4.6850 H         1 RES1    0.0000
      7 H3         3.6275    1.2668    3.5090 H         1 RES1    0.0000
      8 C3         2.1917    2.6325    2.7808 C.3       1 RES1    0.0000
      9 H4         2.8812    2.9399    2.1242 H         1 RES1    0.0000
     10 C4         1.5563    3.8463    3.4366 C.3       1 RES1    0.0000
     11 H5         2.2738    4.4061    3.8251 H         1 RES1    0.0000
     12 H6         1.0182    3.5762    4.1887 H         1 RES1    0.0000
     13 C5         0.6676    4.6232    2.4964 C.3       1 RES1    0.0000
     14 H7         1.1954    4.9534    1.7109 H         1 RES1    0.0000
     15 H8         0.2986    5.3718    2.9178 H         1 RES1    0.0000
     16 C6        -0.4353    3.7280    1.9692 C.3       1 RES1    0.0000
     17 H9        -0.9902    3.4546    2.7697 H         1 RES1    0.0000
     18 H10       -1.0389    4.2167    1.3760 H         1 RES1    0.0000
     19 C7         0.1469    2.5352    1.2457 C.3       1 RES1    0.0000
     20 H11       -0.5802    1.9347    0.9505 H         1 RES1    0.0000
     21 H12        0.5972    2.8601    0.4211 H         1 RES1    0.0000
     22 C8         1.1766    1.7294    2.0470 C.3       1 RES1    0.0000
     23 C9         0.5726    0.9154    3.2163 C.3       1 RES1    0.0000
     24 H13       -0.0401    1.5296    3.7279 H         1 RES1    0.0000
     25 C10        1.9125    0.7845    1.0968 C.3       1 RES1    0.0000
     26 H14        1.2392    0.2584    0.5526 H         1 RES1    0.0000
     27 H15        2.4491    1.3190    0.4642 H         1 RES1    0.0000
     28 H16        2.5330    0.1731    1.5937 H         1 RES1    0.0000
     29 C11       -0.2397   -0.3227    2.8758 C.3       1 RES1    0.0000
     30 H17       -0.6989   -0.7055    3.7135 H         1 RES1    0.0000
     31 H18       -0.9555   -0.1410    2.1817 H         1 RES1    0.0000
     32 H19        0.3366   -0.9994    2.4668 H         1 RES1    0.0000
@<TRIPOS>BOND
     1    1    2 1
     2    3    1 1
     3    4    3 2
     4    5    4 1
     5    6    5 1
     6    7    5 1
     7    8    5 1
     8    9    8 1
     9   10    8 1
    10   11   10 1
    11   12   10 1
    12   13   10 1
    13   14   13 1
    14   15   13 1
    15   16   13 1
    16   17   16 1
    17   18   16 1
    18   19   16 1
    19   20   19 1
    20   21   19 1
    21   22    8 1
    22   23    4 1
    23   24   23 1
    24   25   22 1
    25   26   25 1
    26   27   25 1
    27   28   25 1
    28   29   23 1
    29   30   29 1
    30   31   29 1
    31   32   29 1
    32   19   22 1
    33   22   23 1
@<TRIPOS>SUBSTRUCTURE
     1 RES1 1

@<TRIPOS>CRYSIN
   6.3760    7.9880   11.7760 101.6100 101.1300 110.3400   2 1

