# MOL2 file generated by ConQuest
# Please check atom types

@<TRIPOS>MOLECULE
LOGHEV
    43    46     1
SMALL
NO_CHARGES
****
Generated from CSD

@<TRIPOS>ATOM
      1 C1         2.0820    4.6837    5.7779 C.2       1 RES1    0.0000
      2 O1         2.1218    3.4859    5.7841 O.2       1 RES1    0.0000
      3 O2         1.2273    5.3682    6.5494 O.3       1 RES1    0.0000
      4 C2         1.4785    6.8021    6.4449 C.3       1 RES1    0.0000
      5 H1         1.9992    7.1199    7.2246 H         1 RES1    0.0000
      6 H2         0.6237    7.3016    6.4093 H         1 RES1    0.0000
      7 C3         2.2632    7.0033    5.1640 C.3       1 RES1    0.0000
      8 H3         2.9322    7.7262    5.2668 H         1 RES1    0.0000
      9 H4         1.6627    7.2229    4.4094 H         1 RES1    0.0000
     10 C4         2.9469    5.6443    4.9500 C.3       1 RES1    0.0000
     11 N1         3.0546    5.1643    3.5780 N.3       1 RES1    0.0000
     12 H5         3.2184    4.2588    3.5673 H         1 RES1    0.0000
     13 C5         4.1654    5.8892    2.9601 C.3       1 RES1    0.0000
     14 H6         3.8514    6.8133    2.7406 H         1 RES1    0.0000
     15 C6         4.6486    5.2392    1.6826 C.ar      1 RES1    0.0000
     16 C7         4.3009    3.9325    1.3680 C.ar      1 RES1    0.0000
     17 H7         3.7574    3.4304    1.9655 H         1 RES1    0.0000
     18 C8         4.7426    3.3562    0.1868 C.ar      1 RES1    0.0000
     19 H8         4.4935    2.4643   -0.0249 H         1 RES1    0.0000
     20 C9         5.5415    4.0687   -0.6853 C.ar      1 RES1    0.0000
     21 H9         5.8496    3.6676   -1.4889 H         1 RES1    0.0000
     22 C10        5.8885    5.3670   -0.3789 C.ar      1 RES1    0.0000
     23 H10        6.4408    5.8612   -0.9741 H         1 RES1    0.0000
     24 C11        5.4358    5.9567    0.7925 C.ar      1 RES1    0.0000
     25 H11        5.6655    6.8573    0.9875 H         1 RES1    0.0000
     26 C12        5.1959    5.9891    4.1326 C.3       1 RES1    0.0000
     27 H12        5.5069    6.9348    4.2295 H         1 RES1    0.0000
     28 N2         6.3795    5.0848    3.8819 N.pl3     1 RES1    0.0000
     29 O3         6.2936    3.8933    4.1200 O.2       1 RES1    0.0000
     30 O4         7.3687    5.6155    3.3872 O.2       1 RES1    0.0000
     31 C13        4.4360    5.5612    5.3946 C.3       1 RES1    0.0000
     32 H13        4.6385    4.5920    5.5366 H         1 RES1    0.0000
     33 C14        4.7940    6.2716    6.6841 C.ar      1 RES1    0.0000
     34 C15        4.6217    5.5844    7.8781 C.ar      1 RES1    0.0000
     35 H14        4.3080    4.6880    7.8600 H         1 RES1    0.0000
     36 C16        4.8986    6.1805    9.0921 C.ar      1 RES1    0.0000
     37 H15        4.7528    5.7003    9.8981 H         1 RES1    0.0000
     38 C17        5.3849    7.4682    9.1386 C.ar      1 RES1    0.0000
     39 H16        5.5808    7.8766    9.9728 H         1 RES1    0.0000
     40 C18        5.5830    8.1517    7.9717 C.ar      1 RES1    0.0000
     41 H17        5.9325    9.0347    7.9977 H         1 RES1    0.0000
     42 C19        5.2797    7.5684    6.7450 C.ar      1 RES1    0.0000
     43 H18        5.4056    8.0629    5.9442 H         1 RES1    0.0000
@<TRIPOS>BOND
     1    1    2 2
     2    3    1 1
     3    4    3 1
     4    5    4 1
     5    6    4 1
     6    7    4 1
     7    8    7 1
     8    9    7 1
     9   10    1 1
    10   11   10 1
    11   12   11 1
    12   13   11 1
    13   14   13 1
    14   15   13 1
    15   16   15 ar
    16   17   16 1
    17   18   16 ar
    18   19   18 1
    19   20   18 ar
    20   21   20 1
    21   22   20 ar
    22   23   22 1
    23   24   15 ar
    24   25   24 1
    25   26   13 1
    26   27   26 1
    27   28   26 1
    28   29   28 2
    29   30   28 2
    30   31   10 1
    31   32   31 1
    32   33   31 1
    33   34   33 ar
    34   35   34 1
    35   36   34 ar
    36   37   36 1
    37   38   36 ar
    38   39   38 1
    39   40   38 ar
    40   41   40 1
    41   42   33 ar
    42   43   42 1
    43    7   10 1
    44   22   24 ar
    45   26   31 1
    46   40   42 ar
@<TRIPOS>SUBSTRUCTURE
     1 RES1 1

@<TRIPOS>CRYSIN
   7.4544   11.5696   19.2174  90.0000  95.2120  90.0000  14 1

