# MOL2 file generated by ConQuest
# Please check atom types

@<TRIPOS>MOLECULE
LOGMUR
    49    52     1
SMALL
NO_CHARGES
****
Generated from CSD

@<TRIPOS>ATOM
      1 C1         2.5010    1.4164    0.6841 C.3       1 RES1    0.0000
      2 H1         2.2905    0.6665    0.0891 H         1 RES1    0.0000
      3 O1         2.1180   -1.1923    2.3162 O.3       1 RES1    0.0000
      4 H2         2.5120   -1.2179    1.5976 H         1 RES1    0.0000
      5 O2         6.0861    1.7391    0.0958 O.2       1 RES1    0.0000
      6 C2         2.0197    2.7039    0.0320 C.ar      1 RES1    0.0000
      7 O3         4.3442    1.8917   -1.2108 O.2       1 RES1    0.0000
      8 C3         1.7586    1.2100    2.0232 C.3       1 RES1    0.0000
      9 H3         1.8439    2.0399    2.5372 H         1 RES1    0.0000
     10 N1         4.8175    1.6949   -0.0745 N.pl3     1 RES1    0.0000
     11 C4         3.9808    1.4053    0.9673 C.2       1 RES1    0.0000
     12 C5         0.3263    0.9828    1.7922 C.1       1 RES1    0.0000
     13 C6         2.3095    0.0589    2.9070 C.3       1 RES1    0.0000
     14 C7         4.5097    0.8950    2.1557 C.2       1 RES1    0.0000
     15 C8         1.5627    0.0658    4.2396 C.ar      1 RES1    0.0000
     16 N2         3.7127    0.3734    3.1306 N.pl3     1 RES1    0.0000
     17 C9         2.3507    3.9399    0.5467 C.ar      1 RES1    0.0000
     18 H4         2.8460    3.9830    1.3322 H         1 RES1    0.0000
     19 N3         5.7803    0.7865    2.5172 N.3       1 RES1    0.0000
     20 H5         6.4342    1.1304    2.0774 H         1 RES1    0.0000
     21 N4        -0.7835    0.8093    1.6419 N.1       1 RES1    0.0000
     22 C10        1.9651    5.1225   -0.0747 C.ar      1 RES1    0.0000
     23 H6         2.1930    5.9446    0.2944 H         1 RES1    0.0000
     24 C11        1.2440    5.0595   -1.2404 C.ar      1 RES1    0.0000
     25 C12        1.2452    2.6677   -1.1105 C.ar      1 RES1    0.0000
     26 H7         0.9830    1.8476   -1.4612 H         1 RES1    0.0000
     27 O4         0.8799    6.1445   -1.9854 O.3       1 RES1    0.0000
     28 C13        4.5260   -0.4298    4.0577 C.3       1 RES1    0.0000
     29 H8         4.4145   -1.3791    3.8894 H         1 RES1    0.0000
     30 H9         4.2956   -0.2406    4.9799 H         1 RES1    0.0000
     31 C14        0.8556    3.8328   -1.7364 C.ar      1 RES1    0.0000
     32 H10        0.3252    3.7908   -2.4990 H         1 RES1    0.0000
     33 C15        1.7118    1.1283    5.1113 C.ar      1 RES1    0.0000
     34 H11        2.3278    1.7981    4.9199 H         1 RES1    0.0000
     35 C16        0.6597   -0.9334    4.5431 C.ar      1 RES1    0.0000
     36 H12        0.5553   -1.6600    3.9712 H         1 RES1    0.0000
     37 C17        5.9431    0.0207    3.7411 C.3       1 RES1    0.0000
     38 H13        6.3021    0.5721    4.4528 H         1 RES1    0.0000
     39 H14        6.5295   -0.7391    3.6022 H         1 RES1    0.0000
     40 C18        1.2708    7.4249   -1.5458 C.3       1 RES1    0.0000
     41 H15        0.9451    8.0870   -2.1610 H         1 RES1    0.0000
     42 H16        2.2286    7.4699   -1.5030 H         1 RES1    0.0000
     43 H17        0.9038    7.5897   -0.6743 H         1 RES1    0.0000
     44 C19       -0.0933   -0.8450    5.7110 C.ar      1 RES1    0.0000
     45 H18       -0.6968   -1.5207    5.9213 H         1 RES1    0.0000
     46 C20        0.9531    1.2076    6.2683 C.ar      1 RES1    0.0000
     47 H19        1.0597    1.9259    6.8482 H         1 RES1    0.0000
     48 C21        0.0447    0.2222    6.5542 C.ar      1 RES1    0.0000
     49 H20       -0.4777    0.2797    7.3208 H         1 RES1    0.0000
@<TRIPOS>BOND
     1    1    2 1
     2    3    4 1
     3    5   10 2
     4    6    1 1
     5    7   10 2
     6    8    1 1
     7    9    8 1
     8   10   11 1
     9   11    1 1
    10   12    8 1
    11   13    3 1
    12   14   11 2
    13   15   13 1
    14   16   13 1
    15   17    6 ar
    16   18   17 1
    17   19   14 1
    18   20   19 1
    19   21   12 3
    20   22   17 ar
    21   23   22 1
    22   24   22 ar
    23   25    6 ar
    24   26   25 1
    25   27   24 1
    26   28   16 1
    27   29   28 1
    28   30   28 1
    29   31   24 ar
    30   32   31 1
    31   33   15 ar
    32   34   33 1
    33   35   15 ar
    34   36   35 1
    35   37   19 1
    36   38   37 1
    37   39   37 1
    38   40   27 1
    39   41   40 1
    40   42   40 1
    41   43   40 1
    42   44   35 ar
    43   45   44 1
    44   46   33 ar
    45   47   46 1
    46   48   44 ar
    47   49   48 1
    48    8   13 1
    49   14   16 1
    50   25   31 ar
    51   28   37 1
    52   46   48 ar
@<TRIPOS>SUBSTRUCTURE
     1 RES1 1

@<TRIPOS>CRYSIN
   9.4932   11.5117   18.1748  90.0000  90.1650  90.0000 231 1

