# MOL2 file generated by ConQuest
# Please check atom types

@<TRIPOS>MOLECULE
LOHGOE
    34    37     1
SMALL
NO_CHARGES
****
Generated from CSD

@<TRIPOS>ATOM
      1 O1         6.0584    8.2668    5.6751 O.2       1 RES1    0.0000
      2 O2         5.5622    3.8166    6.3266 O.2       1 RES1    0.0000
      3 O3        -1.0431    6.0985    4.5789 O.2       1 RES1    0.0000
      4 O4        -1.2555    4.3808    5.8646 O.2       1 RES1    0.0000
      5 N1         5.8226    6.0395    6.0516 N.am      1 RES1    0.0000
      6 N2        -0.5850    5.2537    5.3319 N.pl3     1 RES1    0.0000
      7 C1         3.8415    7.4589    5.7625 C.ar      1 RES1    0.0000
      8 C2         3.2734    8.7232    5.6971 C.ar      1 RES1    0.0000
      9 H1         3.8152    9.4779    5.7011 H         1 RES1    0.0000
     10 C3         1.8956    8.8561    5.6250 C.ar      1 RES1    0.0000
     11 H2         1.5256    9.7098    5.6210 H         1 RES1    0.0000
     12 C4         1.0615    7.7720    5.5589 C.ar      1 RES1    0.0000
     13 H3         0.1421    7.8931    5.4855 H         1 RES1    0.0000
     14 C5         1.6137    6.4589    5.6043 C.ar      1 RES1    0.0000
     15 C6         0.8602    5.2493    5.5829 C.ar      1 RES1    0.0000
     16 C7         1.4227    4.0352    5.7785 C.ar      1 RES1    0.0000
     17 H4         0.8917    3.2716    5.7785 H         1 RES1    0.0000
     18 C8         2.7958    3.9259    5.9788 C.ar      1 RES1    0.0000
     19 H5         3.1778    3.0943    6.1417 H         1 RES1    0.0000
     20 C9         3.5861    5.0469    5.9361 C.ar      1 RES1    0.0000
     21 C10        3.0182    6.3230    5.7672 C.ar      1 RES1    0.0000
     22 C11        5.3097    7.3392    5.8219 C.2       1 RES1    0.0000
     23 C12        5.0515    4.8977    6.1317 C.2       1 RES1    0.0000
     24 C13        7.2406    5.9110    6.3066 C.ar      1 RES1    0.0000
     25 C14        7.7614    6.4530    7.4608 C.ar      1 RES1    0.0000
     26 H6         7.2034    6.8887    8.0636 H         1 RES1    0.0000
     27 C15        9.1065    6.3496    7.7212 C.ar      1 RES1    0.0000
     28 H7         9.4596    6.7204    8.4969 H         1 RES1    0.0000
     29 C16        9.9264    5.6997    6.8400 C.ar      1 RES1    0.0000
     30 H8        10.8372    5.6303    7.0135 H         1 RES1    0.0000
     31 C17        9.3950    5.1459    5.6904 C.ar      1 RES1    0.0000
     32 H9         9.9506    4.6954    5.0956 H         1 RES1    0.0000
     33 C18        8.0630    5.2522    5.4200 C.ar      1 RES1    0.0000
     34 H10        7.7122    4.8830    4.6423 H         1 RES1    0.0000
@<TRIPOS>BOND
     1    1   22 2
     2    2   23 2
     3    3    6 2
     4    4    6 2
     5    5   22 1
     6    6   15 1
     7    7    8 ar
     8    8    9 1
     9   10    8 ar
    10   11   10 1
    11   12   10 ar
    12   13   12 1
    13   14   12 ar
    14   15   14 ar
    15   16   15 ar
    16   17   16 1
    17   18   16 ar
    18   19   18 1
    19   20   18 ar
    20   21    7 ar
    21   22    7 1
    22   23    5 1
    23   24    5 1
    24   25   24 ar
    25   26   25 1
    26   27   25 ar
    27   28   27 1
    28   29   27 ar
    29   30   29 1
    30   31   29 ar
    31   32   31 1
    32   33   24 ar
    33   34   33 1
    34   14   21 ar
    35   20   23 1
    36   20   21 ar
    37   31   33 ar
@<TRIPOS>SUBSTRUCTURE
     1 RES1 1

@<TRIPOS>CRYSIN
  14.0850   14.7700    7.3630  90.0000 114.9520  90.0000   9 1

