# MOL2 file generated by ConQuest
# Please check atom types

@<TRIPOS>MOLECULE
LOHNUS
    47    48     1
SMALL
NO_CHARGES
****
Generated from CSD

@<TRIPOS>ATOM
      1 O1        10.4129   11.1669    5.4812 O.2       1 RES1    0.0000
      2 O2        10.4950    9.6996    3.8910 O.2       1 RES1    0.0000
      3 O3        -0.3211    8.5486   14.1102 O.2       1 RES1    0.0000
      4 O4         0.3625   10.4763   13.3848 O.2       1 RES1    0.0000
      5 N1         6.8060    5.3069    7.8304 N.2       1 RES1    0.0000
      6 N2         3.0611    5.5275    8.7955 N.2       1 RES1    0.0000
      7 N3        10.1358   10.0655    5.0043 N.pl3     1 RES1    0.0000
      8 N4         0.3033    9.2484   13.3094 N.pl3     1 RES1    0.0000
      9 C1         8.0319    8.7260    7.7650 C.ar      1 RES1    0.0000
     10 H1         7.6701    9.0112    8.5737 H         1 RES1    0.0000
     11 C2         8.8242    9.5940    7.0187 C.ar      1 RES1    0.0000
     12 H2         9.0109   10.4531    7.3223 H         1 RES1    0.0000
     13 C3         9.3252    9.1404    5.8119 C.ar      1 RES1    0.0000
     14 C4         9.0791    7.8720    5.3213 C.ar      1 RES1    0.0000
     15 H3         9.4272    7.6012    4.5028 H         1 RES1    0.0000
     16 C5         8.3006    7.0170    6.0819 C.ar      1 RES1    0.0000
     17 H4         8.1238    6.1572    5.7746 H         1 RES1    0.0000
     18 C6         7.7775    7.4358    7.3100 C.ar      1 RES1    0.0000
     19 C7         6.9606    6.5251    8.1372 C.2       1 RES1    0.0000
     20 H5         6.5494    6.8543    8.9036 H         1 RES1    0.0000
     21 C8         5.9720    4.4756    8.6929 C.3       1 RES1    0.0000
     22 H6         5.6599    5.0049    9.4435 H         1 RES1    0.0000
     23 H7         6.5026    3.7427    9.0428 H         1 RES1    0.0000
     24 C9         4.7566    3.9060    7.9293 C.3       1 RES1    0.0000
     25 C10        3.7479    5.0245    7.6107 C.3       1 RES1    0.0000
     26 H8         4.2152    5.7578    7.1819 H         1 RES1    0.0000
     27 H9         3.0892    4.6853    6.9839 H         1 RES1    0.0000
     28 C11        3.0049    6.7863    8.9426 C.2       1 RES1    0.0000
     29 H10        3.4222    7.3356    8.3181 H         1 RES1    0.0000
     30 C12        2.2955    7.4013   10.0779 C.ar      1 RES1    0.0000
     31 C13        1.4569    6.6440   10.9071 C.ar      1 RES1    0.0000
     32 H11        1.3340    5.7378   10.7333 H         1 RES1    0.0000
     33 C14        0.8088    7.2301   11.9825 C.ar      1 RES1    0.0000
     34 H12        0.2598    6.7284   12.5413 H         1 RES1    0.0000
     35 C15        1.0026    8.5886   12.2013 C.ar      1 RES1    0.0000
     36 C16        1.8086    9.3743   11.3875 C.ar      1 RES1    0.0000
     37 H13        1.9107   10.2834   11.5503 H         1 RES1    0.0000
     38 C17        2.4567    8.7627   10.3250 C.ar      1 RES1    0.0000
     39 H14        3.0062    9.2688    9.7698 H         1 RES1    0.0000
     40 C18        4.1118    2.8294    8.8035 C.3       1 RES1    0.0000
     41 H15        3.3502    2.4605    8.3493 H         1 RES1    0.0000
     42 H16        3.8310    3.2174    9.6355 H         1 RES1    0.0000
     43 H17        4.7491    2.1330    8.9756 H         1 RES1    0.0000
     44 C19        5.2016    3.2939    6.5976 C.3       1 RES1    0.0000
     45 H18        4.4361    2.9498    6.1321 H         1 RES1    0.0000
     46 H19        5.8213    2.5803    6.7644 H         1 RES1    0.0000
     47 H20        5.6269    3.9684    6.0613 H         1 RES1    0.0000
@<TRIPOS>BOND
     1    1    7 2
     2    2    7 2
     3    3    8 2
     4    4    8 2
     5    5   19 2
     6    6   25 1
     7    7   13 1
     8    8   35 1
     9    9   10 1
    10   11    9 ar
    11   12   11 1
    12   13   11 ar
    13   14   13 ar
    14   15   14 1
    15   16   14 ar
    16   17   16 1
    17   18    9 ar
    18   19   18 1
    19   20   19 1
    20   21    5 1
    21   22   21 1
    22   23   21 1
    23   24   21 1
    24   25   24 1
    25   26   25 1
    26   27   25 1
    27   28    6 2
    28   29   28 1
    29   30   28 1
    30   31   30 ar
    31   32   31 1
    32   33   31 ar
    33   34   33 1
    34   35   33 ar
    35   36   35 ar
    36   37   36 1
    37   38   30 ar
    38   39   38 1
    39   40   24 1
    40   41   40 1
    41   42   40 1
    42   43   40 1
    43   44   24 1
    44   45   44 1
    45   46   44 1
    46   47   44 1
    47   16   18 ar
    48   36   38 ar
@<TRIPOS>SUBSTRUCTURE
     1 RES1 1

@<TRIPOS>CRYSIN
   7.8219   19.9716   12.0125  90.0000  92.8310  90.0000  14 1

