# MOL2 file generated by ConQuest
# Please check atom types

@<TRIPOS>MOLECULE
LOHQAC
    41    42     1
SMALL
NO_CHARGES
****
Generated from CSD

@<TRIPOS>ATOM
      1 O1        -0.1523    6.0232    6.0199 O.3       1 RES1    0.0000
      2 C1        -0.5536    8.8303    3.0029 C.ar      1 RES1    0.0000
      3 N1        -1.6819    9.6644    1.0277 N.2       1 RES1    0.0000
      4 C2        -0.7525    9.8260    1.8953 C.2       1 RES1    0.0000
      5 O2         3.2140   11.8541    4.2117 O.3       1 RES1    0.0000
      6 C3        -1.3630    7.7118    4.9894 C.ar      1 RES1    0.0000
      7 H1        -2.0143    7.6121    5.6465 H         1 RES1    0.0000
      8 C4        -1.5296    8.6556    3.9786 C.ar      1 RES1    0.0000
      9 H2        -2.3007    9.1750    3.9562 H         1 RES1    0.0000
     10 C5        -0.2246    6.9237    5.0133 C.ar      1 RES1    0.0000
     11 C6         1.0580   11.3786    2.5832 C.2       1 RES1    0.0000
     12 H3         1.2496   10.8219    3.3020 H         1 RES1    0.0000
     13 C7         1.8654   12.6048    2.4428 C.ar      1 RES1    0.0000
     14 C8         0.5757    8.0515    3.0521 C.ar      1 RES1    0.0000
     15 H4         1.2352    8.1616    2.4063 H         1 RES1    0.0000
     16 C9         2.9712   12.8144    3.2683 C.ar      1 RES1    0.0000
     17 C10        0.0886   11.0063    1.7745 C.2       1 RES1    0.0000
     18 H5        -0.0769   11.5599    1.0459 H         1 RES1    0.0000
     19 C11        1.5668   13.5737    1.4937 C.ar      1 RES1    0.0000
     20 H6         0.8232   13.4708    0.9434 H         1 RES1    0.0000
     21 C12        0.7485    7.1074    4.0446 C.ar      1 RES1    0.0000
     22 H7         1.5228    6.5927    4.0643 H         1 RES1    0.0000
     23 O3        -2.4038    8.4485    1.1329 O.3       1 RES1    0.0000
     24 H8        -2.9689    8.4145    0.5405 H         1 RES1    0.0000
     25 C13        1.0191    5.2115    6.1252 C.3       1 RES1    0.0000
     26 H9         1.8038    5.7720    6.2305 H         1 RES1    0.0000
     27 H10        1.1288    4.6793    5.3222 H         1 RES1    0.0000
     28 C14        3.7741   13.9478    3.1321 C.ar      1 RES1    0.0000
     29 H11        4.5080   14.0768    3.6894 H         1 RES1    0.0000
     30 C15        3.4607   14.8804    2.1536 C.ar      1 RES1    0.0000
     31 H12        3.9995   15.6303    2.0455 H         1 RES1    0.0000
     32 C16        2.3890   14.7157    1.3604 C.ar      1 RES1    0.0000
     33 H13        2.1869   15.3563    0.7174 H         1 RES1    0.0000
     34 C17        0.8622    4.3177    7.3143 C.3       1 RES1    0.0000
     35 H14        0.7809    4.8523    8.1075 H         1 RES1    0.0000
     36 H15        1.6307    3.7474    7.3901 H         1 RES1    0.0000
     37 H16        0.0737    3.7801    7.2090 H         1 RES1    0.0000
     38 C18        4.2541   12.0513    5.1326 C.3       1 RES1    0.0000
     39 H17        5.0982   12.0107    4.6764 H         1 RES1    0.0000
     40 H18        4.2207   11.3671    5.8051 H         1 RES1    0.0000
     41 H19        4.1551   12.9120    5.5468 H         1 RES1    0.0000
@<TRIPOS>BOND
     1    1   10 1
     2    2    4 1
     3    3    4 2
     4    4   17 1
     5    5   16 1
     6    6    7 1
     7    8    2 ar
     8    9    8 1
     9   10    6 ar
    10   11   12 1
    11   13   11 1
    12   14    2 ar
    13   15   14 1
    14   16   13 ar
    15   17   11 2
    16   18   17 1
    17   19   13 ar
    18   20   19 1
    19   21   10 ar
    20   22   21 1
    21   23    3 1
    22   24   23 1
    23   25    1 1
    24   26   25 1
    25   27   25 1
    26   28   16 ar
    27   29   28 1
    28   30   28 ar
    29   31   30 1
    30   32   19 ar
    31   33   32 1
    32   34   25 1
    33   35   34 1
    34   36   34 1
    35   37   34 1
    36   38    5 1
    37   39   38 1
    38   40   38 1
    39   41   38 1
    40    6    8 ar
    41   14   21 ar
    42   30   32 ar
@<TRIPOS>SUBSTRUCTURE
     1 RES1 1

@<TRIPOS>CRYSIN
   5.8593    9.5104   14.9240  71.8520  81.9810  89.0660   2 1

