# MOL2 file generated by ConQuest
# Please check atom types

@<TRIPOS>MOLECULE
LOHQUU
    44    44     2
SMALL
NO_CHARGES
****
Generated from CSD

@<TRIPOS>ATOM
      1 O1         5.4052    3.9065    2.6833 O.3       1 RES1    0.0000
      2 H1         5.3881    3.5069    3.5369 H         1 RES1    0.0000
      3 O2         8.1282    4.4951    2.3187 O.2       1 RES1    0.0000
      4 N1         6.3034    3.1638    1.9222 N.am      1 RES1    0.0000
      5 N2         7.0330    1.8155    0.2539 N.3       1 RES1    0.0000
      6 H2         7.2737    1.0906    0.7805 H         1 RES1    0.0000
      7 C1         5.7763    2.3712    0.7943 C.3       1 RES1    0.0000
      8 C2         7.5392    3.6217    1.6904 C.2       1 RES1    0.0000
      9 C3         8.0564    2.8648    0.4851 C.3       1 RES1    0.0000
     10 H3         8.0885    3.4881   -0.2371 H         1 RES1    0.0000
     11 C4         5.0777    3.2728   -0.2065 C.3       1 RES1    0.0000
     12 H4         4.6862    2.6514   -0.9781 H         1 RES1    0.0000
     13 H5         5.7659    4.0053   -0.5335 H         1 RES1    0.0000
     14 H6         4.3066    3.7232    0.2569 H         1 RES1    0.0000
     15 C5         4.8571    1.2749    1.2745 C.3       1 RES1    0.0000
     16 H7         4.7777    0.6863    0.5631 H         1 RES1    0.0000
     17 H8         4.0557    1.5889    1.6301 H         1 RES1    0.0000
     18 H9         5.3662    0.6675    1.9364 H         1 RES1    0.0000
     19 C6         9.4468    2.2978    0.6382 C.3       1 RES1    0.0000
     20 H10        9.7478    1.8992   -0.1680 H         1 RES1    0.0000
     21 H11        9.4574    1.6454    1.3337 H         1 RES1    0.0000
     22 H12       10.0295    3.0651    0.8101 H         1 RES1    0.0000
     23 O3         1.1999    8.5013    4.0006 O.3       2 RES2    0.0000
     24 H13        0.5847    8.2362    4.6731 H         2 RES2    0.0000
     25 O4        -0.8301    9.1735    2.1785 O.2       2 RES2    0.0000
     26 N3         0.8274    7.7397    2.8830 N.am      2 RES2    0.0000
     27 N4         1.1073    6.3962    1.0863 N.3       2 RES2    0.0000
     28 H14        0.6113    5.7164    1.3436 H         2 RES2    0.0000
     29 C7         1.8622    6.9067    2.2526 C.3       2 RES2    0.0000
     30 C8        -0.0394    8.2615    1.9977 C.2       2 RES2    0.0000
     31 C9         0.1683    7.4812    0.7103 C.3       2 RES2    0.0000
     32 H15        0.6257    8.0857    0.0988 H         2 RES2    0.0000
     33 C10        3.0435    7.7623    1.8297 C.3       2 RES2    0.0000
     34 H16        3.8614    7.2395    1.4819 H         2 RES2    0.0000
     35 H17        3.3991    8.2738    2.7070 H         2 RES2    0.0000
     36 H18        2.7625    8.5276    1.1559 H         2 RES2    0.0000
     37 C11        2.3108    5.7785    3.1516 C.3       2 RES2    0.0000
     38 H19        2.9628    5.2463    2.6774 H         2 RES2    0.0000
     39 H20        1.5167    5.2651    3.3689 H         2 RES2    0.0000
     40 H21        2.8732    6.2711    3.9716 H         2 RES2    0.0000
     41 C12       -1.1022    6.9744    0.0692 C.3       2 RES2    0.0000
     42 H22       -0.8736    6.4874   -0.7805 H         2 RES2    0.0000
     43 H23       -1.6474    7.8037   -0.1581 H         2 RES2    0.0000
     44 H24       -1.5317    6.3746    0.6916 H         2 RES2    0.0000
@<TRIPOS>BOND
     1    1    2 1
     2    3    8 2
     3    4    1 1
     4    5    6 1
     5    7    4 1
     6    8    4 1
     7    9    5 1
     8   10    9 1
     9   11    7 1
    10   12   11 1
    11   13   11 1
    12   14   11 1
    13   15    7 1
    14   16   15 1
    15   17   15 1
    16   18   15 1
    17   19    9 1
    18   20   19 1
    19   21   19 1
    20   22   19 1
    21   23   24 1
    22   25   30 2
    23   26   23 1
    24   27   28 1
    25   29   26 1
    26   30   26 1
    27   31   27 1
    28   32   31 1
    29   33   29 1
    30   34   33 1
    31   35   33 1
    32   36   33 1
    33   37   29 1
    34   38   37 1
    35   39   37 1
    36   40   37 1
    37   41   31 1
    38   42   41 1
    39   43   41 1
    40   44   41 1
    41    5    7 1
    42    8    9 1
    43   27   29 1
    44   30   31 1
@<TRIPOS>SUBSTRUCTURE
     1 RES1 1
     2 RES2 23

@<TRIPOS>CRYSIN
  17.1310    9.4020   10.3360  90.0000 107.0900  90.0000  14 1

