# MOL2 file generated by ConQuest
# Please check atom types

@<TRIPOS>MOLECULE
LOHXOW
    27    28     1
SMALL
NO_CHARGES
****
Generated from CSD

@<TRIPOS>ATOM
      1 N1         6.2310    8.9842    7.3846 N.2       1 RES1    0.0000
      2 N2         6.9650   10.0669    1.4257 N.pl3     1 RES1    0.0000
      3 O1         6.9218   10.9473    0.5670 O.2       1 RES1    0.0000
      4 O2         7.2709    8.9058    1.1889 O.2       1 RES1    0.0000
      5 C1         6.6057    8.7711    6.1758 C.2       1 RES1    0.0000
      6 H1         6.9738    7.9257    5.9481 H         1 RES1    0.0000
      7 C2         6.4798    9.8042    5.1286 C.ar      1 RES1    0.0000
      8 C3         6.7879    9.4714    3.8062 C.ar      1 RES1    0.0000
      9 H2         7.0872    8.5974    3.5856 H         1 RES1    0.0000
     10 C4         6.6503   10.4384    2.8216 C.ar      1 RES1    0.0000
     11 C5         6.2193   11.7322    3.0927 C.ar      1 RES1    0.0000
     12 H3         6.1344   12.3745    2.3987 H         1 RES1    0.0000
     13 C6         5.9171   12.0568    4.4082 C.ar      1 RES1    0.0000
     14 H4         5.6185   12.9336    4.6191 H         1 RES1    0.0000
     15 C7         6.0459   11.1087    5.4231 C.ar      1 RES1    0.0000
     16 H5         5.8388   11.3458    6.3196 H         1 RES1    0.0000
     17 C8         6.3050    7.9075    8.3164 C.ar      1 RES1    0.0000
     18 C9         6.5984    8.2126    9.6532 C.ar      1 RES1    0.0000
     19 H6         6.7535    9.1142    9.9077 H         1 RES1    0.0000
     20 C10        6.6628    7.2050   10.6098 C.ar      1 RES1    0.0000
     21 H7         6.8779    7.4186   11.5097 H         1 RES1    0.0000
     22 C11        6.4125    5.8840   10.2513 C.ar      1 RES1    0.0000
     23 H8         6.4630    5.1943   10.9026 H         1 RES1    0.0000
     24 C12        6.0861    5.5774    8.9299 C.ar      1 RES1    0.0000
     25 H9         5.8995    4.6787    8.6871 H         1 RES1    0.0000
     26 C13        6.0327    6.5762    7.9653 C.ar      1 RES1    0.0000
     27 H10        5.8117    6.3573    7.0677 H         1 RES1    0.0000
@<TRIPOS>BOND
     1    1    5 2
     2    2    3 2
     3    4    2 2
     4    5    6 1
     5    7    5 1
     6    8    7 ar
     7    9    8 1
     8   10    2 1
     9   11   10 ar
    10   12   11 1
    11   13   11 ar
    12   14   13 1
    13   15    7 ar
    14   16   15 1
    15   17    1 1
    16   18   17 ar
    17   19   18 1
    18   20   18 ar
    19   21   20 1
    20   22   20 ar
    21   23   22 1
    22   24   22 ar
    23   25   24 1
    24   26   17 ar
    25   27   26 1
    26    8   10 ar
    27   13   15 ar
    28   24   26 ar
@<TRIPOS>SUBSTRUCTURE
     1 RES1 1

@<TRIPOS>CRYSIN
   7.3177   12.1022   12.4672  90.0000  90.0000  90.0000  19 1

