# MOL2 file generated by ConQuest
# Please check atom types

@<TRIPOS>MOLECULE
LOJBAN
    50    50     2
SMALL
NO_CHARGES
****
Generated from CSD

@<TRIPOS>ATOM
      1 N1         4.0899   11.6997   10.9166 N.pl3     1 RES1    0.0000
      2 N2         7.7359    8.0054   12.8553 N.3       1 RES1    0.0000
      3 H1         7.7252    7.2265   12.4926 H         1 RES1    0.0000
      4 O1         3.9552   12.7643   11.5018 O.2       1 RES1    0.0000
      5 O2         3.3942   11.3809    9.9503 O.2       1 RES1    0.0000
      6 N3         9.0321   -0.0317    8.6337 N.3       2 RES2    0.0000
      7 H2         9.7341   -0.3600    9.0065 H         2 RES2    0.0000
      8 N4         7.1708    4.7607   10.6759 N.pl3     2 RES2    0.0000
      9 O3         7.7502    5.2490   11.6430 O.2       2 RES2    0.0000
     10 O4         6.1997    5.2992   10.1652 O.2       2 RES2    0.0000
     11 C1         5.0765   10.7725   11.3847 C.ar      1 RES1    0.0000
     12 C2         5.9327   11.1312   12.4002 C.ar      1 RES1    0.0000
     13 H3         5.8966   11.9897   12.7586 H         1 RES1    0.0000
     14 C3         6.8367   10.2269   12.8813 C.ar      1 RES1    0.0000
     15 H4         7.4180   10.4787   13.5622 H         1 RES1    0.0000
     16 C4         6.9006    8.9323   12.3658 C.ar      1 RES1    0.0000
     17 C5         6.0330    8.6044   11.3062 C.ar      1 RES1    0.0000
     18 H5         6.0758    7.7568   10.9242 H         1 RES1    0.0000
     19 C6         5.1329    9.5070   10.8321 C.ar      1 RES1    0.0000
     20 H6         4.5579    9.2748   10.1393 H         1 RES1    0.0000
     21 C7         7.6463    3.5222   10.1409 C.ar      2 RES2    0.0000
     22 C8         8.7281    2.9064   10.7155 C.ar      2 RES2    0.0000
     23 H7         9.1544    3.2958   11.4446 H         2 RES2    0.0000
     24 C9         9.1732    1.7278   10.2153 C.ar      2 RES2    0.0000
     25 H8         9.9010    1.3073   10.6137 H         2 RES2    0.0000
     26 C10        8.5574    1.1364    9.1146 C.ar      2 RES2    0.0000
     27 C11        7.4577    1.7891    8.5508 C.ar      2 RES2    0.0000
     28 H9         7.0280    1.4156    7.8147 H         2 RES2    0.0000
     29 C12        7.0125    2.9592    9.0654 C.ar      2 RES2    0.0000
     30 H10        6.2743    3.3812    8.6888 H         2 RES2    0.0000
     31 C13        8.6601    8.2246   13.9577 C.3       1 RES1    0.0000
     32 H11        8.1751    8.5856   14.7166 H         1 RES1    0.0000
     33 H12        9.3282    8.8744   13.6916 H         1 RES1    0.0000
     34 C14        9.3386    6.9531   14.3629 C.3       1 RES1    0.0000
     35 H13       10.0518    7.1629   14.9868 H         1 RES1    0.0000
     36 H14        9.7415    6.5483   13.5794 H         1 RES1    0.0000
     37 C15        8.4088    5.9579   15.0027 C.3       1 RES1    0.0000
     38 H15        8.0608    6.3251   15.8192 H         1 RES1    0.0000
     39 H16        8.8884    5.1494   15.1939 H         1 RES1    0.0000
     40 H17        7.6838    5.7660   14.4032 H         1 RES1    0.0000
     41 C16        8.4471   -0.7721    7.5387 C.3       2 RES2    0.0000
     42 H18        8.4142   -0.2075    6.7509 H         2 RES2    0.0000
     43 H19        7.5381   -1.0194    7.7687 H         2 RES2    0.0000
     44 C17        9.2285   -1.9984    7.2325 C.3       2 RES2    0.0000
     45 H20        9.2854   -2.5452    8.0318 H         2 RES2    0.0000
     46 H21       10.1304   -1.7439    6.9838 H         2 RES2    0.0000
     47 C18        8.6279   -2.8219    6.1212 C.3       2 RES2    0.0000
     48 H22        7.7332   -3.0760    6.3584 H         2 RES2    0.0000
     49 H23        9.1586   -3.6100    5.9832 H         2 RES2    0.0000
     50 H24        8.6099   -2.3036    5.3133 H         2 RES2    0.0000
@<TRIPOS>BOND
     1    1    4 2
     2    2    3 1
     3    5    1 2
     4    6    7 1
     5    8    9 2
     6   10    8 2
     7   11    1 1
     8   12   11 ar
     9   13   12 1
    10   14   12 ar
    11   15   14 1
    12   16    2 1
    13   17   16 ar
    14   18   17 1
    15   19   11 ar
    16   20   19 1
    17   21    8 1
    18   22   21 ar
    19   23   22 1
    20   24   22 ar
    21   25   24 1
    22   26    6 1
    23   27   26 ar
    24   28   27 1
    25   29   21 ar
    26   30   29 1
    27   31    2 1
    28   32   31 1
    29   33   31 1
    30   34   31 1
    31   35   34 1
    32   36   34 1
    33   37   34 1
    34   38   37 1
    35   39   37 1
    36   40   37 1
    37   41    6 1
    38   42   41 1
    39   43   41 1
    40   44   41 1
    41   45   44 1
    42   46   44 1
    43   47   44 1
    44   48   47 1
    45   49   47 1
    46   50   47 1
    47   14   16 ar
    48   17   19 ar
    49   24   26 ar
    50   27   29 ar
@<TRIPOS>SUBSTRUCTURE
     1 RES1 1
     2 RES2 6

@<TRIPOS>CRYSIN
   5.0760   13.1230   15.1900  71.9000  81.9100  80.0400   2 1

