# MOL2 file generated by ConQuest
# Please check atom types

@<TRIPOS>MOLECULE
LOJBER
    56    56     2
SMALL
NO_CHARGES
****
Generated from CSD

@<TRIPOS>ATOM
      1 O1         0.2427    7.2063    2.4146 O.2       1 RES1    0.0000
      2 O2         1.2412    6.3622    4.0891 O.2       1 RES1    0.0000
      3 O3         0.9932   13.9774    2.1207 O.2       2 RES2    0.0000
      4 O4         1.9775   14.8652    3.7951 O.2       2 RES2    0.0000
      5 N1         0.7461    6.2697    2.9723 N.pl3     1 RES1    0.0000
      6 N2         1.5085   13.8991    3.2257 N.pl3     2 RES2    0.0000
      7 N3         0.7281    1.2754    0.5671 N.3       1 RES1    0.0000
      8 H1         1.0388    0.6277    1.0413 H         1 RES1    0.0000
      9 N4         1.8020    8.9153    5.6496 N.3       2 RES2    0.0000
     10 H2         1.4017    8.2649    5.2527 H         2 RES2    0.0000
     11 C1         0.7408    4.9758    2.3340 C.ar      1 RES1    0.0000
     12 C2         1.2755    3.8892    3.0041 C.ar      1 RES1    0.0000
     13 H3         1.6407    3.9966    3.8520 H         1 RES1    0.0000
     14 C3         1.2643    2.6767    2.4192 C.ar      1 RES1    0.0000
     15 H4         1.6250    1.9461    2.8681 H         1 RES1    0.0000
     16 C4         0.7117    2.4971    1.1284 C.ar      1 RES1    0.0000
     17 C5         0.1777    3.6160    0.4838 C.ar      1 RES1    0.0000
     18 H5        -0.1882    3.5254   -0.3669 H         1 RES1    0.0000
     19 C6         0.1867    4.8316    1.0848 C.ar      1 RES1    0.0000
     20 H6        -0.1822    5.5683    0.6522 H         1 RES1    0.0000
     21 C7         1.5877   12.6053    3.8551 C.ar      2 RES2    0.0000
     22 C8         2.2516   12.4856    5.0509 C.ar      2 RES2    0.0000
     23 H7         2.6519   13.2284    5.4417 H         2 RES2    0.0000
     24 C9         2.3196   11.2593    5.6659 C.ar      2 RES2    0.0000
     25 H8         2.7639   11.1779    6.4774 H         2 RES2    0.0000
     26 C10        1.7296   10.1312    5.0841 C.ar      2 RES2    0.0000
     27 C11        1.0649   10.3077    3.8557 C.ar      2 RES2    0.0000
     28 H9         0.6744    9.5756    3.4388 H         2 RES2    0.0000
     29 C12        0.9850   11.5233    3.2739 C.ar      2 RES2    0.0000
     30 H10        0.5190   11.6246    2.4772 H         2 RES2    0.0000
     31 C13        0.2711    0.9623   -0.7559 C.3       1 RES1    0.0000
     32 H11        0.6176    1.6177   -1.3822 H         1 RES1    0.0000
     33 H12       -0.6975    1.0053   -0.7819 H         1 RES1    0.0000
     34 C14        0.7281   -0.4251   -1.1710 C.3       1 RES1    0.0000
     35 H13        1.6952   -0.4666   -1.1080 H         1 RES1    0.0000
     36 H14        0.3644   -1.0713   -0.5466 H         1 RES1    0.0000
     37 C15        0.3353   -0.8027   -2.5105 C.3       1 RES1    0.0000
     38 H15        0.6198   -0.1105   -3.1294 H         1 RES1    0.0000
     39 H16       -0.6325   -0.8549   -2.5513 H         1 RES1    0.0000
     40 C16        0.9111   -2.1196   -2.9552 C.3       1 RES1    0.0000
     41 H17        1.8140   -2.1963   -2.6384 H         1 RES1    0.0000
     42 H18        0.9036   -2.1641   -3.9150 H         1 RES1    0.0000
     43 H19        0.3831   -2.8363   -2.5976 H         1 RES1    0.0000
     44 C17        2.4995    8.6240    6.8702 C.3       2 RES2    0.0000
     45 H20        2.1075    9.1351    7.5965 H         2 RES2    0.0000
     46 H21        3.4286    8.8911    6.7831 H         2 RES2    0.0000
     47 C18        2.4293    7.1506    7.2000 C.3       2 RES2    0.0000
     48 H22        1.4996    6.8836    7.2704 H         2 RES2    0.0000
     49 H23        2.8296    6.6441    6.4755 H         2 RES2    0.0000
     50 C19        3.1351    6.8207    8.4803 C.3       2 RES2    0.0000
     51 H24        2.7057    7.3026    9.2047 H         2 RES2    0.0000
     52 H25        4.0506    7.1353    8.4210 H         2 RES2    0.0000
     53 C20        3.1493    5.3595    8.8138 C.3       2 RES2    0.0000
     54 H26        2.2479    5.0295    8.8434 H         2 RES2    0.0000
     55 H27        3.5645    5.2306    9.6698 H         2 RES2    0.0000
     56 H28        3.6436    4.8822    8.1431 H         2 RES2    0.0000
@<TRIPOS>BOND
     1    1    5 2
     2    2    5 2
     3    3    6 2
     4    4    6 2
     5    5   11 1
     6    6   21 1
     7    7    8 1
     8    9   10 1
     9   11   12 ar
    10   12   13 1
    11   14   12 ar
    12   15   14 1
    13   16    7 1
    14   17   16 ar
    15   18   17 1
    16   19   11 ar
    17   20   19 1
    18   21   22 ar
    19   22   23 1
    20   24   22 ar
    21   25   24 1
    22   26    9 1
    23   27   26 ar
    24   28   27 1
    25   29   21 ar
    26   30   29 1
    27   31    7 1
    28   32   31 1
    29   33   31 1
    30   34   31 1
    31   35   34 1
    32   36   34 1
    33   37   34 1
    34   38   37 1
    35   39   37 1
    36   40   37 1
    37   41   40 1
    38   42   40 1
    39   43   40 1
    40   44    9 1
    41   45   44 1
    42   46   44 1
    43   47   44 1
    44   48   47 1
    45   49   47 1
    46   50   47 1
    47   51   50 1
    48   52   50 1
    49   53   50 1
    50   54   53 1
    51   55   53 1
    52   56   53 1
    53   14   16 ar
    54   17   19 ar
    55   24   26 ar
    56   27   29 ar
@<TRIPOS>SUBSTRUCTURE
     1 RES1 1
     2 RES2 3

@<TRIPOS>CRYSIN
   7.4680   15.3480   18.5280  90.0000  90.0000  90.0000  19 1

