# MOL2 file generated by ConQuest
# Please check atom types

@<TRIPOS>MOLECULE
LOJDIZ
    82    84     2
SMALL
NO_CHARGES
****
Generated from CSD

@<TRIPOS>ATOM
      1 O1         2.1592   -1.6664    2.3596 O.3       1 RES1    0.0000
      2 N1         6.6270    6.0203    1.2213 N.2       1 RES1    0.0000
      3 O2         7.0558    5.2330    0.1371 O.3       1 RES1    0.0000
      4 H1         6.4211    5.0830   -0.3600 H         1 RES1    0.0000
      5 O3         4.2769    8.2081    6.6366 O.3       1 RES1    0.0000
      6 C1         3.7718    2.1674    2.3758 C.ar      1 RES1    0.0000
      7 C2         3.8208    1.4012    1.2226 C.ar      1 RES1    0.0000
      8 H2         4.2203    1.7563    0.4609 H         1 RES1    0.0000
      9 C3         5.3234    6.1980    3.1576 C.ar      1 RES1    0.0000
     10 C4         4.5498    7.5576    5.4597 C.ar      1 RES1    0.0000
     11 C5         2.6925   -0.4195    2.2905 C.ar      1 RES1    0.0000
     12 C6         5.7284    5.4446    1.9400 C.2       1 RES1    0.0000
     13 C7         6.2355    6.4847    4.1523 C.ar      1 RES1    0.0000
     14 H3         7.1210    6.2195    4.0522 H         1 RES1    0.0000
     15 C8         4.0251    6.6084    3.3471 C.ar      1 RES1    0.0000
     16 H4         3.3932    6.4169    2.6925 H         1 RES1    0.0000
     17 C9         4.3567    3.4926    2.5161 C.2       1 RES1    0.0000
     18 H5         4.1513    3.9437    3.3028 H         1 RES1    0.0000
     19 C10        2.6076    0.3346    3.4368 C.ar      1 RES1    0.0000
     20 H6         2.1908   -0.0185    4.1901 H         1 RES1    0.0000
     21 C11        3.2933    0.1245    1.1715 C.ar      1 RES1    0.0000
     22 H7         3.3438   -0.3686    0.3843 H         1 RES1    0.0000
     23 C12        5.1491    4.1459    1.6672 C.2       1 RES1    0.0000
     24 H8         5.3415    3.7440    0.8503 H         1 RES1    0.0000
     25 C13        5.8548    7.1551    5.2906 C.ar      1 RES1    0.0000
     26 H9         6.4830    7.3388    5.9506 H         1 RES1    0.0000
     27 C14        3.1286    1.5993    3.4834 C.ar      1 RES1    0.0000
     28 H10        3.0539    2.0927    4.2679 H         1 RES1    0.0000
     29 C15        3.6278    7.2951    4.4787 C.ar      1 RES1    0.0000
     30 H11        2.7458    7.5767    4.5743 H         1 RES1    0.0000
     31 C16        2.2240   -2.5046    1.2256 C.3       1 RES1    0.0000
     32 H12        1.7882   -2.0755    0.4851 H         1 RES1    0.0000
     33 H13        1.7855   -3.3362    1.4171 H         1 RES1    0.0000
     34 H14        3.1431   -2.6704    1.0035 H         1 RES1    0.0000
     35 C17        2.9624    8.7249    6.8456 C.3       1 RES1    0.0000
     36 H15        2.8124    8.8430    7.7967 H         1 RES1    0.0000
     37 H16        2.3119    8.0852    6.5175 H         1 RES1    0.0000
     38 C18        2.7612   10.0229    6.1549 C.3       1 RES1    0.0000
     39 H17        3.4318   10.6462    6.4447 H         1 RES1    0.0000
     40 H18        1.8913   10.3672    6.3681 H         1 RES1    0.0000
     41 H19        2.8323    9.8960    5.2063 H         1 RES1    0.0000
     42 O4        -0.9707    3.4343    7.1511 O.3       2 RES2    0.0000
     43 N2        -3.2787    6.6919   12.0032 N.2       2 RES2    0.0000
     44 O5        -3.6065    7.6079   13.0114 O.3       2 RES2    0.0000
     45 H20       -4.0623    8.2118   12.6953 H         2 RES2    0.0000
     46 C19       -2.4633    7.1536   11.1153 C.2       2 RES2    0.0000
     47 O6         1.5933   13.9299   10.3487 O.3       2 RES2    0.0000
     48 C20       -2.1515    6.4399    8.7292 C.ar      2 RES2    0.0000
     49 H21       -2.4574    7.2749    8.4529 H         2 RES2    0.0000
     50 C21       -1.8075    5.5102    7.7874 C.ar      2 RES2    0.0000
     51 H22       -1.9018    5.7109    6.8839 H         2 RES2    0.0000
     52 C22       -2.0556    6.1682   10.0882 C.ar      2 RES2    0.0000
     53 C23       -1.3242    4.2775    8.1672 C.ar      2 RES2    0.0000
     54 C24       -1.5901    4.9170   10.4478 C.ar      2 RES2    0.0000
     55 H23       -1.5243    4.7028   11.3510 H         2 RES2    0.0000
     56 C25       -0.2150   10.1843   10.4559 C.ar      2 RES2    0.0000
     57 C26       -0.8226    8.8686   10.4943 C.2       2 RES2    0.0000
     58 H24       -0.3668    8.1935   10.0462 H         2 RES2    0.0000
     59 C27       -1.9596    8.5150   11.0979 C.2       2 RES2    0.0000
     60 H25       -2.4540    9.1750   11.5284 H         2 RES2    0.0000
     61 C28       -0.8309   11.3362   10.9246 C.ar      2 RES2    0.0000
     62 H26       -1.6859   11.2793   11.2846 H         2 RES2    0.0000
     63 C29       -1.2224    3.9795    9.5126 C.ar      2 RES2    0.0000
     64 H27       -0.9056    3.1485    9.7832 H         2 RES2    0.0000
     65 C30        1.0633   12.6710   10.3513 C.ar      2 RES2    0.0000
     66 C31       -0.2066   12.5522   10.8697 C.ar      2 RES2    0.0000
     67 H28       -0.6461   13.3086   11.1876 H         2 RES2    0.0000
     68 C32        1.0642   10.3295    9.9441 C.ar      2 RES2    0.0000
     69 H29        1.5100    9.5764    9.6326 H         2 RES2    0.0000
     70 C33        1.7036   11.5570    9.8815 C.ar      2 RES2    0.0000
     71 H30        2.5603   11.6224    9.5240 H         2 RES2    0.0000
     72 C34        2.9086   14.0991    9.8585 C.3       2 RES2    0.0000
     73 H31        3.5176   13.5861   10.3935 H         2 RES2    0.0000
     74 H32        3.1488   15.0277    9.9019 H         2 RES2    0.0000
     75 H33        2.9516   13.8007    8.9470 H         2 RES2    0.0000
     76 C35       -0.4162    2.1650    7.4852 C.3       2 RES2    0.0000
     77 H34       -1.0778    1.6206    7.9397 H         2 RES2    0.0000
     78 H35        0.3454    2.2796    8.0750 H         2 RES2    0.0000
     79 C36        0.0121    1.5020    6.2136 C.3       2 RES2    0.0000
     80 H36       -0.7366    1.4434    5.6161 H         2 RES2    0.0000
     81 H37        0.3364    0.6196    6.4077 H         2 RES2    0.0000
     82 H38        0.7104    2.0167    5.8038 H         2 RES2    0.0000
@<TRIPOS>BOND
     1    1   11 1
     2    2    3 1
     3    3    4 1
     4    5   10 1
     5    6    7 ar
     6    7    8 1
     7    9   12 1
     8   10   25 ar
     9   11   19 ar
    10   12    2 2
    11   13    9 ar
    12   14   13 1
    13   15    9 ar
    14   16   15 1
    15   17    6 1
    16   18   17 1
    17   19   20 1
    18   21    7 ar
    19   22   21 1
    20   23   12 1
    21   24   23 1
    22   25   13 ar
    23   26   25 1
    24   27    6 ar
    25   28   27 1
    26   29   10 ar
    27   30   29 1
    28   31    1 1
    29   32   31 1
    30   33   31 1
    31   34   31 1
    32   35    5 1
    33   36   35 1
    34   37   35 1
    35   38   35 1
    36   39   38 1
    37   40   38 1
    38   41   38 1
    39   42   53 1
    40   43   44 1
    41   44   45 1
    42   46   43 2
    43   47   65 1
    44   48   49 1
    45   50   48 ar
    46   51   50 1
    47   52   46 1
    48   53   50 ar
    49   54   52 ar
    50   55   54 1
    51   56   57 1
    52   57   58 1
    53   59   46 1
    54   60   59 1
    55   61   56 ar
    56   62   61 1
    57   63   53 ar
    58   64   63 1
    59   65   66 ar
    60   66   61 ar
    61   67   66 1
    62   68   56 ar
    63   69   68 1
    64   70   65 ar
    65   71   70 1
    66   72   47 1
    67   73   72 1
    68   74   72 1
    69   75   72 1
    70   76   42 1
    71   77   76 1
    72   78   76 1
    73   79   76 1
    74   80   79 1
    75   81   79 1
    76   82   79 1
    77   11   21 ar
    78   15   29 ar
    79   17   23 2
    80   19   27 ar
    81   48   52 ar
    82   54   63 ar
    83   57   59 2
    84   68   70 ar
@<TRIPOS>SUBSTRUCTURE
     1 RES1 1
     2 RES2 42

@<TRIPOS>CRYSIN
  10.2117   12.3644   12.8781  93.1000  96.8480  90.2940   2 1

