# MOL2 file generated by ConQuest
# Please check atom types

@<TRIPOS>MOLECULE
LOJGOI
    68    74     1
SMALL
NO_CHARGES
****
Generated from CSD

@<TRIPOS>ATOM
      1 C1        10.9076    7.2398    5.8552 C.ar      1 RES1    0.0000
      2 H1        10.4540    6.9012    5.1175 H         1 RES1    0.0000
      3 C2        12.1892    6.8030    6.1181 C.ar      1 RES1    0.0000
      4 H2        12.5938    6.1744    5.5649 H         1 RES1    0.0000
      5 C3        12.8660    7.3078    7.2097 C.ar      1 RES1    0.0000
      6 H3        13.7353    7.0297    7.3854 H         1 RES1    0.0000
      7 C4        12.2662    8.2122    8.0283 C.ar      1 RES1    0.0000
      8 H4        12.7212    8.5394    8.7722 H         1 RES1    0.0000
      9 C5        10.9842    8.6492    7.7592 C.ar      1 RES1    0.0000
     10 H5        10.5826    9.2732    8.3199 H         1 RES1    0.0000
     11 C6        10.2891    8.1657    6.6627 C.ar      1 RES1    0.0000
     12 C7         8.8860    8.6240    6.3823 C.3       1 RES1    0.0000
     13 H6         8.2890    7.8640    6.4471 H         1 RES1    0.0000
     14 H7         8.6233    9.2639    7.0614 H         1 RES1    0.0000
     15 C8         9.0161   10.5796    4.7612 C.ar      1 RES1    0.0000
     16 C9         9.4238   11.5925    5.5898 C.ar      1 RES1    0.0000
     17 H8         9.5587   11.4443    6.4969 H         1 RES1    0.0000
     18 C10        9.6272   12.8392    5.0328 C.ar      1 RES1    0.0000
     19 H9         9.8959   13.5406    5.5811 H         1 RES1    0.0000
     20 C11        9.4441   13.0694    3.6896 C.ar      1 RES1    0.0000
     21 H10        9.5917   13.9192    3.3394 H         1 RES1    0.0000
     22 C12        9.0386   12.0320    2.8510 C.ar      1 RES1    0.0000
     23 H11        8.9172   12.1804    1.9414 H         1 RES1    0.0000
     24 C13        8.8226   10.7937    3.3855 C.ar      1 RES1    0.0000
     25 C14        8.3648    9.5107    2.7500 C.3       1 RES1    0.0000
     26 C15        8.3367    8.5469    3.9562 C.2       1 RES1    0.0000
     27 C16        7.0597    9.6614    1.9351 C.3       1 RES1    0.0000
     28 H12        7.2337   10.4207    1.3408 H         1 RES1    0.0000
     29 C17        5.7922   10.0470    2.6715 C.ar      1 RES1    0.0000
     30 C18        5.2759    9.3548    3.7668 C.ar      1 RES1    0.0000
     31 H13        5.6820    8.5721    4.0609 H         1 RES1    0.0000
     32 C19        4.1424    9.8481    4.4185 C.ar      1 RES1    0.0000
     33 H14        3.8137    9.4041    5.1661 H         1 RES1    0.0000
     34 C20        3.5146   10.9652    3.9762 C.ar      1 RES1    0.0000
     35 H15        2.7621   11.2830    4.4222 H         1 RES1    0.0000
     36 C21        3.9819   11.6149    2.8896 C.ar      1 RES1    0.0000
     37 H16        3.5400   12.3721    2.5781 H         1 RES1    0.0000
     38 C22        5.1196   11.1613    2.2317 C.ar      1 RES1    0.0000
     39 H17        5.4298   11.6196    1.4841 H         1 RES1    0.0000
     40 C23        7.0581    8.4223    0.9844 C.3       1 RES1    0.0000
     41 C24        6.1119    7.3003    1.3308 C.3       1 RES1    0.0000
     42 H18        6.1765    6.6090    0.6679 H         1 RES1    0.0000
     43 H19        5.2127    7.6350    1.3570 H         1 RES1    0.0000
     44 H20        6.3430    6.9409    2.1906 H         1 RES1    0.0000
     45 C25        8.5495    7.9974    0.9532 C.3       1 RES1    0.0000
     46 H21        8.6229    7.1933    1.5090 H         1 RES1    0.0000
     47 C26       10.6362    8.7895    1.8903 C.3       1 RES1    0.0000
     48 H22       10.7605    7.8967    2.2491 H         1 RES1    0.0000
     49 H23       11.0086    9.4321    2.5158 H         1 RES1    0.0000
     50 C27       11.3083    8.9157    0.5321 C.3       1 RES1    0.0000
     51 H24       11.3325    9.8505    0.2729 H         1 RES1    0.0000
     52 H25       12.2240    8.6025    0.5981 H         1 RES1    0.0000
     53 C28       10.5906    8.1295   -0.5246 C.ar      1 RES1    0.0000
     54 C29       11.2434    7.7916   -1.7121 C.ar      1 RES1    0.0000
     55 H26       12.1112    8.0930   -1.8504 H         1 RES1    0.0000
     56 C30       10.6441    7.0262   -2.6790 C.ar      1 RES1    0.0000
     57 H27       11.1000    6.8240   -3.4640 H         1 RES1    0.0000
     58 C31        9.3680    6.5611   -2.4834 C.ar      1 RES1    0.0000
     59 H28        8.9604    6.0295   -3.1288 H         1 RES1    0.0000
     60 C32        8.6864    6.8853   -1.3196 C.ar      1 RES1    0.0000
     61 H29        7.8264    6.5576   -1.1875 H         1 RES1    0.0000
     62 C33        9.2677    7.6922   -0.3464 C.ar      1 RES1    0.0000
     63 N1         8.7272    9.2398    5.0665 N.am      1 RES1    0.0000
     64 N2         6.6555    8.9895   -0.3925 N.pl3     1 RES1    0.0000
     65 N3         9.2336    9.0547    1.6660 N.3       1 RES1    0.0000
     66 O1         8.0580    7.3704    3.9325 O.2       1 RES1    0.0000
     67 O2         5.6792    8.5305   -0.9470 O.2       1 RES1    0.0000
     68 O3         7.3278    9.8677   -0.8722 O.2       1 RES1    0.0000
@<TRIPOS>BOND
     1    1    2 1
     2    3    1 ar
     3    4    3 1
     4    5    3 ar
     5    6    5 1
     6    7    5 ar
     7    8    7 1
     8    9    7 ar
     9   10    9 1
    10   11    1 ar
    11   12   11 1
    12   13   12 1
    13   14   12 1
    14   15   16 ar
    15   16   17 1
    16   18   16 ar
    17   19   18 1
    18   20   18 ar
    19   21   20 1
    20   22   20 ar
    21   23   22 1
    22   24   15 ar
    23   25   24 1
    24   26   25 1
    25   27   25 1
    26   28   27 1
    27   29   27 1
    28   30   29 ar
    29   31   30 1
    30   32   30 ar
    31   33   32 1
    32   34   32 ar
    33   35   34 1
    34   36   34 ar
    35   37   36 1
    36   38   29 ar
    37   39   38 1
    38   40   27 1
    39   41   40 1
    40   42   41 1
    41   43   41 1
    42   44   41 1
    43   45   40 1
    44   46   45 1
    45   47   48 1
    46   49   47 1
    47   50   47 1
    48   51   50 1
    49   52   50 1
    50   53   50 1
    51   54   53 ar
    52   55   54 1
    53   56   54 ar
    54   57   56 1
    55   58   56 ar
    56   59   58 1
    57   60   58 ar
    58   61   60 1
    59   62   45 1
    60   63   12 1
    61   64   40 1
    62   65   25 1
    63   66   26 2
    64   67   64 2
    65   68   64 2
    66    9   11 ar
    67   15   63 1
    68   22   24 ar
    69   26   63 1
    70   36   38 ar
    71   45   65 1
    72   47   65 1
    73   53   62 ar
    74   60   62 ar
@<TRIPOS>SUBSTRUCTURE
     1 RES1 1

@<TRIPOS>CRYSIN
   9.2205   23.3700   12.7620  90.0000 102.4780  90.0000  14 2

