# MOL2 file generated by ConQuest
# Please check atom types

@<TRIPOS>MOLECULE
LOJJEA
    39    32     2
SMALL
NO_CHARGES
****
Generated from CSD

@<TRIPOS>ATOM
      1 C1         4.2994    4.8502   -0.4310 C.ar      1 RES1    0.0000
      2 C2         3.5858    3.9656   -1.2162 C.ar      1 RES1    0.0000
      3 H1         3.7263    3.0498   -1.1378 H         1 RES1    0.0000
      4 C3         2.6663    4.4480   -2.1138 C.ar      1 RES1    0.0000
      5 C4         2.4117    5.7938   -2.2731 C.ar      1 RES1    0.0000
      6 H2         1.7699    6.0949   -2.8747 H         1 RES1    0.0000
      7 C5         3.1365    6.6662   -1.5162 C.ar      1 RES1    0.0000
      8 H3         2.9949    7.5802   -1.6108 H         1 RES1    0.0000
      9 C6         4.0677    6.2167   -0.6194 C.ar      1 RES1    0.0000
     10 H4         4.5584    6.8334   -0.1245 H         1 RES1    0.0000
     11 C7         5.2763    4.4462    0.5830 C.2       1 RES1    0.0000
     12 H5         5.8867    5.1035    0.8313 H         1 RES1    0.0000
     13 C8         5.4206    3.2707    1.2049 C.2       1 RES1    0.0000
     14 C9         6.4696    3.0180    2.2294 C.2       1 RES1    0.0000
     15 C10        7.3114    4.1381    2.7235 C.3       1 RES1    0.0000
     16 H6         7.9437    3.8037    3.3631 H         1 RES1    0.0000
     17 H7         6.7521    4.7975    3.1407 H         1 RES1    0.0000
     18 H8         7.7797    4.5351    1.9860 H         1 RES1    0.0000
     19 C11        4.5731    2.0628    0.9348 C.2       1 RES1    0.0000
     20 C12        2.6260    0.9051    1.3423 C.3       1 RES1    0.0000
     21 H9         2.9876    0.0780    1.6941 H         1 RES1    0.0000
     22 H10        2.5389    0.8248    0.3793 H         1 RES1    0.0000
     23 C13        1.3058    1.2065    1.9634 C.3       1 RES1    0.0000
     24 H11        1.4222    1.3423    2.9071 H         1 RES1    0.0000
     25 H12        0.7074    0.4715    1.8154 H         1 RES1    0.0000
     26 H13        0.9404    2.0017    1.5679 H         1 RES1    0.0000
     27 N1         1.9349    3.4974   -2.9483 N.pl3     1 RES1    0.0000
     28 O1         2.2182    2.3231   -2.8602 O.2       1 RES1    0.0000
     29 O2         1.0715    3.9051   -3.6979 O.2       1 RES1    0.0000
     30 O3         6.5999    1.8878    2.6549 O.2       1 RES1    0.0000
     31 O4         4.8434    1.2132    0.1392 O.2       1 RES1    0.0000
     32 O5         3.4966    2.0557    1.6969 O.3       1 RES1    0.0000
     33 C14        1.4803    1.2159    0.9429 Du        2 SUP2    0.0000
     34 H14        1.0131    2.0064    1.2243 Du        2 SUP2    0.0000
     35 H15        0.8717    0.4715    0.9364 Du        2 SUP2    0.0000
     36 H16        1.8304    1.3494    0.0598 Du        2 SUP2    0.0000
     37 C15        2.6055    0.9335    1.8930 Du        2 SUP2    0.0000
     38 H17        2.2894    0.8957    2.8084 Du        2 SUP2    0.0000
     39 H18        3.0445    0.0969    1.6747 Du        2 SUP2    0.0000
@<TRIPOS>BOND
     1    1    2 ar
     2    2    3 1
     3    4    2 ar
     4    5    4 ar
     5    6    5 1
     6    7    5 ar
     7    8    7 1
     8    9    1 ar
     9   10    9 1
    10   11    1 1
    11   12   11 1
    12   13   11 2
    13   14   13 1
    14   15   14 1
    15   16   15 1
    16   17   15 1
    17   18   15 1
    18   19   13 1
    19   20   21 1
    20   22   20 1
    21   23   20 1
    22   24   23 1
    23   25   23 1
    24   26   23 1
    25   27    4 1
    26   28   27 2
    27   29   27 2
    28   30   14 2
    29   31   19 2
    30   32   19 1
    31    7    9 ar
    32   20   32 1
@<TRIPOS>SUBSTRUCTURE
     1 RES1 1
     2 SUP2 33

@<TRIPOS>CRYSIN
  27.6055   11.8164    8.2934  90.0000 102.8290  90.0000  15 1

