# MOL2 file generated by ConQuest
# Please check atom types

@<TRIPOS>MOLECULE
LOJKAX
    36    36     2
SMALL
NO_CHARGES
****
Generated from CSD

@<TRIPOS>ATOM
      1 O1         9.4244    2.8975   14.6571 O.2       1 RES1    0.0000
      2 O2         8.6360    2.1744   12.8726 O.2       1 RES1    0.0000
      3 N1        11.2512   -3.1649   11.8809 N.1       1 RES1    0.0000
      4 N2         9.4873    2.1597   13.7519 N.pl3     1 RES1    0.0000
      5 C1         8.9409   -0.5717   12.7086 C.3       1 RES1    0.0000
      6 H1         8.3013    0.1263   12.8635 H         1 RES1    0.0000
      7 H2         8.7094   -1.3413   13.2325 H         1 RES1    0.0000
      8 H3         8.9390   -0.8066   11.7776 H         1 RES1    0.0000
      9 C2        10.2944   -0.0975   13.0974 C.ar      1 RES1    0.0000
     10 C3        10.5806    1.1655   13.6274 C.ar      1 RES1    0.0000
     11 C4        11.8476    1.5703   14.0481 C.ar      1 RES1    0.0000
     12 H4        11.9973    2.4101   14.4187 H         1 RES1    0.0000
     13 C5        12.8782    0.6426   13.8810 C.ar      1 RES1    0.0000
     14 H5        13.7404    0.8826   14.1377 H         1 RES1    0.0000
     15 C6        12.6825   -0.5451   13.3814 C.ar      1 RES1    0.0000
     16 H6        13.3971   -1.1360   13.3039 H         1 RES1    0.0000
     17 C7        11.4183   -0.9365   12.9607 C.ar      1 RES1    0.0000
     18 C8        11.2509   -2.2320   12.3927 C.1       1 RES1    0.0000
     19 O3        -4.1700   -0.9639    4.1506 O.2       2 RES2    0.0000
     20 O4        -4.5362    0.1514    5.8835 O.2       2 RES2    0.0000
     21 N3         0.7831    2.7203    7.3020 N.1       2 RES2    0.0000
     22 N4        -3.7964   -0.2991    5.0543 N.pl3     2 RES2    0.0000
     23 C9        -2.5132    2.1094    6.1827 C.3       2 RES2    0.0000
     24 H7        -1.9274    2.7395    6.6079 H         2 RES2    0.0000
     25 H8        -3.2521    1.9167    6.7659 H         2 RES2    0.0000
     26 H9        -2.8426    2.4817    5.3626 H         2 RES2    0.0000
     27 C10       -1.7612    0.8405    5.8926 C.ar      2 RES2    0.0000
     28 C11       -2.3021   -0.2888    5.3201 C.ar      2 RES2    0.0000
     29 C12       -1.5799   -1.3952    4.9510 C.ar      2 RES2    0.0000
     30 H10       -1.9992   -2.1050    4.5212 H         2 RES2    0.0000
     31 C13       -0.2231   -1.4499    5.2168 C.ar      2 RES2    0.0000
     32 H11        0.2771   -2.2040    5.0042 H         2 RES2    0.0000
     33 C14        0.3782   -0.3265    5.8227 C.ar      2 RES2    0.0000
     34 H12        1.2909   -0.3294    5.9989 H         2 RES2    0.0000
     35 C15       -0.3730    0.7630    6.1493 C.ar      2 RES2    0.0000
     36 C16        0.2593    1.8916    6.7476 C.1       2 RES2    0.0000
@<TRIPOS>BOND
     1    1    4 2
     2    2    4 2
     3    3   18 3
     4    4   10 1
     5    5    6 1
     6    7    5 1
     7    8    5 1
     8    9    5 1
     9   10    9 ar
    10   11   10 ar
    11   12   11 1
    12   13   11 ar
    13   14   13 1
    14   15   13 ar
    15   16   15 1
    16   17    9 ar
    17   18   17 1
    18   19   22 2
    19   20   22 2
    20   21   36 3
    21   22   28 1
    22   23   24 1
    23   25   23 1
    24   26   23 1
    25   27   23 1
    26   28   27 ar
    27   29   28 ar
    28   30   29 1
    29   31   29 ar
    30   32   31 1
    31   33   31 ar
    32   34   33 1
    33   35   27 ar
    34   36   35 1
    35   15   17 ar
    36   33   35 ar
@<TRIPOS>SUBSTRUCTURE
     1 RES1 1
     2 RES2 19

@<TRIPOS>CRYSIN
  14.0250    7.3860   15.5150  90.0000 101.8000  90.0000 231 1

