# MOL2 file generated by ConQuest
# Please check atom types

@<TRIPOS>MOLECULE
LOJNOO
    43    46     1
SMALL
NO_CHARGES
****
Generated from CSD

@<TRIPOS>ATOM
      1 C1         2.5092    5.2031    4.2067 C.2       1 RES1    0.0000
      2 O1         2.7334    6.2554    4.7543 O.2       1 RES1    0.0000
      3 O2         2.2030    5.1313    2.9016 O.3       1 RES1    0.0000
      4 C2         2.0053    3.7306    2.5231 C.3       1 RES1    0.0000
      5 H1         2.8145    3.3681    2.0822 H         1 RES1    0.0000
      6 H2         1.2367    3.6377    1.9074 H         1 RES1    0.0000
      7 C3         1.7369    3.0087    3.8310 C.3       1 RES1    0.0000
      8 H3         2.0434    2.0686    3.7903 H         1 RES1    0.0000
      9 H4         0.7738    3.0271    4.0595 H         1 RES1    0.0000
     10 C4         2.5537    3.8111    4.8288 C.3       1 RES1    0.0000
     11 N1         3.9665    3.4189    4.8429 N.3       1 RES1    0.0000
     12 H5         4.4137    3.8371    4.1557 H         1 RES1    0.0000
     13 C5         4.5617    3.8015    6.1321 C.3       1 RES1    0.0000
     14 H6         4.9570    2.9829    6.5491 H         1 RES1    0.0000
     15 C6         5.6629    4.8574    6.0139 C.ar      1 RES1    0.0000
     16 C7         6.4159    4.9647    4.8492 C.ar      1 RES1    0.0000
     17 H7         6.2006    4.4250    4.0980 H         1 RES1    0.0000
     18 C8         7.4806    5.8525    4.7742 C.ar      1 RES1    0.0000
     19 H8         7.9855    5.9148    3.9721 H         1 RES1    0.0000
     20 C9         7.8134    6.6489    5.8564 C.ar      1 RES1    0.0000
     21 H9         8.5518    7.2448    5.8061 H         1 RES1    0.0000
     22 C10        7.0601    6.5665    7.0120 C.ar      1 RES1    0.0000
     23 H10        7.2695    7.1213    7.7537 H         1 RES1    0.0000
     24 C11        5.9973    5.6746    7.0912 C.ar      1 RES1    0.0000
     25 H11        5.4899    5.6214    7.8935 H         1 RES1    0.0000
     26 C12        3.3814    4.2661    7.0066 C.3       1 RES1    0.0000
     27 H12        3.3972    5.2656    7.0386 H         1 RES1    0.0000
     28 N2         3.4323    3.7565    8.4280 N.pl3     1 RES1    0.0000
     29 O3         2.4872    4.0809    9.1434 O.2       1 RES1    0.0000
     30 O4         4.3756    3.0800    8.8028 O.2       1 RES1    0.0000
     31 C13        2.0755    3.8348    6.3043 C.3       1 RES1    0.0000
     32 H13        1.3937    4.5576    6.4127 H         1 RES1    0.0000
     33 C14        1.4767    2.5204    6.7629 C.ar      1 RES1    0.0000
     34 C15        0.1178    2.4742    7.0468 C.ar      1 RES1    0.0000
     35 H14       -0.4067    3.2638    6.9739 H         1 RES1    0.0000
     36 C16       -0.4796    1.2813    7.4371 C.ar      1 RES1    0.0000
     37 H15       -1.4124    1.2575    7.6191 H         1 RES1    0.0000
     38 C17        0.2699    0.1359    7.5622 C.ar      1 RES1    0.0000
     39 H16       -0.1413   -0.6775    7.8306 H         1 RES1    0.0000
     40 C18        1.6261    0.1727    7.2956 C.ar      1 RES1    0.0000
     41 H17        2.1487   -0.6152    7.3865 H         1 RES1    0.0000
     42 C19        2.2241    1.3566    6.8961 C.ar      1 RES1    0.0000
     43 H18        3.1556    1.3731    6.7117 H         1 RES1    0.0000
@<TRIPOS>BOND
     1    1    2 2
     2    3    1 1
     3    4    3 1
     4    5    4 1
     5    6    4 1
     6    7    4 1
     7    8    7 1
     8    9    7 1
     9   10    1 1
    10   11   10 1
    11   12   11 1
    12   13   11 1
    13   14   13 1
    14   15   13 1
    15   16   15 ar
    16   17   16 1
    17   18   16 ar
    18   19   18 1
    19   20   18 ar
    20   21   20 1
    21   22   20 ar
    22   23   22 1
    23   24   15 ar
    24   25   24 1
    25   26   13 1
    26   27   26 1
    27   28   26 1
    28   29   28 2
    29   30   28 2
    30   31   10 1
    31   32   31 1
    32   33   31 1
    33   34   33 ar
    34   35   34 1
    35   36   34 ar
    36   37   36 1
    37   38   36 ar
    38   39   38 1
    39   40   38 ar
    40   41   40 1
    41   42   33 ar
    42   43   42 1
    43    7   10 1
    44   22   24 ar
    45   26   31 1
    46   40   42 ar
@<TRIPOS>SUBSTRUCTURE
     1 RES1 1

@<TRIPOS>CRYSIN
   8.2929   11.3288   17.6885  90.0000  98.7440  90.0000  14 1

