# MOL2 file generated by ConQuest
# Please check atom types

@<TRIPOS>MOLECULE
LOJWIR
    47    50     1
SMALL
NO_CHARGES
****
Generated from CSD

@<TRIPOS>ATOM
      1 O1        -9.1104   -0.7137   -4.2012 O.3       1 RES1    0.0000
      2 O2        -6.2427    1.5923   -4.7748 O.2       1 RES1    0.0000
      3 O3       -10.1290    3.1052  -10.2363 O.2       1 RES1    0.0000
      4 O4       -10.9746    4.2231   -8.6120 O.2       1 RES1    0.0000
      5 N1       -10.3957    3.2416   -9.0574 N.pl3     1 RES1    0.0000
      6 C1        -9.9593    2.1950   -8.1267 C.ar      1 RES1    0.0000
      7 C2        -9.0887    0.2545   -6.3922 C.ar      1 RES1    0.0000
      8 C3        -6.1165    0.9662   -7.0319 C.ar      1 RES1    0.0000
      9 C4        -9.6006    1.4477   -5.9054 C.ar      1 RES1    0.0000
     10 C5        -8.6812   -1.1952   -1.8986 C.ar      1 RES1    0.0000
     11 C6        -8.4974   -0.7799   -5.4808 C.3       1 RES1    0.0000
     12 C7        -6.9522   -0.6506   -5.1967 C.3       1 RES1    0.0000
     13 C8        -9.0717    0.0265   -7.7654 C.ar      1 RES1    0.0000
     14 C9        -7.7638   -1.3347   -0.8700 C.ar      1 RES1    0.0000
     15 C10       -6.4033    0.7045   -5.5966 C.2       1 RES1    0.0000
     16 C11      -10.0558    2.4312   -6.7686 C.ar      1 RES1    0.0000
     17 C12       -5.4679    0.2352   -9.2242 C.ar      1 RES1    0.0000
     18 C13       -6.2633    2.2561   -7.5366 C.ar      1 RES1    0.0000
     19 C14       -5.7212   -0.0438   -7.8923 C.ar      1 RES1    0.0000
     20 C15       -9.4852    1.0100   -8.6424 C.ar      1 RES1    0.0000
     21 C16       -9.9930   -0.8695   -1.5967 C.ar      1 RES1    0.0000
     22 C17       -6.0561    2.5117   -8.8809 C.ar      1 RES1    0.0000
     23 C18       -8.2491   -1.4294   -3.3133 C.3       1 RES1    0.0000
     24 C19       -6.8565   -0.9448   -3.6938 C.3       1 RES1    0.0000
     25 C20      -10.3717   -0.6536   -0.2895 C.ar      1 RES1    0.0000
     26 C21       -5.6378    1.5048   -9.7151 C.ar      1 RES1    0.0000
     27 C22       -8.1613   -1.1219    0.4495 C.ar      1 RES1    0.0000
     28 C23       -9.4560   -0.7788    0.7280 C.ar      1 RES1    0.0000
     29 H1        -9.6323    1.5964   -4.8465 H         1 RES1    0.0000
     30 H2        -8.6923   -1.8102   -5.9013 H         1 RES1    0.0000
     31 H3        -6.4520   -1.4233   -5.7786 H         1 RES1    0.0000
     32 H4        -8.7313   -1.0171   -8.1515 H         1 RES1    0.0000
     33 H5        -6.6719   -1.5994   -1.1086 H         1 RES1    0.0000
     34 H6       -10.3465    3.4524   -6.3728 H         1 RES1    0.0000
     35 H7        -4.9607   -0.5029   -9.7992 H         1 RES1    0.0000
     36 H8        -6.5344    3.1052   -6.8720 H         1 RES1    0.0000
     37 H9        -5.6044   -1.0812   -7.4207 H         1 RES1    0.0000
     38 H10       -9.4478    0.8562   -9.7027 H         1 RES1    0.0000
     39 H11      -10.6547   -0.6618   -2.4681 H         1 RES1    0.0000
     40 H12       -6.0839    3.5145   -9.2628 H         1 RES1    0.0000
     41 H13       -8.3128   -2.4964   -3.5215 H         1 RES1    0.0000
     42 H14       -6.1179   -1.7033   -3.5077 H         1 RES1    0.0000
     43 H15       -6.7265    0.0988   -3.2733 H         1 RES1    0.0000
     44 H16      -11.3414   -0.4887   -0.0758 H         1 RES1    0.0000
     45 H17       -5.4145    1.6473  -10.8319 H         1 RES1    0.0000
     46 H18       -7.3639   -1.3663    1.2285 H         1 RES1    0.0000
     47 H19       -9.7263   -0.6811    1.8269 H         1 RES1    0.0000
@<TRIPOS>BOND
     1    1   11 1
     2    2   15 2
     3    3    5 2
     4    4    5 2
     5    5    6 1
     6    6   16 ar
     7    7    9 ar
     8    8   15 1
     9    9   16 ar
    10   10   14 ar
    11   11    7 1
    12   12   11 1
    13   13    7 ar
    14   14   27 ar
    15   15   12 1
    16   16   34 1
    17   17   19 ar
    18   18    8 ar
    19   19    8 ar
    20   20    6 ar
    21   21   10 ar
    22   22   18 ar
    23   23    1 1
    24   24   12 1
    25   25   21 ar
    26   26   17 ar
    27   27   28 ar
    28   28   25 ar
    29   29    9 1
    30   30   11 1
    31   31   12 1
    32   32   13 1
    33   33   14 1
    34   35   17 1
    35   36   18 1
    36   37   19 1
    37   38   20 1
    38   39   21 1
    39   40   22 1
    40   41   23 1
    41   42   24 1
    42   43   24 1
    43   44   25 1
    44   45   26 1
    45   46   27 1
    46   47   28 1
    47   10   23 1
    48   13   20 ar
    49   22   26 ar
    50   23   24 1
@<TRIPOS>SUBSTRUCTURE
     1 RES1 1

@<TRIPOS>CRYSIN
  13.2420   10.1810   14.5470  90.0000 108.5890  90.0000  14 1

