# MOL2 file generated by ConQuest
# Please check atom types

@<TRIPOS>MOLECULE
LOKGUP
    30    31     1
SMALL
NO_CHARGES
****
Generated from CSD

@<TRIPOS>ATOM
      1 N1         3.2336    2.0683    4.1751 N.pl3     1 RES1    0.0000
      2 O1         2.1471    2.6006    4.3295 O.2       1 RES1    0.0000
      3 O2         3.4243    0.8800    4.3082 O.2       1 RES1    0.0000
      4 O3         3.3387    3.0563    1.6711 O.3       1 RES1    0.0000
      5 H1         3.3531    2.8007    0.8919 H         1 RES1    0.0000
      6 O4         5.9476    4.4450    0.9956 O.2       1 RES1    0.0000
      7 C1         4.3980    2.9214    3.7768 C.3       1 RES1    0.0000
      8 H2         5.2006    2.5818    4.2243 H         1 RES1    0.0000
      9 C2         4.6204    2.8564    2.2601 C.3       1 RES1    0.0000
     10 C3         5.4024    4.1658    2.0287 C.2       1 RES1    0.0000
     11 C4         5.3212    5.0282    3.2510 C.3       1 RES1    0.0000
     12 H3         5.0800    5.9370    3.0135 H         1 RES1    0.0000
     13 H4         6.1722    5.0428    3.7160 H         1 RES1    0.0000
     14 C5         4.2369    4.3914    4.1263 C.3       1 RES1    0.0000
     15 H5         3.3659    4.6872    3.7871 H         1 RES1    0.0000
     16 C6         5.3329    1.6464    1.7331 C.3       1 RES1    0.0000
     17 H6         4.8066    0.8637    1.9085 H         1 RES1    0.0000
     18 H7         6.1855    1.5642    2.1674 H         1 RES1    0.0000
     19 H8         5.4641    1.7393    0.7861 H         1 RES1    0.0000
     20 C7         4.2991    4.7258    5.5868 C.ar      1 RES1    0.0000
     21 C8         3.3026    5.4848    6.1782 C.ar      1 RES1    0.0000
     22 H9         2.5756    5.7619    5.6688 H         1 RES1    0.0000
     23 C9         3.3720    5.8335    7.5026 C.ar      1 RES1    0.0000
     24 H10        2.6995    6.3562    7.8772 H         1 RES1    0.0000
     25 C10        4.4297    5.4182    8.2865 C.ar      1 RES1    0.0000
     26 H11        4.4747    5.6504    9.1859 H         1 RES1    0.0000
     27 C11        5.4079    4.6580    7.7116 C.ar      1 RES1    0.0000
     28 H12        6.1216    4.3635    8.2308 H         1 RES1    0.0000
     29 C12        5.3601    4.3184    6.3815 C.ar      1 RES1    0.0000
     30 H13        6.0449    3.8103    6.0097 H         1 RES1    0.0000
@<TRIPOS>BOND
     1    1    2 2
     2    3    1 2
     3    4    5 1
     4    6   10 2
     5    7    1 1
     6    8    7 1
     7    9    4 1
     8   10    9 1
     9   11   10 1
    10   12   11 1
    11   13   11 1
    12   14    7 1
    13   15   14 1
    14   16    9 1
    15   17   16 1
    16   18   16 1
    17   19   16 1
    18   20   14 1
    19   21   20 ar
    20   22   21 1
    21   23   21 ar
    22   24   23 1
    23   25   23 ar
    24   26   25 1
    25   27   25 ar
    26   28   27 1
    27   29   20 ar
    28   30   29 1
    29    7    9 1
    30   11   14 1
    31   27   29 ar
@<TRIPOS>SUBSTRUCTURE
     1 RES1 1

@<TRIPOS>CRYSIN
   5.5580   13.2670   15.7860  90.0000  90.0000  90.0000  19 1

