# MOL2 file generated by ConQuest
# Please check atom types

@<TRIPOS>MOLECULE
LOKYUG
   105   107     1
SMALL
NO_CHARGES
****
Generated from CSD

@<TRIPOS>ATOM
      1 O1        -0.5177   10.6712    2.9482 O.2       1 RES1    0.0000
      2 O2        -1.6439    9.0517    2.0450 O.2       1 RES1    0.0000
      3 O3         0.2147    7.2395    1.3638 O.3       1 RES1    0.0000
      4 O4        -0.7382    4.6249    1.5488 O.2       1 RES1    0.0000
      5 O5         1.2855    3.9273    0.7894 O.3       1 RES1    0.0000
      6 O6         2.9971    4.6553    4.6530 O.2       1 RES1    0.0000
      7 O7         4.0460    7.0479    8.6435 O.3       1 RES1    0.0000
      8 O8         3.1513    9.4376    8.1987 O.2       1 RES1    0.0000
      9 O9         4.5090   10.3198    9.7876 O.3       1 RES1    0.0000
     10 O10        7.6821    2.2548    9.1705 O.2       1 RES1    0.0000
     11 O11        8.2539    5.5371   12.5832 O.3       1 RES1    0.0000
     12 O12        7.4012    7.9440   11.8355 O.2       1 RES1    0.0000
     13 O13        8.8582    8.9326   13.2599 O.3       1 RES1    0.0000
     14 O14       11.2636    2.8792   15.8765 O.2       1 RES1    0.0000
     15 O15       11.7726    1.1002   14.6022 O.3       1 RES1    0.0000
     16 N1        -0.7184    9.4750    2.7278 N.pl3     1 RES1    0.0000
     17 N2         3.3984    6.0651    6.3908 N.am      1 RES1    0.0000
     18 H1         3.1954    6.8892    6.7378 H         1 RES1    0.0000
     19 N3         7.7350    3.9662   10.6550 N.am      1 RES1    0.0000
     20 H2         7.3958    4.7925   10.8168 H         1 RES1    0.0000
     21 C1         0.1986    8.5184    3.3472 C.ar      1 RES1    0.0000
     22 C2         0.6403    8.7901    4.6321 C.ar      1 RES1    0.0000
     23 H3         0.3546    9.5830    5.0716 H         1 RES1    0.0000
     24 C3         1.4851    7.9250    5.2732 C.ar      1 RES1    0.0000
     25 H4         1.7835    8.1103    6.1565 H         1 RES1    0.0000
     26 C4         1.9034    6.7682    4.6154 C.ar      1 RES1    0.0000
     27 C5         1.4731    6.5146    3.3169 C.ar      1 RES1    0.0000
     28 H5         1.7707    5.7283    2.8742 H         1 RES1    0.0000
     29 C6         0.6214    7.3794    2.6566 C.ar      1 RES1    0.0000
     30 C7         0.8231    6.1897    0.6038 C.3       1 RES1    0.0000
     31 H6         1.8063    6.2355    0.7092 H         1 RES1    0.0000
     32 H7         0.6114    6.3147   -0.3546 H         1 RES1    0.0000
     33 C8         0.3345    4.8308    1.0524 C.2       1 RES1    0.0000
     34 C9         1.1219    2.4941    1.1377 C.3       1 RES1    0.0000
     35 C10       -0.1270    1.9283    0.4882 C.3       1 RES1    0.0000
     36 H8        -0.9195    2.3359    0.8938 H         1 RES1    0.0000
     37 H9        -0.1536    0.9579    0.6218 H         1 RES1    0.0000
     38 H10       -0.1132    2.1253   -0.4712 H         1 RES1    0.0000
     39 C11        2.3700    1.8831    0.5352 C.3       1 RES1    0.0000
     40 H11        3.1618    2.2661    0.9667 H         1 RES1    0.0000
     41 H12        2.3960    2.0739   -0.4259 H         1 RES1    0.0000
     42 H13        2.3590    0.9134    0.6752 H         1 RES1    0.0000
     43 C12        1.1068    2.3677    2.6454 C.3       1 RES1    0.0000
     44 H14        1.9345    2.7434    3.0119 H         1 RES1    0.0000
     45 H15        1.0402    1.4220    2.8937 H         1 RES1    0.0000
     46 H16        0.3384    2.8560    3.0070 H         1 RES1    0.0000
     47 C13        2.8106    5.7338    5.2112 C.2       1 RES1    0.0000
     48 C14        4.3183    5.3191    7.1397 C.ar      1 RES1    0.0000
     49 C15        4.8560    4.1033    6.7699 C.ar      1 RES1    0.0000
     50 H17        4.5745    3.6775    5.9687 H         1 RES1    0.0000
     51 C16        5.8092    3.5106    7.5792 C.ar      1 RES1    0.0000
     52 H18        6.1705    2.6692    7.3240 H         1 RES1    0.0000
     53 C17        6.2528    4.1028    8.7480 C.ar      1 RES1    0.0000
     54 C18        5.6891    5.3187    9.1326 C.ar      1 RES1    0.0000
     55 H19        5.9686    5.7406    9.9375 H         1 RES1    0.0000
     56 C19        4.7343    5.9027    8.3492 C.ar      1 RES1    0.0000
     57 C20        4.6292    8.0397    9.4771 C.3       1 RES1    0.0000
     58 H20        5.6096    8.0783    9.3432 H         1 RES1    0.0000
     59 H21        4.4442    7.8493   10.4314 H         1 RES1    0.0000
     60 C21        3.9827    9.3329    9.0555 C.2       1 RES1    0.0000
     61 C22        4.1878   11.7298    9.5021 C.3       1 RES1    0.0000
     62 C23        5.1426   12.4636   10.4178 C.3       1 RES1    0.0000
     63 H22        4.9373   12.2425   11.3495 H         1 RES1    0.0000
     64 H23        5.0474   13.4304   10.2824 H         1 RES1    0.0000
     65 H24        6.0627   12.1943   10.2128 H         1 RES1    0.0000
     66 C24        2.7443   11.9968    9.8742 C.3       1 RES1    0.0000
     67 H25        2.6068   11.7874   10.8216 H         1 RES1    0.0000
     68 H26        2.1566   11.4344    9.3270 H         1 RES1    0.0000
     69 H27        2.5344   12.9408    9.7140 H         1 RES1    0.0000
     70 C25        4.4780   12.0410    8.0468 C.3       1 RES1    0.0000
     71 H28        5.4216   11.8590    7.8551 H         1 RES1    0.0000
     72 H29        4.2867   12.9863    7.8713 H         1 RES1    0.0000
     73 H30        3.9144   11.4815    7.4730 H         1 RES1    0.0000
     74 C26        7.2798    3.3634    9.5273 C.2       1 RES1    0.0000
     75 C27        8.6052    3.4559   11.6287 C.ar      1 RES1    0.0000
     76 C28        9.1962    2.2051   11.6028 C.ar      1 RES1    0.0000
     77 H31        9.0368    1.6158   10.8751 H         1 RES1    0.0000
     78 C29       10.0234    1.8176   12.6500 C.ar      1 RES1    0.0000
     79 H32       10.4363    0.9618   12.6271 H         1 RES1    0.0000
     80 C30       10.2546    2.6562   13.7216 C.ar      1 RES1    0.0000
     81 C31        9.6732    3.9269   13.7435 C.ar      1 RES1    0.0000
     82 H33        9.8296    4.5119   14.4747 H         1 RES1    0.0000
     83 C32        8.8769    4.3207   12.7018 C.ar      1 RES1    0.0000
     84 C33        8.7410    6.6283   13.3445 C.3       1 RES1    0.0000
     85 H34        9.7313    6.6263   13.3526 H         1 RES1    0.0000
     86 H35        8.4194    6.5656   14.2788 H         1 RES1    0.0000
     87 C34        8.2286    7.8877   12.7003 C.2       1 RES1    0.0000
     88 C35        8.6873   10.3186   12.7674 C.3       1 RES1    0.0000
     89 C36        9.0085   10.3910   11.2974 C.3       1 RES1    0.0000
     90 H36        8.3338    9.8921   10.7909 H         1 RES1    0.0000
     91 H37        9.8933   10.0000   11.1374 H         1 RES1    0.0000
     92 H38        9.0083   11.3279   11.0095 H         1 RES1    0.0000
     93 C37        7.2989   10.7955   13.0582 C.3       1 RES1    0.0000
     94 H39        6.6581   10.2779   12.5267 H         1 RES1    0.0000
     95 H40        7.2246   11.7453   12.8263 H         1 RES1    0.0000
     96 H41        7.1044   10.6761   14.0116 H         1 RES1    0.0000
     97 C38        9.7061   11.0889   13.5712 C.3       1 RES1    0.0000
     98 H42        9.4884   11.0212   14.5249 H         1 RES1    0.0000
     99 H43        9.6932   12.0307   13.2991 H         1 RES1    0.0000
    100 H44       10.5980   10.7154   13.4125 H         1 RES1    0.0000
    101 C39       11.1237    2.2515   14.8462 C.2       1 RES1    0.0000
    102 C40       12.6949    0.6754   15.6257 C.3       1 RES1    0.0000
    103 H45       13.1150   -0.1689   15.3572 H         1 RES1    0.0000
    104 H46       12.2103    0.5460   16.4681 H         1 RES1    0.0000
    105 H47       13.3856    1.3596   15.7475 H         1 RES1    0.0000
@<TRIPOS>BOND
     1    1   16 2
     2    2   16 2
     3    3   29 1
     4    4   33 2
     5    5   33 1
     6    6   47 2
     7    7   56 1
     8    8   60 2
     9    9   60 1
    10   10   74 2
    11   11   83 1
    12   12   87 2
    13   13   87 1
    14   14  101 2
    15   15  101 1
    16   16   21 1
    17   17   18 1
    18   19   20 1
    19   21   22 ar
    20   22   23 1
    21   24   22 ar
    22   25   24 1
    23   26   24 ar
    24   27   26 ar
    25   28   27 1
    26   29   21 ar
    27   30    3 1
    28   31   30 1
    29   32   30 1
    30   33   30 1
    31   34    5 1
    32   35   34 1
    33   36   35 1
    34   37   35 1
    35   38   35 1
    36   39   34 1
    37   40   39 1
    38   41   39 1
    39   42   39 1
    40   43   34 1
    41   44   43 1
    42   45   43 1
    43   46   43 1
    44   47   17 1
    45   48   17 1
    46   49   48 ar
    47   50   49 1
    48   51   49 ar
    49   52   51 1
    50   53   51 ar
    51   54   53 ar
    52   55   54 1
    53   56   48 ar
    54   57    7 1
    55   58   57 1
    56   59   57 1
    57   60   57 1
    58   61    9 1
    59   62   61 1
    60   63   62 1
    61   64   62 1
    62   65   62 1
    63   66   61 1
    64   67   66 1
    65   68   66 1
    66   69   66 1
    67   70   61 1
    68   71   70 1
    69   72   70 1
    70   73   70 1
    71   74   19 1
    72   75   19 1
    73   76   75 ar
    74   77   76 1
    75   78   76 ar
    76   79   78 1
    77   80   78 ar
    78   81   80 ar
    79   82   81 1
    80   83   75 ar
    81   84   11 1
    82   85   84 1
    83   86   84 1
    84   87   84 1
    85   88   13 1
    86   89   88 1
    87   90   89 1
    88   91   89 1
    89   92   89 1
    90   93   88 1
    91   94   93 1
    92   95   93 1
    93   96   93 1
    94   97   88 1
    95   98   97 1
    96   99   97 1
    97  100   97 1
    98  101   80 1
    99  102   15 1
   100  103  102 1
   101  104  102 1
   102  105  102 1
   103   26   47 1
   104   27   29 ar
   105   53   74 1
   106   54   56 ar
   107   81   83 ar
@<TRIPOS>SUBSTRUCTURE
     1 RES1 1

@<TRIPOS>CRYSIN
   9.3621   13.4190   16.5420  96.4200  98.9900  96.9700   2 1

