# MOL2 file generated by ConQuest
# Please check atom types

@<TRIPOS>MOLECULE
LOKZER
   104   106     1
SMALL
NO_CHARGES
****
Generated from CSD

@<TRIPOS>ATOM
      1 O1         9.0654   11.5830    6.1886 O.2       1 RES1    0.0000
      2 O2         7.9098   11.5304    7.9862 O.2       1 RES1    0.0000
      3 O3         5.8403    9.9074    7.9912 O.3       1 RES1    0.0000
      4 O4         5.4710    9.9675   10.6696 O.2       1 RES1    0.0000
      5 O5         3.3941    9.0934   10.4014 O.3       1 RES1    0.0000
      6 O6         3.4297    9.5731    2.7085 O.2       1 RES1    0.0000
      7 O7         1.0597    8.5051    6.7464 O.3       1 RES1    0.0000
      8 O8         2.8681    6.5380    6.9448 O.2       1 RES1    0.0000
      9 O9         1.9576    5.7920    8.8769 O.3       1 RES1    0.0000
     10 O10       -2.8754    6.5679    2.6085 O.2       1 RES1    0.0000
     11 O11       -4.3635    6.4142    7.1250 O.3       1 RES1    0.0000
     12 O12       -2.2534    6.7850    8.6675 O.2       1 RES1    0.0000
     13 O13       -3.2699    5.6980   10.3858 O.3       1 RES1    0.0000
     14 O14       -8.8684    3.4271    4.4554 O.2       1 RES1    0.0000
     15 O15       -8.8246    4.1613    6.5898 O.3       1 RES1    0.0000
     16 N1         8.0437   11.3199    6.8055 N.pl3     1 RES1    0.0000
     17 N2         4.8422    9.6326    5.9443 N.ar      1 RES1    0.0000
     18 N3         2.7237    8.7073    4.7089 N.am      1 RES1    0.0000
     19 H1         3.0001    8.6187    5.5365 H         1 RES1    0.0000
     20 N4        -3.4663    6.8986    4.7651 N.am      1 RES1    0.0000
     21 H2        -3.2046    7.1492    5.4892 H         1 RES1    0.0000
     22 C1         6.9206   10.7649    6.0454 C.ar      1 RES1    0.0000
     23 C2         6.9166   10.9331    4.6855 C.ar      1 RES1    0.0000
     24 H3         7.6421   11.3706    4.2550 H         1 RES1    0.0000
     25 C3         5.8472   10.4608    3.9427 C.ar      1 RES1    0.0000
     26 H4         5.8159   10.5681    2.9997 H         1 RES1    0.0000
     27 C4         4.8333    9.8303    4.6220 C.ar      1 RES1    0.0000
     28 C5         5.8490   10.0952    6.6662 C.ar      1 RES1    0.0000
     29 C6         4.6752    9.2337    8.5163 C.3       1 RES1    0.0000
     30 H5         4.7416    8.2596    8.3483 H         1 RES1    0.0000
     31 H6         3.8582    9.5732    8.0708 H         1 RES1    0.0000
     32 C7         4.6057    9.4978    9.9868 C.2       1 RES1    0.0000
     33 C8         2.9696    9.2061   11.8332 C.3       1 RES1    0.0000
     34 C9         2.9545   10.6553   12.2512 C.3       1 RES1    0.0000
     35 H7         3.8720   10.9969   12.2786 H         1 RES1    0.0000
     36 H8         2.5498   10.7349   13.1395 H         1 RES1    0.0000
     37 H9         2.4309   11.1764   11.6067 H         1 RES1    0.0000
     38 C10        3.8768    8.3634   12.6954 C.3       1 RES1    0.0000
     39 H10        3.8510    7.4351   12.3843 H         1 RES1    0.0000
     40 H11        3.5742    8.4061   13.6260 H         1 RES1    0.0000
     41 H12        4.7943    8.7030   12.6332 H         1 RES1    0.0000
     42 C11        1.5610    8.6429   11.7822 C.3       1 RES1    0.0000
     43 H13        1.5947    7.7026   11.5109 H         1 RES1    0.0000
     44 H14        1.0288    9.1500   11.1352 H         1 RES1    0.0000
     45 H15        1.1492    8.7121   12.6692 H         1 RES1    0.0000
     46 C12        3.5985    9.3466    3.8967 C.2       1 RES1    0.0000
     47 C13        1.4160    8.3109    4.4205 C.ar      1 RES1    0.0000
     48 C14        0.9268    8.0994    3.1477 C.ar      1 RES1    0.0000
     49 H16        1.4891    8.2357    2.3938 H         1 RES1    0.0000
     50 C15       -0.3836    7.6894    2.9710 C.ar      1 RES1    0.0000
     51 H17       -0.7138    7.5560    2.0902 H         1 RES1    0.0000
     52 C16       -1.2195    7.4712    4.0448 C.ar      1 RES1    0.0000
     53 C17       -0.7374    7.7017    5.3374 C.ar      1 RES1    0.0000
     54 H18       -1.3039    7.5707    6.0889 H         1 RES1    0.0000
     55 C18        0.5563    8.1166    5.5141 C.ar      1 RES1    0.0000
     56 C19        0.9289    7.6038    7.8444 C.3       1 RES1    0.0000
     57 H19        0.0533    7.1437    7.7946 H         1 RES1    0.0000
     58 H20        0.9658    8.1075    8.6954 H         1 RES1    0.0000
     59 C20        2.0358    6.5858    7.8121 C.2       1 RES1    0.0000
     60 C21        2.9594    4.7093    9.1396 C.3       1 RES1    0.0000
     61 C22        2.8327    3.6615    8.0646 C.3       1 RES1    0.0000
     62 H21        1.9159    3.3144    8.0534 H         1 RES1    0.0000
     63 H22        3.4570    2.9279    8.2475 H         1 RES1    0.0000
     64 H23        3.0416    4.0602    7.1937 H         1 RES1    0.0000
     65 C23        4.3406    5.3082    9.2142 C.3       1 RES1    0.0000
     66 H24        4.5961    5.6523    8.3334 H         1 RES1    0.0000
     67 H25        4.9798    4.6208    9.4954 H         1 RES1    0.0000
     68 H26        4.3434    6.0408    9.8649 H         1 RES1    0.0000
     69 C24        2.5286    4.1710   10.4721 C.3       1 RES1    0.0000
     70 H27        1.6305    3.7872   10.3937 H         1 RES1    0.0000
     71 H28        2.5188    4.8975   11.1290 H         1 RES1    0.0000
     72 H29        3.1564    3.4757   10.7620 H         1 RES1    0.0000
     73 C25       -2.5847    6.9466    3.7300 C.2       1 RES1    0.0000
     74 C26       -4.6940    6.2183    4.8224 C.ar      1 RES1    0.0000
     75 C27       -5.4359    5.8255    3.7337 C.ar      1 RES1    0.0000
     76 H30       -5.1412    6.0408    2.8566 H         1 RES1    0.0000
     77 C28       -6.6233    5.1117    3.9141 C.ar      1 RES1    0.0000
     78 H31       -7.1318    4.8333    3.1614 H         1 RES1    0.0000
     79 C29       -7.0572    4.8115    5.1956 C.ar      1 RES1    0.0000
     80 C30       -6.3272    5.2254    6.3091 C.ar      1 RES1    0.0000
     81 H32       -6.6349    5.0312    7.1862 H         1 RES1    0.0000
     82 C31       -5.1561    5.9184    6.1163 C.ar      1 RES1    0.0000
     83 C32       -4.4248    5.7892    8.3968 C.3       1 RES1    0.0000
     84 H33       -4.4745    4.8059    8.2948 H         1 RES1    0.0000
     85 H34       -5.2258    6.0939    8.8907 H         1 RES1    0.0000
     86 C33       -3.1758    6.1721    9.1446 C.2       1 RES1    0.0000
     87 C34       -2.1932    5.9123   11.3791 C.3       1 RES1    0.0000
     88 C35       -0.9057    5.2722   10.9175 C.3       1 RES1    0.0000
     89 H35       -1.0510    4.3130   10.7744 H         1 RES1    0.0000
     90 H36       -0.2139    5.3995   11.6005 H         1 RES1    0.0000
     91 H37       -0.6170    5.6890   10.0789 H         1 RES1    0.0000
     92 C36       -2.0468    7.4076   11.6316 C.3       1 RES1    0.0000
     93 H38       -2.9032    7.7722   11.9352 H         1 RES1    0.0000
     94 H39       -1.7768    7.8546   10.8018 H         1 RES1    0.0000
     95 H40       -1.3662    7.5578   12.3196 H         1 RES1    0.0000
     96 C37       -2.7441    5.2078   12.6083 C.3       1 RES1    0.0000
     97 H41       -2.8377    4.2507   12.4217 H         1 RES1    0.0000
     98 H42       -3.6207    5.5827   12.8347 H         1 RES1    0.0000
     99 H43       -2.1296    5.3354   13.3610 H         1 RES1    0.0000
    100 C38       -8.3339    4.0539    5.3374 C.2       1 RES1    0.0000
    101 C39      -10.0588    3.4390    6.8478 C.3       1 RES1    0.0000
    102 H44      -10.3342    3.5856    7.7772 H         1 RES1    0.0000
    103 H45       -9.9156    2.4808    6.6973 H         1 RES1    0.0000
    104 H46      -10.7596    3.7633    6.2444 H         1 RES1    0.0000
@<TRIPOS>BOND
     1    1   16 2
     2    2   16 2
     3    3   28 1
     4    4   32 2
     5    5   32 1
     6    6   46 2
     7    7   55 1
     8    8   59 2
     9    9   59 1
    10   10   73 2
    11   11   82 1
    12   12   86 2
    13   13   86 1
    14   14  100 2
    15   15  100 1
    16   16   22 1
    17   17   27 ar
    18   18   19 1
    19   20   21 1
    20   22   23 ar
    21   23   24 1
    22   25   23 ar
    23   26   25 1
    24   27   25 ar
    25   28   17 ar
    26   29    3 1
    27   30   29 1
    28   31   29 1
    29   32   29 1
    30   33    5 1
    31   34   33 1
    32   35   34 1
    33   36   34 1
    34   37   34 1
    35   38   33 1
    36   39   38 1
    37   40   38 1
    38   41   38 1
    39   42   33 1
    40   43   42 1
    41   44   42 1
    42   45   42 1
    43   46   18 1
    44   47   18 1
    45   48   47 ar
    46   49   48 1
    47   50   48 ar
    48   51   50 1
    49   52   50 ar
    50   53   52 ar
    51   54   53 1
    52   55   47 ar
    53   56    7 1
    54   57   56 1
    55   58   56 1
    56   59   56 1
    57   60    9 1
    58   61   60 1
    59   62   61 1
    60   63   61 1
    61   64   61 1
    62   65   60 1
    63   66   65 1
    64   67   65 1
    65   68   65 1
    66   69   60 1
    67   70   69 1
    68   71   69 1
    69   72   69 1
    70   73   20 1
    71   74   20 1
    72   75   74 ar
    73   76   75 1
    74   77   75 ar
    75   78   77 1
    76   79   77 ar
    77   80   79 ar
    78   81   80 1
    79   82   74 ar
    80   83   11 1
    81   84   83 1
    82   85   83 1
    83   86   83 1
    84   87   13 1
    85   88   87 1
    86   89   88 1
    87   90   88 1
    88   91   88 1
    89   92   87 1
    90   93   92 1
    91   94   92 1
    92   95   92 1
    93   96   87 1
    94   97   96 1
    95   98   96 1
    96   99   96 1
    97  100   79 1
    98  101   15 1
    99  102  101 1
   100  103  101 1
   101  104  101 1
   102   22   28 ar
   103   27   46 1
   104   52   73 1
   105   53   55 ar
   106   80   82 ar
@<TRIPOS>SUBSTRUCTURE
     1 RES1 1

@<TRIPOS>CRYSIN
  17.2140   18.3220   12.6120  90.0000  99.4300  90.0000  14 1

