# MOL2 file generated by ConQuest
# Please check atom types

@<TRIPOS>MOLECULE
LOKZAN
   103   105     1
SMALL
NO_CHARGES
****
Generated from CSD

@<TRIPOS>ATOM
      1 O1         1.8581    1.7133    2.5064 O.2       1 RES1    0.0000
      2 O2         3.6588    1.8331    1.3357 O.2       1 RES1    0.0000
      3 O3         4.9055    4.0754    2.0661 O.3       1 RES1    0.0000
      4 O4         4.5342    6.7154    2.7731 O.2       1 RES1    0.0000
      5 O5         6.2863    7.2940    1.4621 O.3       1 RES1    0.0000
      6 O6         5.7131    3.2943    7.9949 O.2       1 RES1    0.0000
      7 O7         8.1872    6.9779    6.1707 O.3       1 RES1    0.0000
      8 O8         8.5030    5.6618    3.8690 O.2       1 RES1    0.0000
      9 O9        10.2171    7.0287    3.2840 O.3       1 RES1    0.0000
     10 O10       11.3414    6.3553   11.0680 O.2       1 RES1    0.0000
     11 O11       12.3888    9.7425    7.7739 O.3       1 RES1    0.0000
     12 O12       11.4219    9.6339    5.2644 O.2       1 RES1    0.0000
     13 O13       12.0549   11.7812    4.9480 O.3       1 RES1    0.0000
     14 O14       16.6089   11.2097   11.5258 O.2       1 RES1    0.0000
     15 O15       15.8386   12.3347    9.7571 O.3       1 RES1    0.0000
     16 N1         3.0330    2.0370    2.3586 N.pl3     1 RES1    0.0000
     17 N2         6.8076    4.8927    6.8111 N.am      1 RES1    0.0000
     18 H1         6.9522    5.2895    5.9483 H         1 RES1    0.0000
     19 N3         9.5657    6.8743    8.0351 N.ar      1 RES1    0.0000
     20 N4        11.5795    7.8895    9.3934 N.am      1 RES1    0.0000
     21 H2        11.2722    8.0448    8.6552 H         1 RES1    0.0000
     22 N5        14.0585   10.5119    9.1734 N.ar      1 RES1    0.0000
     23 C1         3.7263    2.6434    3.5038 C.ar      1 RES1    0.0000
     24 C2         3.4037    2.1604    4.7569 C.ar      1 RES1    0.0000
     25 H3         2.7048    1.5242    4.8552 H         1 RES1    0.0000
     26 C3         4.0934    2.6019    5.8626 C.ar      1 RES1    0.0000
     27 H4         3.8796    2.2632    6.7242 H         1 RES1    0.0000
     28 C4         5.1044    3.5431    5.7145 C.ar      1 RES1    0.0000
     29 C5         5.3737    4.0650    4.4521 C.ar      1 RES1    0.0000
     30 H5         6.0391    4.7379    4.3604 H         1 RES1    0.0000
     31 C6         4.6950    3.6274    3.3281 C.ar      1 RES1    0.0000
     32 C7         5.9369    5.0306    1.8155 C.3       1 RES1    0.0000
     33 H6         6.2212    4.9604    0.8690 H         1 RES1    0.0000
     34 H7         6.7190    4.8213    2.3845 H         1 RES1    0.0000
     35 C8         5.4829    6.4429    2.0954 C.2       1 RES1    0.0000
     36 C9         6.1111    8.7713    1.5707 C.3       1 RES1    0.0000
     37 C10        4.7932    9.1548    0.9621 C.3       1 RES1    0.0000
     38 H8         4.0634    8.7916    1.5069 H         1 RES1    0.0000
     39 H9         4.7342    8.7908    0.0534 H         1 RES1    0.0000
     40 H10        4.7217   10.1316    0.9293 H         1 RES1    0.0000
     41 C11        7.2369    9.3108    0.7328 C.3       1 RES1    0.0000
     42 H11        8.0940    9.0711    1.1448 H         1 RES1    0.0000
     43 H12        7.1632   10.2870    0.6776 H         1 RES1    0.0000
     44 H13        7.1888    8.9279   -0.1672 H         1 RES1    0.0000
     45 C12        6.2343    9.1882    3.0104 C.3       1 RES1    0.0000
     46 H14        7.1159    8.9276    3.3518 H         1 RES1    0.0000
     47 H15        5.5361    8.7477    3.5397 H         1 RES1    0.0000
     48 H16        6.1326   10.1597    3.0793 H         1 RES1    0.0000
     49 C13        5.8854    3.8923    6.9401 C.2       1 RES1    0.0000
     50 C14        7.7449    5.3293    7.7585 C.ar      1 RES1    0.0000
     51 C15        7.9782    4.7913    9.0077 C.ar      1 RES1    0.0000
     52 H17        7.4348    4.0882    9.3449 H         1 RES1    0.0000
     53 C16        9.0261    5.3012    9.7596 C.ar      1 RES1    0.0000
     54 H18        9.2010    4.9588   10.6277 H         1 RES1    0.0000
     55 C17        9.8076    6.2995    9.2452 C.ar      1 RES1    0.0000
     56 C18        8.5514    6.4033    7.3504 C.ar      1 RES1    0.0000
     57 C19        9.2057    7.4689    5.3045 C.3       1 RES1    0.0000
     58 H19       10.0818    7.4529    5.7656 H         1 RES1    0.0000
     59 H20        9.0080    8.4026    5.0414 H         1 RES1    0.0000
     60 C20        9.2467    6.5850    4.0826 C.2       1 RES1    0.0000
     61 C21       10.6765    6.2976    2.0698 C.3       1 RES1    0.0000
     62 C22       11.3739    5.0315    2.5138 C.3       1 RES1    0.0000
     63 H21       12.1146    5.2598    3.1138 H         1 RES1    0.0000
     64 H22       11.7230    4.5585    1.7293 H         1 RES1    0.0000
     65 H23       10.7372    4.4561    2.9862 H         1 RES1    0.0000
     66 C23        9.5319    6.0152    1.1276 C.3       1 RES1    0.0000
     67 H24        8.9235    5.3652    1.5379 H         1 RES1    0.0000
     68 H25        9.8827    5.6492    0.2879 H         1 RES1    0.0000
     69 H26        9.0464    6.8463    0.9431 H         1 RES1    0.0000
     70 C24       11.6324    7.2917    1.4638 C.3       1 RES1    0.0000
     71 H27       12.3728    7.4539    2.0845 H         1 RES1    0.0000
     72 H28       11.1607    8.1335    1.2897 H         1 RES1    0.0000
     73 H29       11.9833    6.9348    0.6207 H         1 RES1    0.0000
     74 C25       10.9753    6.8336   10.0032 C.2       1 RES1    0.0000
     75 C26       12.6561    8.6558    9.8209 C.ar      1 RES1    0.0000
     76 C27       13.3395    8.5272   11.0163 C.ar      1 RES1    0.0000
     77 H30       13.0941    7.8632   11.6501 H         1 RES1    0.0000
     78 C28       14.3997    9.3977   11.2661 C.ar      1 RES1    0.0000
     79 H31       14.8961    9.3210   12.0725 H         1 RES1    0.0000
     80 C29       14.7259   10.3600   10.3537 C.ar      1 RES1    0.0000
     81 C30       13.0882    9.6688    8.9371 C.ar      1 RES1    0.0000
     82 C31       12.7632   10.7953    6.8845 C.3       1 RES1    0.0000
     83 H32       13.7332   10.7503    6.6914 H         1 RES1    0.0000
     84 H33       12.5665   11.6747    7.2949 H         1 RES1    0.0000
     85 C32       11.9780   10.6311    5.6180 C.2       1 RES1    0.0000
     86 C33       11.4751   11.9386    3.5942 C.3       1 RES1    0.0000
     87 C34        9.9781   11.7078    3.6604 C.3       1 RES1    0.0000
     88 H34        9.8016   10.7640    3.8552 H         1 RES1    0.0000
     89 H35        9.5733   11.9430    2.7983 H         1 RES1    0.0000
     90 H36        9.5925   12.2659    4.3673 H         1 RES1    0.0000
     91 C35       12.1804   11.0060    2.6397 C.3       1 RES1    0.0000
     92 H37       13.1403   11.2025    2.6397 H         1 RES1    0.0000
     93 H38       11.8218   11.1308    1.7362 H         1 RES1    0.0000
     94 H39       12.0369   10.0788    2.9224 H         1 RES1    0.0000
     95 C36       11.7910   13.3759    3.2845 C.3       1 RES1    0.0000
     96 H40       12.7631   13.4980    3.2552 H         1 RES1    0.0000
     97 H41       11.4116   13.9518    3.9828 H         1 RES1    0.0000
     98 H42       11.4036   13.6164    2.4173 H         1 RES1    0.0000
     99 C37       15.8212   11.3207   10.6211 C.2       1 RES1    0.0000
    100 C38       16.8269   13.3573   10.0087 C.3       1 RES1    0.0000
    101 H43       16.7581   14.0543    9.3242 H         1 RES1    0.0000
    102 H44       17.7220   12.9599    9.9811 H         1 RES1    0.0000
    103 H45       16.6710   13.7516   10.8932 H         1 RES1    0.0000
@<TRIPOS>BOND
     1    1   16 2
     2    2   16 2
     3    3   31 1
     4    4   35 2
     5    5   35 1
     6    6   49 2
     7    7   56 1
     8    8   60 2
     9    9   60 1
    10   10   74 2
    11   11   81 1
    12   12   85 2
    13   13   85 1
    14   14   99 2
    15   15   99 1
    16   16   23 1
    17   17   18 1
    18   19   55 ar
    19   20   21 1
    20   22   80 ar
    21   23   24 ar
    22   24   25 1
    23   26   24 ar
    24   27   26 1
    25   28   26 ar
    26   29   28 ar
    27   30   29 1
    28   31   23 ar
    29   32    3 1
    30   33   32 1
    31   34   32 1
    32   35   32 1
    33   36    5 1
    34   37   36 1
    35   38   37 1
    36   39   37 1
    37   40   37 1
    38   41   36 1
    39   42   41 1
    40   43   41 1
    41   44   41 1
    42   45   36 1
    43   46   45 1
    44   47   45 1
    45   48   45 1
    46   49   17 1
    47   50   17 1
    48   51   50 ar
    49   52   51 1
    50   53   51 ar
    51   54   53 1
    52   55   53 ar
    53   56   19 ar
    54   57    7 1
    55   58   57 1
    56   59   57 1
    57   60   57 1
    58   61    9 1
    59   62   61 1
    60   63   62 1
    61   64   62 1
    62   65   62 1
    63   66   61 1
    64   67   66 1
    65   68   66 1
    66   69   66 1
    67   70   61 1
    68   71   70 1
    69   72   70 1
    70   73   70 1
    71   74   20 1
    72   75   20 1
    73   76   75 ar
    74   77   76 1
    75   78   76 ar
    76   79   78 1
    77   80   78 ar
    78   81   22 ar
    79   82   11 1
    80   83   82 1
    81   84   82 1
    82   85   82 1
    83   86   13 1
    84   87   86 1
    85   88   87 1
    86   89   87 1
    87   90   87 1
    88   91   86 1
    89   92   91 1
    90   93   91 1
    91   94   91 1
    92   95   86 1
    93   96   95 1
    94   97   95 1
    95   98   95 1
    96   99   80 1
    97  100   15 1
    98  101  100 1
    99  102  100 1
   100  103  100 1
   101   28   49 1
   102   29   31 ar
   103   50   56 ar
   104   55   74 1
   105   75   81 ar
@<TRIPOS>SUBSTRUCTURE
     1 RES1 1

@<TRIPOS>CRYSIN
  10.2620   11.7070   18.2800  71.9400  78.3300  73.5800   2 1

