# MOL2 file generated by ConQuest
# Please check atom types

@<TRIPOS>MOLECULE
LOLCAR
    48    54     1
SMALL
USER_CHARGES
****
Generated from CSD

@<TRIPOS>ATOM
      1 O1        -0.4452    2.3668    7.6977 O.2       1 RES1   -1.0000
      2 N1         0.2005    2.0263    8.7709 N.pl3     1 RES1    1.0000
      3 C1        -0.4359    2.0848    9.9542 C.ar      1 RES1    0.0000
      4 C2         0.0841    1.4903   11.0832 C.ar      1 RES1    0.0000
      5 C3         1.2589    0.8009   10.9853 C.ar      1 RES1    0.0000
      6 C4         3.1675    0.0330    9.6351 C.ar      1 RES1    0.0000
      7 C5         3.7851   -0.0301    8.4527 C.ar      1 RES1    0.0000
      8 C6         4.1047    0.6771    6.1338 C.ar      1 RES1    0.0000
      9 C7         3.7404    1.3971    5.0582 C.ar      1 RES1    0.0000
     10 C8         2.3207    3.0898    4.0148 C.ar      1 RES1    0.0000
     11 C9         1.3368    4.0082    4.0860 C.ar      1 RES1    0.0000
     12 C10       -0.2095    5.4548    5.4044 C.ar      1 RES1    0.0000
     13 C11       -0.5842    5.9904    6.6526 C.ar      1 RES1    0.0000
     14 C12        0.0249    6.3015    9.0622 C.ar      1 RES1    0.0000
     15 C13        0.8407    6.0642   10.1370 C.ar      1 RES1    0.0000
     16 C14        1.8868    5.1638   10.0128 C.ar      1 RES1    0.0000
     17 C15        2.0474    4.4617    8.8401 C.ar      1 RES1    0.0000
     18 C16        1.9794    0.8229    9.7976 C.ar      1 RES1    0.0000
     19 C17        1.5145    1.5571    8.6843 C.ar      1 RES1    0.0000
     20 C18        3.3934    0.7851    7.3555 C.ar      1 RES1    0.0000
     21 C19        2.3076    1.6950    7.4826 C.ar      1 RES1    0.0000
     22 C20        2.7194    2.3764    5.1664 C.ar      1 RES1    0.0000
     23 C21        2.1091    2.6541    6.4142 C.ar      1 RES1    0.0000
     24 C22        0.8224    4.4293    5.3327 C.ar      1 RES1    0.0000
     25 C23        1.3357    3.8716    6.5121 C.ar      1 RES1    0.0000
     26 C24        0.1826    5.6305    7.8438 C.ar      1 RES1    0.0000
     27 C25        1.1683    4.6209    7.7534 C.ar      1 RES1    0.0000
     28 C26       -0.9112    5.8791    4.2618 C.ar      1 RES1    0.0000
     29 C27       -1.9325    6.7849    4.3432 C.ar      1 RES1    0.0000
     30 C28       -2.3030    7.2981    5.5632 C.ar      1 RES1    0.0000
     31 C29       -1.6460    6.9040    6.7007 C.ar      1 RES1    0.0000
     32 H1        -1.2589    2.5014    9.9244 H         1 RES1    0.0000
     33 H2        -0.4484    1.5078   11.8712 H         1 RES1    0.0000
     34 H3         1.5672    0.3012   11.7197 H         1 RES1    0.0000
     35 H4         3.4457   -0.4604   10.4005 H         1 RES1    0.0000
     36 H5         4.5873   -0.6043    8.2768 H         1 RES1    0.0000
     37 H6         4.8572    0.0748    6.0911 H         1 RES1    0.0000
     38 H7         4.2033    1.2948    4.1559 H         1 RES1    0.0000
     39 H8         2.7815    2.8678    3.1534 H         1 RES1    0.0000
     40 H9         1.0275    4.4389    3.2796 H         1 RES1    0.0000
     41 H10       -0.6424    6.9710    9.1298 H         1 RES1    0.0000
     42 H11        0.7203    6.5586   10.9561 H         1 RES1    0.0000
     43 H12        2.4961    5.0374   10.7171 H         1 RES1    0.0000
     44 H13        2.8116    3.8672    8.7373 H         1 RES1    0.0000
     45 H14       -0.6642    5.5016    3.4137 H         1 RES1    0.0000
     46 H15       -2.4182    7.0401    3.5497 H         1 RES1    0.0000
     47 H16       -3.0617    7.8879    5.6558 H         1 RES1    0.0000
     48 H17       -1.9221    7.2453    7.5852 H         1 RES1    0.0000
@<TRIPOS>BOND
     1    1    2 1
     2    2    3 ar
     3    3    4 ar
     4    4    5 ar
     5    5   18 ar
     6    6    7 ar
     7    7   20 ar
     8    8    9 ar
     9    9   22 ar
    10   10   11 ar
    11   11   24 ar
    12   12   13 ar
    13   13   26 ar
    14   14   15 ar
    15   15   16 ar
    16   16   17 ar
    17   17   27 ar
    18   18    6 ar
    19   19    2 ar
    20   20    8 ar
    21   21   19 ar
    22   22   10 ar
    23   23   21 ar
    24   24   12 ar
    25   25   23 ar
    26   26   14 ar
    27   27   25 ar
    28   28   12 ar
    29   29   28 ar
    30   30   29 ar
    31   31   13 ar
    32   32    3 1
    33   33    4 1
    34   34    5 1
    35   35    6 1
    36   36    7 1
    37   37    8 1
    38   38    9 1
    39   39   10 1
    40   40   11 1
    41   41   14 1
    42   42   15 1
    43   43   16 1
    44   44   17 1
    45   45   28 1
    46   46   29 1
    47   47   30 1
    48   48   31 1
    49   18   19 ar
    50   20   21 ar
    51   22   23 ar
    52   24   25 ar
    53   26   27 ar
    54   30   31 ar
@<TRIPOS>SUBSTRUCTURE
     1 RES1 1

@<TRIPOS>CRYSIN
  10.3786   19.1827   19.4292  90.0000  90.0000  90.0000  61 1

