# MOL2 file generated by ConQuest
# Please check atom types

@<TRIPOS>MOLECULE
LOLCOG
    45    47     1
SMALL
NO_CHARGES
****
Generated from CSD

@<TRIPOS>ATOM
      1 C1        -0.3113    3.9633    2.1545 C.ar      1 RES1    0.0000
      2 C2        -0.1170    5.3632    1.8898 C.ar      1 RES1    0.0000
      3 C3        -0.9366    6.0273    0.9863 C.ar      1 RES1    0.0000
      4 H1        -0.7940    6.9283    0.8036 H         1 RES1    0.0000
      5 C4        -1.9600    5.3519    0.3606 C.ar      1 RES1    0.0000
      6 C5        -2.2323    4.0098    0.6504 C.ar      1 RES1    0.0000
      7 H2        -2.9447    3.5757    0.2394 H         1 RES1    0.0000
      8 C6        -1.4444    3.3476    1.5384 C.ar      1 RES1    0.0000
      9 H3        -1.6496    2.4654    1.7516 H         1 RES1    0.0000
     10 O1         0.4762    3.2998    2.8991 O.3       1 RES1    0.0000
     11 H4         1.2277    3.3011    2.5716 H         1 RES1    0.0000
     12 N1        -2.7827    6.0449   -0.5996 N.pl3     1 RES1    0.0000
     13 O2        -3.5081    5.3682   -1.3381 O.2       1 RES1    0.0000
     14 O3        -2.7366    7.2625   -0.6631 O.2       1 RES1    0.0000
     15 C7         0.9362    6.0769    2.5327 C.2       1 RES1    0.0000
     16 H5         1.0296    6.9911    2.3928 H         1 RES1    0.0000
     17 N2         1.7643    5.4549    3.3114 N.2       1 RES1    0.0000
     18 C8         2.9052    6.0593    4.0158 C.3       1 RES1    0.0000
     19 H6         2.9600    7.0087    3.7787 H         1 RES1    0.0000
     20 C9         2.7056    5.9356    5.5132 C.ar      1 RES1    0.0000
     21 C10        3.0027    7.0074    6.3323 C.ar      1 RES1    0.0000
     22 H7         3.3224    7.7966    5.9567 H         1 RES1    0.0000
     23 C11        2.8307    6.9220    7.7017 C.ar      1 RES1    0.0000
     24 H8         3.0412    7.6470    8.2446 H         1 RES1    0.0000
     25 C12        2.3488    5.7691    8.2511 C.ar      1 RES1    0.0000
     26 H9         2.2205    5.7125    9.1712 H         1 RES1    0.0000
     27 C13        2.0581    4.7028    7.4606 C.ar      1 RES1    0.0000
     28 H10        1.7364    3.9187    7.8428 H         1 RES1    0.0000
     29 C14        2.2353    4.7745    6.0863 C.ar      1 RES1    0.0000
     30 H11        2.0376    4.0393    5.5516 H         1 RES1    0.0000
     31 C15        4.1676    5.3362    3.4918 C.3       1 RES1    0.0000
     32 H12        4.2656    5.5297    2.5355 H         1 RES1    0.0000
     33 O4         3.9953    3.9394    3.6559 O.3       1 RES1    0.0000
     34 H13        3.8697    3.5920    2.9242 H         1 RES1    0.0000
     35 C16        5.4167    5.8093    4.2138 C.ar      1 RES1    0.0000
     36 C17        5.8883    7.0866    4.0001 C.ar      1 RES1    0.0000
     37 H14        5.4443    7.6558    3.4146 H         1 RES1    0.0000
     38 C18        7.0317    7.5214    4.6643 C.ar      1 RES1    0.0000
     39 H15        7.3502    8.3828    4.5184 H         1 RES1    0.0000
     40 C19        7.6883    6.6970    5.5270 C.ar      1 RES1    0.0000
     41 H16        8.4517    6.9898    5.9682 H         1 RES1    0.0000
     42 C20        7.2116    5.4361    5.7336 C.ar      1 RES1    0.0000
     43 H17        7.6530    4.8693    6.3257 H         1 RES1    0.0000
     44 C21        6.0878    4.9931    5.0825 C.ar      1 RES1    0.0000
     45 H18        5.7795    4.1286    5.2334 H         1 RES1    0.0000
@<TRIPOS>BOND
     1    1    2 ar
     2    2    3 ar
     3    3    4 1
     4    5    3 ar
     5    6    5 ar
     6    7    6 1
     7    8    1 ar
     8    9    8 1
     9   10    1 1
    10   11   10 1
    11   12    5 1
    12   13   12 2
    13   14   12 2
    14   15    2 1
    15   16   15 1
    16   17   15 2
    17   18   17 1
    18   19   18 1
    19   20   18 1
    20   21   20 ar
    21   22   21 1
    22   23   21 ar
    23   24   23 1
    24   25   23 ar
    25   26   25 1
    26   27   25 ar
    27   28   27 1
    28   29   20 ar
    29   30   29 1
    30   31   18 1
    31   32   31 1
    32   33   31 1
    33   34   33 1
    34   35   31 1
    35   36   35 ar
    36   37   36 1
    37   38   36 ar
    38   39   38 1
    39   40   38 ar
    40   41   40 1
    41   42   40 ar
    42   43   42 1
    43   44   35 ar
    44   45   44 1
    45    6    8 ar
    46   27   29 ar
    47   42   44 ar
@<TRIPOS>SUBSTRUCTURE
     1 RES1 1

@<TRIPOS>CRYSIN
   8.6210    6.2830   16.4040  90.0000  91.1700  90.0000   4 1

