# MOL2 file generated by ConQuest
# Please check atom types

@<TRIPOS>MOLECULE
LOLFEX
    63    63     3
SMALL
NO_CHARGES
****
Generated from CSD

@<TRIPOS>ATOM
      1 N1         4.5828    1.4277    4.5531 N.3       1 RES1    0.0000
      2 N2         4.8513    0.8140    3.3741 N.pl3     1 RES1    0.0000
      3 O1         3.9494    0.6608    2.5660 O.2       1 RES1    0.0000
      4 O2         5.9831    0.3748    3.2113 O.2       1 RES1    0.0000
      5 C1         5.6936    1.7857    5.4214 C.3       1 RES1    0.0000
      6 H1         5.4466    1.6177    6.3437 H         1 RES1    0.0000
      7 H2         6.4585    1.2274    5.2099 H         1 RES1    0.0000
      8 N3         6.0628    3.1817    5.2701 N.3       1 RES1    0.0000
      9 N4         7.1349    3.4629    4.4602 N.pl3     1 RES1    0.0000
     10 O3         7.9084    2.5604    4.2088 O.2       1 RES1    0.0000
     11 O4         7.2831    4.6228    4.0937 O.2       1 RES1    0.0000
     12 C2         4.9652    4.1437    5.3232 C.3       1 RES1    0.0000
     13 H3         5.2913    5.0241    5.0798 H         1 RES1    0.0000
     14 H4         4.6165    4.1902    6.2278 H         1 RES1    0.0000
     15 C3         3.8593    3.7269    4.3690 C.3       1 RES1    0.0000
     16 H5         3.0914    4.3275    4.4717 H         1 RES1    0.0000
     17 O5         4.3123    3.7589    3.0342 O.3       1 RES1    0.0000
     18 H6         4.6449    4.4917    2.8758 H         1 RES1    0.0000
     19 C4         3.4285    2.3085    4.6222 C.3       1 RES1    0.0000
     20 H7         3.0177    2.2421    5.4984 H         1 RES1    0.0000
     21 H8         2.7731    2.0417    3.9592 H         1 RES1    0.0000
     22 N5         7.4731   -2.8330   -0.9559 N.3       2 RES2    0.0000
     23 N6         8.6245   -2.7652   -0.2009 N.pl3     2 RES2    0.0000
     24 O6         9.1326   -1.6700   -0.0177 O.2       2 RES2    0.0000
     25 O7         9.1101   -3.8095    0.1876 O.2       2 RES2    0.0000
     26 C5         6.7441   -4.0852   -0.9559 C.3       2 RES2    0.0000
     27 H9         7.3500   -4.8094   -0.7355 H         2 RES2    0.0000
     28 H10        6.3905   -4.2507   -1.8437 H         2 RES2    0.0000
     29 N7         5.6508   -4.0673   -0.0009 N.3       2 RES2    0.0000
     30 N8         5.8149   -4.6882    1.2029 N.pl3     2 RES2    0.0000
     31 O8         4.9717   -4.5123    2.0615 O.2       2 RES2    0.0000
     32 O9         6.7710   -5.4320    1.3357 O.2       2 RES2    0.0000
     33 C6         4.7690   -2.8943   -0.0788 C.3       2 RES2    0.0000
     34 H11        4.1292   -2.9163    0.6506 H         2 RES2    0.0000
     35 H12        4.2775   -2.9081   -0.9143 H         2 RES2    0.0000
     36 C7         5.5964   -1.6387    0.0062 C.3       2 RES2    0.0000
     37 H13        5.0193   -0.8519   -0.0876 H         2 RES2    0.0000
     38 O10        6.2487   -1.6136    1.2675 O.3       2 RES2    0.0000
     39 H14        5.9589   -0.9878    1.7127 H         2 RES2    0.0000
     40 C8         6.6611   -1.6263   -1.0613 C.3       2 RES2    0.0000
     41 H15        6.2474   -1.5853   -1.9376 H         2 RES2    0.0000
     42 H16        7.2235   -0.8429   -0.9551 H         2 RES2    0.0000
     43 N9         6.1538    8.8443   -0.5452 N.3       3 RES3    0.0000
     44 N10        7.2610    9.1317    0.1664 N.pl3     3 RES3    0.0000
     45 O11        7.4303   10.2999    0.5090 O.2       3 RES3    0.0000
     46 O12        8.0365    8.2199    0.4080 O.2       3 RES3    0.0000
     47 C9         5.8090    7.4651   -0.8223 C.3       3 RES3    0.0000
     48 H17        5.7169    7.3419   -1.7800 H         3 RES3    0.0000
     49 H18        6.5236    6.8862   -0.5134 H         3 RES3    0.0000
     50 N11        4.5748    7.0944   -0.1691 N.3       3 RES3    0.0000
     51 N12        4.6692    6.5950    1.1153 N.pl3     3 RES3    0.0000
     52 O13        5.7848    6.3228    1.5446 O.2       3 RES3    0.0000
     53 O14        3.6208    6.3727    1.7056 O.2       3 RES3    0.0000
     54 C10        3.4609    8.0004   -0.4204 C.3       3 RES3    0.0000
     55 H19        2.6959    7.7305    0.1106 H         3 RES3    0.0000
     56 H20        3.2099    7.9563   -1.3560 H         3 RES3    0.0000
     57 C11        3.8508    9.4167   -0.0655 C.3       3 RES3    0.0000
     58 H21        3.1261   10.0266   -0.3169 H         3 RES3    0.0000
     59 O15        4.0210    9.4401    1.3374 O.3       3 RES3    0.0000
     60 H22        4.3008   10.1777    1.5658 H         3 RES3    0.0000
     61 C12        5.1263    9.8342   -0.7683 C.3       3 RES3    0.0000
     62 H23        4.9608    9.9251   -1.7198 H         3 RES3    0.0000
     63 H24        5.4211   10.6936   -0.4293 H         3 RES3    0.0000
@<TRIPOS>BOND
     1    1    2 1
     2    2    3 2
     3    4    2 2
     4    5    1 1
     5    6    5 1
     6    7    5 1
     7    8    5 1
     8    9    8 1
     9   10    9 2
    10   11    9 2
    11   12    8 1
    12   13   12 1
    13   14   12 1
    14   15   12 1
    15   16   15 1
    16   17   15 1
    17   18   17 1
    18   19    1 1
    19   20   19 1
    20   21   19 1
    21   22   23 1
    22   23   24 2
    23   25   23 2
    24   26   22 1
    25   27   26 1
    26   28   26 1
    27   29   26 1
    28   30   29 1
    29   31   30 2
    30   32   30 2
    31   33   29 1
    32   34   33 1
    33   35   33 1
    34   36   33 1
    35   37   36 1
    36   38   36 1
    37   39   38 1
    38   40   22 1
    39   41   40 1
    40   42   40 1
    41   43   44 1
    42   44   45 2
    43   46   44 2
    44   47   43 1
    45   48   47 1
    46   49   47 1
    47   50   47 1
    48   51   50 1
    49   52   51 2
    50   53   51 2
    51   54   50 1
    52   55   54 1
    53   56   54 1
    54   57   54 1
    55   58   57 1
    56   59   57 1
    57   60   59 1
    58   61   43 1
    59   62   61 1
    60   63   61 1
    61   15   19 1
    62   36   40 1
    63   57   61 1
@<TRIPOS>SUBSTRUCTURE
     1 RES1 1
     2 RES2 22
     3 RES3 43

@<TRIPOS>CRYSIN
   7.5859   34.4190    8.8822  90.0000  94.7790  90.0000 231 1

