# MOL2 file generated by ConQuest
# Please check atom types

@<TRIPOS>MOLECULE
LOLGAV
    30    32     1
SMALL
NO_CHARGES
****
Generated from CSD

@<TRIPOS>ATOM
      1 O1         7.5869    1.3367    4.5586 O.2       1 RES1    0.0000
      2 O2         5.9022    1.3787    5.8941 O.2       1 RES1    0.0000
      3 N1         6.6619    0.1005    2.2466 N.pl3     1 RES1    0.0000
      4 N2         5.8767    1.2002    2.1151 N.2       1 RES1    0.0000
      5 N3         6.4143    1.9263    1.1659 N.2       1 RES1    0.0000
      6 N4         6.5821    0.8476    5.0334 N.pl3     1 RES1    0.0000
      7 C1         7.6772    0.1403    1.3819 C.2       1 RES1    0.0000
      8 C2         7.5308    1.3112    0.6918 C.2       1 RES1    0.0000
      9 C3         8.3715    1.8985   -0.3435 C.ar      1 RES1    0.0000
     10 C4         8.3661    3.2877   -0.5619 C.ar      1 RES1    0.0000
     11 C5         9.1821    3.8555   -1.5143 C.ar      1 RES1    0.0000
     12 C6        10.0262    3.0672   -2.2532 C.ar      1 RES1    0.0000
     13 C7        10.0478    1.6975   -2.0566 C.ar      1 RES1    0.0000
     14 C8         9.2178    1.1259   -1.1140 C.ar      1 RES1    0.0000
     15 C9         6.3532   -0.8679    3.2475 C.ar      1 RES1    0.0000
     16 C10        6.1374   -2.1895    2.8868 C.ar      1 RES1    0.0000
     17 C11        5.7649   -3.1009    3.8518 C.ar      1 RES1    0.0000
     18 C12        5.5756   -2.7191    5.1498 C.ar      1 RES1    0.0000
     19 C13        5.7867   -1.3974    5.5305 C.ar      1 RES1    0.0000
     20 C14        6.2052   -0.5056    4.5733 C.ar      1 RES1    0.0000
     21 H1         8.3513   -0.5101    1.2980 H         1 RES1    0.0000
     22 H2         7.8059    3.7805   -0.0590 H         1 RES1    0.0000
     23 H3         9.1800    4.8606   -1.6576 H         1 RES1    0.0000
     24 H4        10.5807    3.4655   -2.8657 H         1 RES1    0.0000
     25 H5        10.5856    1.1101   -2.5567 H         1 RES1    0.0000
     26 H6         9.2183    0.1500   -0.9960 H         1 RES1    0.0000
     27 H7         6.2427   -2.4228    1.9638 H         1 RES1    0.0000
     28 H8         5.6417   -4.0130    3.5442 H         1 RES1    0.0000
     29 H9         5.2904   -3.3004    5.8157 H         1 RES1    0.0000
     30 H10        5.6750   -1.1101    6.4478 H         1 RES1    0.0000
@<TRIPOS>BOND
     1    1    6 2
     2    2    6 2
     3    3    4 1
     4    4    5 2
     5    5    8 1
     6    6   20 1
     7    7    3 1
     8    8    7 2
     9    9    8 1
    10   10    9 ar
    11   11   10 ar
    12   12   11 ar
    13   13   12 ar
    14   14    9 ar
    15   15    3 1
    16   16   15 ar
    17   17   16 ar
    18   18   17 ar
    19   19   18 ar
    20   20   15 ar
    21   21    7 1
    22   22   10 1
    23   23   11 1
    24   24   12 1
    25   25   13 1
    26   26   14 1
    27   27   16 1
    28   28   17 1
    29   29   18 1
    30   30   19 1
    31   13   14 ar
    32   19   20 ar
@<TRIPOS>SUBSTRUCTURE
     1 RES1 1

@<TRIPOS>CRYSIN
  12.1800    7.5010   14.2770  90.0000 100.2860  90.0000 231 1

