# MOL2 file generated by ConQuest
# Please check atom types

@<TRIPOS>MOLECULE
LOLHOK
    30    32     1
SMALL
NO_CHARGES
****
Generated from CSD

@<TRIPOS>ATOM
      1 O1         0.2840   -1.5357    0.0777 O.2       1 RES1    0.0000
      2 O2        -1.7877   -1.4967    0.6535 O.2       1 RES1    0.0000
      3 N1         0.8152    0.0772    6.1259 N.pl3     1 RES1    0.0000
      4 N2         2.1185    0.0977    6.4935 N.2       1 RES1    0.0000
      5 N3         2.1553    0.4333    7.7536 N.2       1 RES1    0.0000
      6 N4        -0.6021   -1.3772    0.9008 N.pl3     1 RES1    0.0000
      7 C1         0.0219    0.4029    7.1718 C.2       1 RES1    0.0000
      8 C2         0.8799    0.6351    8.2053 C.2       1 RES1    0.0000
      9 C3         0.5941    1.0118    9.5975 C.ar      1 RES1    0.0000
     10 C4         1.5408    0.7869   10.5933 C.ar      1 RES1    0.0000
     11 C5         1.2665    1.1189   11.9076 C.ar      1 RES1    0.0000
     12 C6         0.0490    1.6768   12.2468 C.ar      1 RES1    0.0000
     13 C7        -0.8965    1.9061   11.2680 C.ar      1 RES1    0.0000
     14 C8        -0.6305    1.5765    9.9478 C.ar      1 RES1    0.0000
     15 C9         0.4550   -0.2909    4.8003 C.ar      1 RES1    0.0000
     16 C10       -0.7777   -0.8812    4.5701 C.ar      1 RES1    0.0000
     17 C11       -1.1244   -1.2293    3.2800 C.ar      1 RES1    0.0000
     18 C12       -0.2193   -0.9980    2.2646 C.ar      1 RES1    0.0000
     19 C13        1.0167   -0.4236    2.4798 C.ar      1 RES1    0.0000
     20 C14        1.3492   -0.0478    3.7632 C.ar      1 RES1    0.0000
     21 H1        -0.9139    0.4328    7.0918 H         1 RES1    0.0000
     22 H2         2.4033    0.3907   10.3681 H         1 RES1    0.0000
     23 H3         1.9427    0.9696   12.5714 H         1 RES1    0.0000
     24 H4        -0.1668    1.8963   13.1525 H         1 RES1    0.0000
     25 H5        -1.7661    2.3144   11.5028 H         1 RES1    0.0000
     26 H6        -1.3060    1.7272    9.2693 H         1 RES1    0.0000
     27 H7        -1.3945   -1.0575    5.2941 H         1 RES1    0.0000
     28 H8        -1.9776   -1.6384    3.1008 H         1 RES1    0.0000
     29 H9         1.6333   -0.2639    1.7417 H         1 RES1    0.0000
     30 H10        2.1964    0.3797    3.9450 H         1 RES1    0.0000
@<TRIPOS>BOND
     1    1    6 2
     2    2    6 2
     3    3    4 1
     4    4    5 2
     5    5    8 1
     6    6   18 1
     7    7    3 1
     8    8    7 2
     9    9    8 1
    10   10    9 ar
    11   11   10 ar
    12   12   11 ar
    13   13   12 ar
    14   14    9 ar
    15   15    3 1
    16   16   15 ar
    17   17   16 ar
    18   18   17 ar
    19   19   18 ar
    20   20   15 ar
    21   21    7 1
    22   22   10 1
    23   23   11 1
    24   24   12 1
    25   25   13 1
    26   26   14 1
    27   27   16 1
    28   28   17 1
    29   29   19 1
    30   30   20 1
    31   13   14 ar
    32   19   20 ar
@<TRIPOS>SUBSTRUCTURE
     1 RES1 1

@<TRIPOS>CRYSIN
   5.7570    7.1980   14.8620 101.0810  99.2170  90.8590   2 1

