# MOL2 file generated by ConQuest
# Please check atom types

@<TRIPOS>MOLECULE
LOLJAX01
    32    33     1
SMALL
NO_CHARGES
****
Generated from CSD

@<TRIPOS>ATOM
      1 O1         6.4821   11.5100    5.1382 O.2       1 RES1    0.0000
      2 N1         4.8301    9.9943    5.2879 N.am      1 RES1    0.0000
      3 C1         6.1069   10.3469    5.2125 C.2       1 RES1    0.0000
      4 C2         4.0722    8.7427    5.2538 C.3       1 RES1    0.0000
      5 H1         4.1566    8.2587    4.4742 H         1 RES1    0.0000
      6 H2         4.1025    8.2489    6.0820 H         1 RES1    0.0000
      7 C3         2.7975    9.6017    5.1681 C.3       1 RES1    0.0000
      8 C4         3.6499   10.8633    5.2094 C.3       1 RES1    0.0000
      9 H3         3.6077   11.4528    4.3761 H         1 RES1    0.0000
     10 H4         3.5206   11.3473    5.9963 H         1 RES1    0.0000
     11 O2         1.3605   10.4082    3.5573 O.2       1 RES1    0.0000
     12 N2         1.9635    9.4350    3.9218 N.pl3     1 RES1    0.0000
     13 O3         0.8841    8.6716    6.1129 O.2       1 RES1    0.0000
     14 N3         1.8566    9.3643    6.3122 N.pl3     1 RES1    0.0000
     15 O4         1.9529    8.3379    3.3921 O.2       1 RES1    0.0000
     16 O5         2.1773    9.8147    7.3603 O.2       1 RES1    0.0000
     17 C1A        7.0887    9.1771    5.2125 C.2       1 RES1    0.0000
     18 O1A        6.7135    8.0140    5.1382 O.2       1 RES1    0.0000
     19 N1A        8.3655    9.5297    5.2879 N.am      1 RES1    0.0000
     20 C2A        9.1234   10.7813    5.2538 C.3       1 RES1    0.0000
     21 H1A        9.0390   11.2653    4.4742 H         1 RES1    0.0000
     22 H2A        9.0931   11.2751    6.0820 H         1 RES1    0.0000
     23 C3A       10.3981    9.9223    5.1681 C.3       1 RES1    0.0000
     24 C4A        9.5457    8.6607    5.2094 C.3       1 RES1    0.0000
     25 H3A        9.5879    8.0712    4.3761 H         1 RES1    0.0000
     26 H4A        9.6750    8.1767    5.9963 H         1 RES1    0.0000
     27 N2A       11.2321   10.0890    3.9218 N.pl3     1 RES1    0.0000
     28 O2A       11.8351    9.1158    3.5573 O.2       1 RES1    0.0000
     29 O4A       11.2427   11.1861    3.3921 O.2       1 RES1    0.0000
     30 N3A       11.3390   10.1597    6.3122 N.pl3     1 RES1    0.0000
     31 O3A       12.3115   10.8524    6.1129 O.2       1 RES1    0.0000
     32 O5A       11.0183    9.7093    7.3603 O.2       1 RES1    0.0000
@<TRIPOS>BOND
     1    1    3 2
     2    2    3 1
     3    3   17 1
     4    4    2 1
     5    5    4 1
     6    6    4 1
     7    7    4 1
     8    8    2 1
     9    9    8 1
    10   10    8 1
    11   11   12 2
    12   12    7 1
    13   13   14 2
    14   14    7 1
    15   15   12 2
    16   16   14 2
    17   17   18 2
    18   19   17 1
    19   20   19 1
    20   21   20 1
    21   22   20 1
    22   23   20 1
    23   24   19 1
    24   25   24 1
    25   26   24 1
    26   27   23 1
    27   28   27 2
    28   29   27 2
    29   30   23 1
    30   31   30 2
    31   32   30 2
    32    7    8 1
    33   23   24 1
@<TRIPOS>SUBSTRUCTURE
     1 RES1 1

@<TRIPOS>CRYSIN
  13.1956   19.5240   10.3259  90.0000  90.0000  90.0000  43 1

