# MOL2 file generated by ConQuest
# Please check atom types

@<TRIPOS>MOLECULE
LOLQAE
    56    59     1
SMALL
NO_CHARGES
****
Generated from CSD

@<TRIPOS>ATOM
      1 O1         6.1381    0.3241    2.6681 O.2       1 RES1    0.0000
      2 O2         7.3560    1.4425    4.1815 O.3       1 RES1    0.0000
      3 O3         7.1077    4.2076    9.5220 O.3       1 RES1    0.0000
      4 O4         2.4682    0.3036    3.7922 O.2       1 RES1    0.0000
      5 O5         1.0981    1.2097    5.2178 O.2       1 RES1    0.0000
      6 N1         4.2950    2.4011    2.5813 N.3       1 RES1    0.0000
      7 N2         2.1108    1.2165    4.5462 N.pl3     1 RES1    0.0000
      8 C1         5.2430    2.3235    3.6799 C.3       1 RES1    0.0000
      9 C2         4.4343    2.0382    5.0013 C.3       1 RES1    0.0000
     10 C3         2.9886    2.4467    4.6014 C.3       1 RES1    0.0000
     11 C4         3.1009    3.0470    3.1451 C.3       1 RES1    0.0000
     12 C5         6.2817    1.2439    3.4274 C.2       1 RES1    0.0000
     13 C6         8.3871    0.4222    4.0806 C.3       1 RES1    0.0000
     14 C7         5.0152    2.6932    6.2349 C.ar      1 RES1    0.0000
     15 C8         5.3391    1.9172    7.3397 C.ar      1 RES1    0.0000
     16 C9         6.0075    2.4513    8.4287 C.ar      1 RES1    0.0000
     17 C10        6.3918    3.7842    8.4225 C.ar      1 RES1    0.0000
     18 C11        6.0312    4.5990    7.3572 C.ar      1 RES1    0.0000
     19 C12        5.3499    4.0421    6.2770 C.ar      1 RES1    0.0000
     20 C13        7.7123    5.4983    9.4484 C.3       1 RES1    0.0000
     21 C14        1.8830    2.8393    2.2323 C.ar      1 RES1    0.0000
     22 C15        2.0471    2.4102    0.9163 C.ar      1 RES1    0.0000
     23 C16        0.9437    2.2482    0.0956 C.ar      1 RES1    0.0000
     24 C17       -0.3293    2.5403    0.5550 C.ar      1 RES1    0.0000
     25 C18       -0.4945    2.9899    1.8492 C.ar      1 RES1    0.0000
     26 C19        0.6014    3.1429    2.6830 C.ar      1 RES1    0.0000
     27 C20        3.3730    4.5671    3.2784 C.ar      1 RES1    0.0000
     28 C21        4.3134    5.1674    2.4436 C.ar      1 RES1    0.0000
     29 C22        4.5239    6.5528    2.5033 C.ar      1 RES1    0.0000
     30 C23        3.7984    7.3288    3.3844 C.ar      1 RES1    0.0000
     31 C24        2.8785    6.7536    4.2069 C.ar      1 RES1    0.0000
     32 C25        2.6517    5.3796    4.1604 C.ar      1 RES1    0.0000
     33 H1         4.0921    1.5749    2.3060 H         1 RES1    0.0000
     34 H2         5.6900    3.1497    3.7702 H         1 RES1    0.0000
     35 H3         4.4376    1.0956    5.1468 H         1 RES1    0.0000
     36 H4         2.6345    3.0812    5.2082 H         1 RES1    0.0000
     37 H5         5.0962    1.0043    7.3476 H         1 RES1    0.0000
     38 H6         6.1975    1.8944    9.1801 H         1 RES1    0.0000
     39 H7         6.2407    5.5234    7.3651 H         1 RES1    0.0000
     40 H8         5.1070    4.6104    5.5501 H         1 RES1    0.0000
     41 H9         2.9152    2.2368    0.5787 H         1 RES1    0.0000
     42 H10        1.0581    1.9400   -0.7891 H         1 RES1    0.0000
     43 H11       -1.0797    2.4193   -0.0175 H         1 RES1    0.0000
     44 H12       -1.3604    3.1954    2.1657 H         1 RES1    0.0000
     45 H13        0.4751    3.4464    3.5686 H         1 RES1    0.0000
     46 H14        4.8155    4.6333    1.8325 H         1 RES1    0.0000
     47 H15        5.1718    6.9613    1.9377 H         1 RES1    0.0000
     48 H16        3.9409    8.2623    3.4195 H         1 RES1    0.0000
     49 H17        2.3861    7.3037    4.8224 H         1 RES1    0.0000
     50 H18        1.9974    4.9985    4.7347 H         1 RES1    0.0000
     51 H19        7.9898   -0.4337    4.1560 H         1 RES1    0.0000
     52 H20        9.0155    0.5478    4.7786 H         1 RES1    0.0000
     53 H21        8.8211    0.5021    3.2442 H         1 RES1    0.0000
     54 H22        7.0396    6.1397    9.2941 H         1 RES1    0.0000
     55 H23        8.1517    5.6832   10.2673 H         1 RES1    0.0000
     56 H24        8.3461    5.5006    8.7417 H         1 RES1    0.0000
@<TRIPOS>BOND
     1    1   12 2
     2    2   12 1
     3    3   17 1
     4    4    7 2
     5    5    7 2
     6    6    8 1
     7    7   10 1
     8    8    9 1
     9    9   10 1
    10   10   11 1
    11   11    6 1
    12   12    8 1
    13   13    2 1
    14   14    9 1
    15   15   14 ar
    16   16   15 ar
    17   17   16 ar
    18   18   17 ar
    19   19   14 ar
    20   20    3 1
    21   21   11 1
    22   22   21 ar
    23   23   22 ar
    24   24   23 ar
    25   25   24 ar
    26   26   21 ar
    27   27   11 1
    28   28   27 ar
    29   29   28 ar
    30   30   29 ar
    31   31   30 ar
    32   32   27 ar
    33   33    6 1
    34   34    8 1
    35   35    9 1
    36   36   10 1
    37   37   15 1
    38   38   16 1
    39   39   18 1
    40   40   19 1
    41   41   22 1
    42   42   23 1
    43   43   24 1
    44   44   25 1
    45   45   26 1
    46   46   28 1
    47   47   29 1
    48   48   30 1
    49   49   31 1
    50   50   32 1
    51   51   13 1
    52   52   13 1
    53   53   13 1
    54   54   20 1
    55   55   20 1
    56   56   20 1
    57   18   19 ar
    58   25   26 ar
    59   31   32 ar
@<TRIPOS>SUBSTRUCTURE
     1 RES1 1

@<TRIPOS>CRYSIN
  10.7970   22.8240    8.7680  90.0000  90.0000  90.0000  19 1

