# MOL2 file generated by ConQuest
# Please check atom types

@<TRIPOS>MOLECULE
LOLQEI
    40    40     1
SMALL
NO_CHARGES
****
Generated from CSD

@<TRIPOS>ATOM
      1 O1        -8.0588    3.6535    7.3556 O.2       1 RES1    0.0000
      2 O2        -3.9662    4.8745    5.1393 O.2       1 RES1    0.0000
      3 O3        -3.5924    4.6961    7.3379 O.3       1 RES1    0.0000
      4 O4        -0.0884    0.3103    8.3520 O.3       1 RES1    0.0000
      5 O5        -6.1172   -1.1775    6.6917 O.2       1 RES1    0.0000
      6 O6        -5.5039   -0.4065    4.7901 O.2       1 RES1    0.0000
      7 N1        -6.5643    3.9173    5.6729 N.am      1 RES1    0.0000
      8 N2        -5.8917   -0.2544    5.9420 N.pl3     1 RES1    0.0000
      9 C1        -5.4170    3.5077    6.4598 C.3       1 RES1    0.0000
     10 C2        -4.9880    2.0665    6.0612 C.3       1 RES1    0.0000
     11 C3        -6.1160    1.1279    6.4421 C.3       1 RES1    0.0000
     12 C4        -7.8219    3.9235    6.1804 C.2       1 RES1    0.0000
     13 C5        -8.8952    4.2539    5.1878 C.3       1 RES1    0.0000
     14 C6        -4.2669    4.4494    6.2186 C.2       1 RES1    0.0000
     15 C7        -2.3504    5.4128    7.1805 C.3       1 RES1    0.0000
     16 C8        -3.6488    1.6383    6.6497 C.ar      1 RES1    0.0000
     17 C9        -3.4924    1.4381    8.0205 C.ar      1 RES1    0.0000
     18 C10       -2.3013    1.0038    8.5438 C.ar      1 RES1    0.0000
     19 C11       -1.2152    0.7633    7.7141 C.ar      1 RES1    0.0000
     20 C12       -1.3308    0.9960    6.3555 C.ar      1 RES1    0.0000
     21 C13       -2.5515    1.4211    5.8452 C.ar      1 RES1    0.0000
     22 C14        1.0525    0.0465    7.5363 C.3       1 RES1    0.0000
     23 H1        -6.4617    4.0802    4.7864 H         1 RES1    0.0000
     24 H2        -5.6449    3.5217    7.3845 H         1 RES1    0.0000
     25 H3        -4.9052    2.0478    5.1123 H         1 RES1    0.0000
     26 H4        -4.2300    1.5979    8.6044 H         1 RES1    0.0000
     27 H5        -2.2230    0.8688    9.4797 H         1 RES1    0.0000
     28 H6        -0.5912    0.8688    5.7828 H         1 RES1    0.0000
     29 H7        -2.6300    1.5669    4.9075 H         1 RES1    0.0000
     30 H8        -6.9276    1.4583    6.0715 H         1 RES1    0.0000
     31 H9        -6.1892    1.1015    7.3938 H         1 RES1    0.0000
     32 H10       -9.1014    5.1817    5.2427 H         1 RES1    0.0000
     33 H11       -9.6724    3.7389    5.3731 H         1 RES1    0.0000
     34 H12       -8.5847    4.0492    4.3115 H         1 RES1    0.0000
     35 H13       -1.7638    4.9024    6.6302 H         1 RES1    0.0000
     36 H14       -1.9490    5.5540    8.0363 H         1 RES1    0.0000
     37 H15       -2.5186    6.2521    6.7699 H         1 RES1    0.0000
     38 H16        0.8361   -0.6050    6.8909 H         1 RES1    0.0000
     39 H17        1.7638   -0.2637    8.0829 H         1 RES1    0.0000
     40 H18        1.3168    0.8533    7.0958 H         1 RES1    0.0000
@<TRIPOS>BOND
     1    1   12 2
     2    2   14 2
     3    3   14 1
     4    4   19 1
     5    5    8 2
     6    6    8 2
     7    7    9 1
     8    8   11 1
     9    9   10 1
    10   10   11 1
    11   11   30 1
    12   12    7 1
    13   13   12 1
    14   14    9 1
    15   15    3 1
    16   16   10 1
    17   17   16 ar
    18   18   17 ar
    19   19   18 ar
    20   20   19 ar
    21   21   16 ar
    22   22    4 1
    23   23    7 1
    24   24    9 1
    25   25   10 1
    26   26   17 1
    27   27   18 1
    28   28   20 1
    29   29   21 1
    30   31   11 1
    31   32   13 1
    32   33   13 1
    33   34   13 1
    34   35   15 1
    35   36   15 1
    36   37   15 1
    37   38   22 1
    38   39   22 1
    39   40   22 1
    40   20   21 ar
@<TRIPOS>SUBSTRUCTURE
     1 RES1 1

@<TRIPOS>CRYSIN
  10.6000   15.5140   10.0140  90.0000 111.5800  90.0000  14 1

