# MOL2 file generated by ConQuest
# Please check atom types

@<TRIPOS>MOLECULE
LOLVUF
    98   104     2
SMALL
NO_CHARGES
****
Generated from CSD

@<TRIPOS>ATOM
      1 N1        10.2698    2.4802    3.2996 N.pl3     1 RES1    0.0000
      2 O1         9.9633    1.4261    2.6315 O.2       1 RES1    0.0000
      3 C1         9.2151    3.3840    3.8844 C.3       1 RES1    0.0000
      4 N2        11.4596    4.0112    4.3174 N.pl3     1 RES1    0.0000
      5 O2        12.4652    4.6337    4.7938 O.2       1 RES1    0.0000
      6 C2         8.1615    3.6703    2.8262 C.3       1 RES1    0.0000
      7 H1         7.6770    2.8558    2.6234 H         1 RES1    0.0000
      8 H2         8.5932    3.9989    2.0221 H         1 RES1    0.0000
      9 H3         7.5432    4.3400    3.1590 H         1 RES1    0.0000
     10 N3        14.1352    0.6569    2.5637 N.pl3     1 RES1    0.0000
     11 C3         8.5925    2.6188    5.0383 C.3       1 RES1    0.0000
     12 H4         8.0712    1.8782    4.6906 H         1 RES1    0.0000
     13 H5         8.0147    3.2113    5.5438 H         1 RES1    0.0000
     14 H6         9.2932    2.2795    5.6171 H         1 RES1    0.0000
     15 N4        14.9137    1.5521    3.2321 N.2       1 RES1    0.0000
     16 C4        10.0759    4.6046    4.3138 C.3       1 RES1    0.0000
     17 N5        13.8673   -1.2730    1.3433 N.ar      1 RES1    0.0000
     18 C5         9.7893    5.1701    5.7017 C.3       1 RES1    0.0000
     19 H7        10.3791    5.9224    5.8727 H         1 RES1    0.0000
     20 H8         9.9416    4.4823    6.3688 H         1 RES1    0.0000
     21 H9         8.8667    5.4650    5.7468 H         1 RES1    0.0000
     22 C6        10.0814    5.7315    3.2834 C.3       1 RES1    0.0000
     23 H10       10.6346    6.4608    3.6044 H         1 RES1    0.0000
     24 H11        9.1750    6.0483    3.1459 H         1 RES1    0.0000
     25 H12       10.4392    5.4005    2.4449 H         1 RES1    0.0000
     26 C7        11.5120    2.8330    3.6676 C.2       1 RES1    0.0000
     27 C8        12.7146    2.1032    3.3757 C.2       1 RES1    0.0000
     28 C9        12.8238    0.9520    2.6295 C.2       1 RES1    0.0000
     29 H13       12.1183    0.4664    2.2420 H         1 RES1    0.0000
     30 C10       14.0545    2.4261    3.7200 C.2       1 RES1    0.0000
     31 H14       14.2989    3.1734    4.2340 H         1 RES1    0.0000
     32 C11       14.7270   -0.4263    1.8426 C.ar      1 RES1    0.0000
     33 C12       14.3981   -2.3182    0.6220 C.ar      1 RES1    0.0000
     34 C13       13.4943   -3.2414    0.0569 C.ar      1 RES1    0.0000
     35 H15       12.5696   -3.1274    0.1804 H         1 RES1    0.0000
     36 C14       13.9612   -4.3018   -0.6703 C.ar      1 RES1    0.0000
     37 H16       13.3544   -4.9177   -1.0411 H         1 RES1    0.0000
     38 C15       15.3274   -4.4753   -0.8654 C.ar      1 RES1    0.0000
     39 H17       15.6358   -5.2076   -1.3662 H         1 RES1    0.0000
     40 C16       16.2287   -3.5906   -0.3358 C.ar      1 RES1    0.0000
     41 H18       17.1493   -3.7208   -0.4773 H         1 RES1    0.0000
     42 C17       15.7853   -2.4809    0.4243 C.ar      1 RES1    0.0000
     43 C18       16.6707   -1.5198    0.9926 C.ar      1 RES1    0.0000
     44 C19       18.1602   -1.6065    0.7897 C.3       1 RES1    0.0000
     45 H19       18.5922   -0.8694    1.2478 H         1 RES1    0.0000
     46 H20       18.3604   -1.5586   -0.1579 H         1 RES1    0.0000
     47 H21       18.4861   -2.4467    1.1482 H         1 RES1    0.0000
     48 C20       16.1190   -0.4869    1.7073 C.ar      1 RES1    0.0000
     49 H22       16.6659    0.1702    2.0991 H         1 RES1    0.0000
     50 O3         6.3960    5.2813    5.5590 O.2       2 RES2    0.0000
     51 N6         5.6861    6.3357    5.7603 N.pl3     2 RES2    0.0000
     52 C21        5.7307    7.5022    4.8205 C.3       2 RES2    0.0000
     53 O4         3.5159    8.3029    7.5106 O.2       2 RES2    0.0000
     54 C22        4.1791    2.2339   10.8209 C.ar      2 RES2    0.0000
     55 H23        3.3872    2.7067   11.0030 H         2 RES2    0.0000
     56 N7         4.3245    7.7653    6.6729 N.pl3     2 RES2    0.0000
     57 C23        7.0829    8.1760    5.0266 C.3       2 RES2    0.0000
     58 H24        7.7871    7.5976    4.6925 H         2 RES2    0.0000
     59 H25        7.2209    8.3406    5.9723 H         2 RES2    0.0000
     60 H26        7.1014    9.0184    4.5459 H         2 RES2    0.0000
     61 C24        5.6120    6.9920    3.3964 C.3       2 RES2    0.0000
     62 H27        6.4046    6.4794    3.1703 H         2 RES2    0.0000
     63 H28        5.5295    7.7440    2.7888 H         2 RES2    0.0000
     64 H29        4.8282    6.4254    3.3206 H         2 RES2    0.0000
     65 N8         4.8855    4.0395    9.3715 N.pl3     2 RES2    0.0000
     66 C25        4.5298    8.3436    5.3217 C.3       2 RES2    0.0000
     67 N9         3.8159    4.7753    9.7875 N.2       2 RES2    0.0000
     68 N10        6.2988    2.2289    9.6829 N.ar      2 RES2    0.0000
     69 C26        3.2349    8.1067    4.5698 C.3       2 RES2    0.0000
     70 H30        2.5367    8.6678    4.9424 H         2 RES2    0.0000
     71 H31        2.9780    7.1743    4.6530 H         2 RES2    0.0000
     72 H32        3.3596    8.3251    3.6326 H         2 RES2    0.0000
     73 C27        4.7723    9.8268    5.4600 C.3       2 RES2    0.0000
     74 H33        3.9637   10.2585    5.7768 H         2 RES2    0.0000
     75 H34        5.0198   10.1960    4.5985 H         2 RES2    0.0000
     76 H35        5.4908    9.9788    6.0944 H         2 RES2    0.0000
     77 C28        4.9416    6.5760    6.8379 C.2       2 RES2    0.0000
     78 C29        4.7634    5.6992    7.9585 C.2       2 RES2    0.0000
     79 C30        5.4677    4.5568    8.2723 C.2       2 RES2    0.0000
     80 H36        6.2077    4.2084    7.8102 H         2 RES2    0.0000
     81 C31        3.7538    5.7779    8.9422 C.2       2 RES2    0.0000
     82 H37        3.1145    6.4658    8.9866 H         2 RES2    0.0000
     83 C32        5.1619    2.7843    9.9935 C.ar      2 RES2    0.0000
     84 C33        6.5473    0.9913   10.2230 C.ar      2 RES2    0.0000
     85 C34        7.7416    0.3301    9.8937 C.ar      2 RES2    0.0000
     86 H38        8.3647    0.7550    9.3324 H         2 RES2    0.0000
     87 C35        8.0145   -0.9187   10.3731 C.ar      2 RES2    0.0000
     88 H39        8.8186   -1.3446   10.1367 H         2 RES2    0.0000
     89 C36        7.1071   -1.5696   11.2128 C.ar      2 RES2    0.0000
     90 H40        7.2990   -2.4295   11.5405 H         2 RES2    0.0000
     91 C37        5.9422   -0.9505   11.5542 C.ar      2 RES2    0.0000
     92 H41        5.3411   -1.3905   12.1268 H         2 RES2    0.0000
     93 C38        5.6127    0.3357   11.0701 C.ar      2 RES2    0.0000
     94 C39        4.3910    0.9945   11.3629 C.ar      2 RES2    0.0000
     95 C40        3.3243    0.3401   12.1911 C.3       2 RES2    0.0000
     96 H42        2.5688    0.9424   12.2809 H         2 RES2    0.0000
     97 H43        3.6779    0.1322   13.0702 H         2 RES2    0.0000
     98 H44        3.0353   -0.4781   11.7585 H         2 RES2    0.0000
@<TRIPOS>BOND
     1    1    2 1
     2    3    1 1
     3    4    5 1
     4    6    3 1
     5    7    6 1
     6    8    6 1
     7    9    6 1
     8   10   15 1
     9   11    3 1
    10   12   11 1
    11   13   11 1
    12   14   11 1
    13   15   30 2
    14   16    3 1
    15   17   32 ar
    16   18   16 1
    17   19   18 1
    18   20   18 1
    19   21   18 1
    20   22   16 1
    21   23   22 1
    22   24   22 1
    23   25   22 1
    24   26    1 2
    25   27   26 1
    26   28   10 1
    27   29   28 1
    28   30   27 1
    29   31   30 1
    30   32   10 1
    31   33   17 ar
    32   34   33 ar
    33   35   34 1
    34   36   34 ar
    35   37   36 1
    36   38   36 ar
    37   39   38 1
    38   40   38 ar
    39   41   40 1
    40   42   33 ar
    41   43   42 ar
    42   44   43 1
    43   45   44 1
    44   46   44 1
    45   47   44 1
    46   48   32 ar
    47   49   48 1
    48   50   51 1
    49   51   52 1
    50   52   57 1
    51   53   56 1
    52   54   55 1
    53   56   66 1
    54   57   58 1
    55   59   57 1
    56   60   57 1
    57   61   52 1
    58   62   61 1
    59   63   61 1
    60   64   61 1
    61   65   67 1
    62   66   52 1
    63   67   81 2
    64   68   83 ar
    65   69   66 1
    66   70   69 1
    67   71   69 1
    68   72   69 1
    69   73   66 1
    70   74   73 1
    71   75   73 1
    72   76   73 1
    73   77   51 2
    74   78   77 1
    75   79   65 1
    76   80   79 1
    77   81   78 1
    78   82   81 1
    79   83   54 ar
    80   84   68 ar
    81   85   84 ar
    82   86   85 1
    83   87   85 ar
    84   88   87 1
    85   89   87 ar
    86   90   89 1
    87   91   89 ar
    88   92   91 1
    89   93   84 ar
    90   94   54 ar
    91   95   94 1
    92   96   95 1
    93   97   95 1
    94   98   95 1
    95    4   16 1
    96    4   26 1
    97   27   28 2
    98   40   42 ar
    99   43   48 ar
   100   56   77 1
   101   65   83 1
   102   78   79 2
   103   91   93 ar
   104   93   94 ar
@<TRIPOS>SUBSTRUCTURE
     1 RES1 1
     2 RES2 50

@<TRIPOS>CRYSIN
   9.4709   11.0272   18.8048  87.9320  89.2530  70.1000   2 1

