# MOL2 file generated by ConQuest
# Please check atom types

@<TRIPOS>MOLECULE
LOMPEI
    89    84     3
SMALL
NO_CHARGES
****
Generated from CSD

@<TRIPOS>ATOM
      1 C1         5.6820    3.5008    4.7159 C.2       1 RES1    0.0000
      2 C2         4.2831    3.0778    4.4261 C.2       1 RES1    0.0000
      3 C3         3.9495    2.4989    3.2742 C.2       1 RES1    0.0000
      4 H1         4.6435    2.4573    2.6141 H         1 RES1    0.0000
      5 C4         2.6433    1.9198    2.8755 C.ar      1 RES1    0.0000
      6 C5         1.7414    1.3341    3.7752 C.ar      1 RES1    0.0000
      7 H2         1.9404    1.3466    4.7129 H         1 RES1    0.0000
      8 C6         0.5838    0.7681    3.3001 C.ar      1 RES1    0.0000
      9 H3        -0.0175    0.3691    3.9324 H         1 RES1    0.0000
     10 N1         0.2306    0.7130    2.0172 N.ar      1 RES1    0.0000
     11 C7         1.0963    1.2692    1.1639 C.ar      1 RES1    0.0000
     12 H4         0.8715    1.2602    0.2313 H         1 RES1    0.0000
     13 C8         2.2883    1.8519    1.5393 C.ar      1 RES1    0.0000
     14 H5         2.8819    2.2093    0.8764 H         1 RES1    0.0000
     15 N2         5.8085    4.1035    5.8439 N.2       1 RES1    0.0000
     16 O1         7.1340    4.4554    6.1137 O.3       1 RES1    0.0000
     17 H6         7.1373    4.7883    7.1257 H         1 RES1    0.0000
     18 C9         3.2788    3.3664    5.4978 C.ar      1 RES1    0.0000
     19 C10        3.3299    2.7365    6.7208 C.ar      1 RES1    0.0000
     20 H7         4.0456    2.1223    6.8982 H         1 RES1    0.0000
     21 C11        2.3719    3.0227    7.6937 C.ar      1 RES1    0.0000
     22 H8         2.3900    2.5892    8.5475 H         1 RES1    0.0000
     23 C12        1.3631    3.9340    7.4134 C.ar      1 RES1    0.0000
     24 H9         0.6984    4.1561    8.0679 H         1 RES1    0.0000
     25 C13        1.3096    4.5214    6.2192 C.ar      1 RES1    0.0000
     26 H10        0.5933    5.1306    6.0255 H         1 RES1    0.0000
     27 C14        2.2607    4.2704    5.2432 C.ar      1 RES1    0.0000
     28 H11        2.2306    4.7151    4.3932 H         1 RES1    0.0000
     29 C15        6.8308    3.2302    3.7810 C.3       1 RES1    0.0000
     30 H12        6.6106    2.5171    3.1783 H         1 RES1    0.0000
     31 H13        7.5963    2.9661    4.2954 H         1 RES1    0.0000
     32 C16        7.1949    4.4746    2.9616 C.3       1 RES1    0.0000
     33 H14        7.1774    5.2232    3.5638 H         1 RES1    0.0000
     34 H15        6.5065    4.6113    2.3075 H         1 RES1    0.0000
     35 C17        8.4696    4.4808    2.3057 C.3       1 RES1    0.0000
     36 H16        8.4748    3.7702    1.6625 H         1 RES1    0.0000
     37 H17        9.1600    4.3041    2.9488 H         1 RES1    0.0000
     38 C18        8.7801    5.8151    1.6343 C.3       1 RES1    0.0000
     39 H18        8.1336    5.9562    0.9403 H         1 RES1    0.0000
     40 H19        9.6598    5.7883    1.2544 H         1 RES1    0.0000
     41 H20        8.7283    6.5334    2.2699 H         1 RES1    0.0000
     42 C19        4.9724    3.3795   14.9988 C.2       2 RES2    0.0000
     43 C20        4.9928    3.6047   13.5366 C.2       2 RES2    0.0000
     44 C21        6.0569    4.1479   12.9301 C.2       2 RES2    0.0000
     45 H21        6.7677    4.4213   13.5123 H         2 RES2    0.0000
     46 C22        6.2953    4.3673   11.5048 C.ar      2 RES2    0.0000
     47 C23        5.8932    3.4964   10.5086 C.ar      2 RES2    0.0000
     48 H22        5.3717    2.7247   10.7346 H         2 RES2    0.0000
     49 C24        6.2362    3.7309    9.2121 C.ar      2 RES2    0.0000
     50 H23        5.9611    3.0972    8.5456 H         2 RES2    0.0000
     51 N3         6.9216    4.7924    8.7914 N.ar      2 RES2    0.0000
     52 C25        7.2790    5.6394    9.7375 C.ar      2 RES2    0.0000
     53 H24        7.7738    6.4150    9.4671 H         2 RES2    0.0000
     54 C26        7.0005    5.4676   11.0707 C.ar      2 RES2    0.0000
     55 H25        7.2801    6.1294   11.7088 H         2 RES2    0.0000
     56 N4         3.8342    2.9801   15.4528 N.2       2 RES2    0.0000
     57 O2         3.8388    2.7699   16.8382 O.3       2 RES2    0.0000
     58 H26        3.0470    2.2373   17.0197 H         2 RES2    0.0000
     59 C27        3.7492    3.2423   12.7840 C.ar      2 RES2    0.0000
     60 C28        3.4203    1.9173   12.5369 C.ar      2 RES2    0.0000
     61 H27        4.0155    1.2269   12.8391 H         2 RES2    0.0000
     62 C29        2.2566    1.5929   11.8600 C.ar      2 RES2    0.0000
     63 H28        2.0582    0.6713   11.6806 H         2 RES2    0.0000
     64 C30        1.3958    2.5859   11.4536 C.ar      2 RES2    0.0000
     65 H29        0.5810    2.3694   10.9961 H         2 RES2    0.0000
     66 C31        1.7225    3.8899   11.6956 C.ar      2 RES2    0.0000
     67 H30        1.1213    4.5805   11.4098 H         2 RES2    0.0000
     68 C32        2.8910    4.2230   12.3574 C.ar      2 RES2    0.0000
     69 H31        3.0887    5.1471   12.5269 H         2 RES2    0.0000
     70 C33        6.1985    3.5781   15.8703 C.3       2 RES2    0.0000
     71 H32        6.9904    3.4074   15.3572 H         2 RES2    0.0000
     72 H33        6.1697    2.9501   16.5947 H         2 RES2    0.0000
     73 C34        6.2704    4.9723   16.4311 C.3       2 RES2    0.0000
     74 H34        5.4908    5.1417   16.9633 H         2 RES2    0.0000
     75 H35        6.2862    5.6058   15.7108 H         2 RES2    0.0000
     76 C35        7.4347    4.9224   17.6121 C.3       2 RES2    0.0000
     77 H36        8.2953    4.6668   17.2680 H         2 RES2    0.0000
     78 H37        7.1852    4.3260   18.3211 H         2 RES2    0.0000
     79 C36        7.3814    6.4059   18.1481 C.3       2 RES2    0.0000
     80 H38        8.0182    6.5205   18.8571 H         2 RES2    0.0000
     81 H39        7.6153    6.9776   17.4128 H         2 RES2    0.0000
     82 H40        6.5042    6.6358   18.4659 H         2 RES2    0.0000
     83 C37        7.5880    5.3767   17.0630 Du        3 SUP3    0.0000
     84 H41        7.7120    6.3244   17.1551 Du        3 SUP3    0.0000
     85 H42        8.3002    5.0207   16.5270 Du        3 SUP3    0.0000
     86 C38        7.6966    4.6505   18.4339 Du        3 SUP3    0.0000
     87 H43        8.5244    4.8001   18.8966 Du        3 SUP3    0.0000
     88 H44        6.9722    5.0142   18.9474 Du        3 SUP3    0.0000
     89 H45        7.5627    3.7070   18.3155 Du        3 SUP3    0.0000
@<TRIPOS>BOND
     1    1    2 1
     2    2    3 2
     3    3    4 1
     4    5    3 1
     5    6    5 ar
     6    7    6 1
     7    8    6 ar
     8    9    8 1
     9   10    8 ar
    10   11   10 ar
    11   12   11 1
    12   13    5 ar
    13   14   13 1
    14   15    1 2
    15   16   15 1
    16   17   16 1
    17   18    2 1
    18   19   18 ar
    19   20   19 1
    20   21   19 ar
    21   22   21 1
    22   23   21 ar
    23   24   23 1
    24   25   23 ar
    25   26   25 1
    26   27   18 ar
    27   28   27 1
    28   29    1 1
    29   30   29 1
    30   31   29 1
    31   32   29 1
    32   33   32 1
    33   34   32 1
    34   35   32 1
    35   36   35 1
    36   37   35 1
    37   38   35 1
    38   39   38 1
    39   40   38 1
    40   41   38 1
    41   42   43 1
    42   43   44 2
    43   44   45 1
    44   46   44 1
    45   47   46 ar
    46   48   47 1
    47   49   47 ar
    48   50   49 1
    49   51   49 ar
    50   52   51 ar
    51   53   52 1
    52   54   46 ar
    53   55   54 1
    54   56   42 2
    55   57   56 1
    56   58   57 1
    57   59   43 1
    58   60   59 ar
    59   61   60 1
    60   62   60 ar
    61   63   62 1
    62   64   62 ar
    63   65   64 1
    64   66   64 ar
    65   67   66 1
    66   68   59 ar
    67   69   68 1
    68   70   42 1
    69   71   70 1
    70   72   70 1
    71   73   70 1
    72   74   73 1
    73   75   73 1
    74   76   73 1
    75   77   76 1
    76   78   76 1
    77   79   76 1
    78   80   79 1
    79   81   79 1
    80   82   79 1
    81   11   13 ar
    82   25   27 ar
    83   52   54 ar
    84   66   68 ar
@<TRIPOS>SUBSTRUCTURE
     1 RES1 1
     2 RES2 42
     3 SUP3 83

@<TRIPOS>CRYSIN
   9.0940    9.6542   19.0260  82.3380  85.5450  87.5300   2 1

