# MOL2 file generated by ConQuest
# Please check atom types

@<TRIPOS>MOLECULE
LOMPAE
    70    72     2
SMALL
NO_CHARGES
****
Generated from CSD

@<TRIPOS>ATOM
      1 C1         5.2782    4.0543    6.7781 C.2       1 RES1    0.0000
      2 C2         5.9257    4.0347    8.1084 C.2       1 RES1    0.0000
      3 C3         7.2293    4.3445    8.2417 C.2       1 RES1    0.0000
      4 H1         7.6815    4.5618    7.4233 H         1 RES1    0.0000
      5 C4         8.0703    4.3853    9.4400 C.ar      1 RES1    0.0000
      6 C5         7.7705    3.8508   10.6890 C.ar      1 RES1    0.0000
      7 H2         6.9215    3.4217   10.8237 H         1 RES1    0.0000
      8 C6         8.6629    3.9446   11.7247 C.ar      1 RES1    0.0000
      9 H3         8.4189    3.5553   12.5685 H         1 RES1    0.0000
     10 N1         9.8612    4.5277   11.6314 N.ar      1 RES1    0.0000
     11 C7        10.1471    5.0527   10.4424 C.ar      1 RES1    0.0000
     12 H4        11.0004    5.4793   10.3411 H         1 RES1    0.0000
     13 C8         9.3186    4.9963    9.3561 C.ar      1 RES1    0.0000
     14 H5         9.5931    5.3885    8.5243 H         1 RES1    0.0000
     15 N2         4.0162    3.7144    6.8165 N.2       1 RES1    0.0000
     16 O1         3.3884    3.7336    5.5755 O.3       1 RES1    0.0000
     17 H6         2.3884    3.5184    5.8264 H         1 RES1    0.0000
     18 C9         5.0262    3.6996    9.2548 C.ar      1 RES1    0.0000
     19 C10        4.6036    2.4130    9.4974 C.ar      1 RES1    0.0000
     20 H7         4.9015    1.7010    8.9269 H         1 RES1    0.0000
     21 C11        3.7545    2.1420   10.5491 C.ar      1 RES1    0.0000
     22 H8         3.4793    1.2393   10.7237 H         1 RES1    0.0000
     23 C12        3.3065    3.1530   11.3635 C.ar      1 RES1    0.0000
     24 H9         2.7087    2.9558   12.0886 H         1 RES1    0.0000
     25 C13        3.7144    4.4614   11.1422 C.ar      1 RES1    0.0000
     26 C14        4.5672    4.7155   10.0799 C.ar      1 RES1    0.0000
     27 H10        4.8467    5.6184    9.9092 H         1 RES1    0.0000
     28 C15        3.2410    5.5826   12.0433 C.3       1 RES1    0.0000
     29 H11        3.9850    5.9099   12.5538 H         1 RES1    0.0000
     30 H12        2.5703    5.2386   12.6378 H         1 RES1    0.0000
     31 H13        2.8702    6.2990   11.5221 H         1 RES1    0.0000
     32 C16        5.9869    4.4429    5.5278 C.3       1 RES1    0.0000
     33 H14        5.3743    4.3899    4.7907 H         1 RES1    0.0000
     34 H15        6.7252    3.8490    5.3732 H         1 RES1    0.0000
     35 H16        6.3101    5.3421    5.6118 H         1 RES1    0.0000
     36 C17       -2.7207   -0.7815   10.9490 C.2       2 RES2    0.0000
     37 C18       -1.5701   -0.0979   10.3131 C.2       2 RES2    0.0000
     38 C19       -1.7042    0.4888    9.1161 C.2       2 RES2    0.0000
     39 H17       -2.5808    0.4351    8.7269 H         2 RES2    0.0000
     40 C20       -0.7199    1.2019    8.2990 C.ar      2 RES2    0.0000
     41 C21        0.4461    1.7716    8.7576 C.ar      2 RES2    0.0000
     42 H18        0.6757    1.6954    9.6866 H         2 RES2    0.0000
     43 C22        1.2852    2.4423    7.8991 C.ar      2 RES2    0.0000
     44 H19        2.0933    2.8117    8.2617 H         2 RES2    0.0000
     45 N3         1.0520    2.6081    6.6142 N.ar      2 RES2    0.0000
     46 C23       -0.0993    2.1317    6.1929 C.ar      2 RES2    0.0000
     47 H20       -0.3327    2.2943    5.2772 H         2 RES2    0.0000
     48 C24       -0.9866    1.4289    6.9741 C.ar      2 RES2    0.0000
     49 H21       -1.7941    1.0866    6.5848 H         2 RES2    0.0000
     50 N4        -2.4530   -1.2927   12.1073 N.2       2 RES2    0.0000
     51 O2        -3.5509   -1.9271   12.6902 O.3       2 RES2    0.0000
     52 H22       -3.0729   -2.2046   13.6695 H         2 RES2    0.0000
     53 C25       -0.2846   -0.1887   11.0636 C.ar      2 RES2    0.0000
     54 C26        0.0009    0.6386   12.1326 C.ar      2 RES2    0.0000
     55 H23       -0.6187    1.3333   12.3699 H         2 RES2    0.0000
     56 C27        1.1774    0.4688   12.8351 C.ar      2 RES2    0.0000
     57 H24        1.3647    1.0263   13.5562 H         2 RES2    0.0000
     58 C28        2.0670   -0.5038   12.4872 C.ar      2 RES2    0.0000
     59 H25        2.8493   -0.6122   12.9791 H         2 RES2    0.0000
     60 C29        1.8169   -1.3287   11.4088 C.ar      2 RES2    0.0000
     61 C30        0.6415   -1.1601   10.7170 C.ar      2 RES2    0.0000
     62 H26        0.4575   -1.7358    9.9692 H         2 RES2    0.0000
     63 C31        2.8051   -2.4182   11.0049 C.3       2 RES2    0.0000
     64 H27        2.7438   -2.5754   10.0599 H         2 RES2    0.0000
     65 H28        3.6977   -2.1449   11.2262 H         2 RES2    0.0000
     66 H29        2.5913   -3.2257   11.4781 H         2 RES2    0.0000
     67 C32       -4.0650   -0.8524   10.3078 C.3       2 RES2    0.0000
     68 H30       -4.6716   -0.2812   10.7850 H         2 RES2    0.0000
     69 H31       -4.0107   -0.5691    9.3921 H         2 RES2    0.0000
     70 H32       -4.3827   -1.7575   10.3451 H         2 RES2    0.0000
@<TRIPOS>BOND
     1    1    2 1
     2    2    3 2
     3    3    4 1
     4    5    3 1
     5    6    5 ar
     6    7    6 1
     7    8    6 ar
     8    9    8 1
     9   10    8 ar
    10   11   10 ar
    11   12   11 1
    12   13    5 ar
    13   14   13 1
    14   15    1 2
    15   16   15 1
    16   17   16 1
    17   18    2 1
    18   19   18 ar
    19   20   19 1
    20   21   19 ar
    21   22   21 1
    22   23   21 ar
    23   24   23 1
    24   25   23 ar
    25   26   18 ar
    26   27   26 1
    27   28   25 1
    28   29   28 1
    29   30   28 1
    30   31   28 1
    31   32    1 1
    32   33   32 1
    33   34   32 1
    34   35   32 1
    35   36   37 1
    36   37   38 2
    37   38   39 1
    38   40   38 1
    39   41   40 ar
    40   42   41 1
    41   43   41 ar
    42   44   43 1
    43   45   43 ar
    44   46   45 ar
    45   47   46 1
    46   48   40 ar
    47   49   48 1
    48   50   36 2
    49   51   50 1
    50   52   51 1
    51   53   37 1
    52   54   53 ar
    53   55   54 1
    54   56   54 ar
    55   57   56 1
    56   58   56 ar
    57   59   58 1
    58   60   58 ar
    59   61   53 ar
    60   62   61 1
    61   63   60 1
    62   64   63 1
    63   65   63 1
    64   66   63 1
    65   67   36 1
    66   68   67 1
    67   69   67 1
    68   70   67 1
    69   11   13 ar
    70   25   26 ar
    71   46   48 ar
    72   60   61 ar
@<TRIPOS>SUBSTRUCTURE
     1 RES1 1
     2 RES2 36

@<TRIPOS>CRYSIN
  10.5015   10.9308   13.9105  79.8930  73.9470  66.8990   2 1

