# MOL2 file generated by ConQuest
# Please check atom types

@<TRIPOS>MOLECULE
LOMPOS
    25    25     1
SMALL
NO_CHARGES
****
Generated from CSD

@<TRIPOS>ATOM
      1 C1         4.1659    0.9609    9.5402 C.2       1 RES1    0.0000
      2 C2         3.2111    1.6752   10.4231 C.2       1 RES1    0.0000
      3 C3         2.1945    0.9997   10.9867 C.2       1 RES1    0.0000
      4 H1         2.1739    0.0558   10.8208 H         1 RES1    0.0000
      5 C4         1.1113    1.5344   11.8359 C.ar      1 RES1    0.0000
      6 C5         1.3022    2.4404   12.8737 C.ar      1 RES1    0.0000
      7 H2         2.1837    2.7522   13.0822 H         1 RES1    0.0000
      8 C6         0.2100    2.8837   13.5939 C.ar      1 RES1    0.0000
      9 H3         0.3610    3.5132   14.3013 H         1 RES1    0.0000
     10 N1        -1.0412    2.4920   13.3742 N.ar      1 RES1    0.0000
     11 C7        -1.2232    1.5896   12.4013 C.ar      1 RES1    0.0000
     12 H4        -2.1129    1.2760   12.2335 H         1 RES1    0.0000
     13 C8        -0.1926    1.0971   11.6286 C.ar      1 RES1    0.0000
     14 H5        -0.3708    0.4433   10.9503 H         1 RES1    0.0000
     15 N2         5.0432    1.7081    8.9642 N.2       1 RES1    0.0000
     16 O1         5.8995    0.9641    8.1458 O.3       1 RES1    0.0000
     17 H6         6.4920    1.6356    7.7583 H         1 RES1    0.0000
     18 C9         3.4225    3.1502   10.5895 C.3       1 RES1    0.0000
     19 H7         2.6416    3.5411   10.9875 H         1 RES1    0.0000
     20 H8         3.5782    3.5481    9.7299 H         1 RES1    0.0000
     21 H9         4.1797    3.3060   11.1541 H         1 RES1    0.0000
     22 C10        4.1108   -0.5176    9.3180 C.3       1 RES1    0.0000
     23 H10        4.1754   -0.7012    8.3787 H         1 RES1    0.0000
     24 H11        3.2811   -0.8596    9.6568 H         1 RES1    0.0000
     25 H12        4.8396   -0.9393    9.7748 H         1 RES1    0.0000
@<TRIPOS>BOND
     1    1    2 1
     2    2    3 2
     3    3    4 1
     4    5    3 1
     5    6    5 ar
     6    7    6 1
     7    8    6 ar
     8    9    8 1
     9   10    8 ar
    10   11   10 ar
    11   12   11 1
    12   13    5 ar
    13   14   13 1
    14   15    1 2
    15   16   15 1
    16   17   16 1
    17   18    2 1
    18   19   18 1
    19   20   18 1
    20   21   18 1
    21   22    1 1
    22   23   22 1
    23   24   22 1
    24   25   22 1
    25   11   13 ar
@<TRIPOS>SUBSTRUCTURE
     1 RES1 1

@<TRIPOS>CRYSIN
   7.6070    9.9609   13.0772  90.0000 101.3960  90.0000  14 1

