# MOL2 file generated by ConQuest
# Please check atom types

@<TRIPOS>MOLECULE
LOMXOB
    98   104     2
SMALL
NO_CHARGES
****
Generated from CSD

@<TRIPOS>ATOM
      1 O1        10.5491    3.0081    2.4735 O.2       1 RES1    0.0000
      2 O2        11.3016    8.9636    2.8223 O.2       1 RES1    0.0000
      3 O3        15.2238    6.8038    2.2550 O.2       1 RES1    0.0000
      4 O4        -3.2326    3.1221    2.3059 O.2       2 RES2    0.0000
      5 O5         2.1363    0.4558    2.0031 O.2       2 RES2    0.0000
      6 O6         2.5052    4.9579    2.5498 O.2       2 RES2    0.0000
      7 N1        13.2585    7.8596    2.3384 N.am      1 RES1    0.0000
      8 N2        11.3852    4.0438    2.4362 N.3       1 RES1    0.0000
      9 N3         2.3286    2.7271    2.2487 N.am      2 RES2    0.0000
     10 N4        -1.9712    3.0436    2.2590 N.3       2 RES2    0.0000
     11 C1        12.4532   11.5185    2.1827 C.ar      1 RES1    0.0000
     12 C2        13.0935   12.7365    1.8990 C.ar      1 RES1    0.0000
     13 C3        14.5144   12.7061    1.5892 C.ar      1 RES1    0.0000
     14 C4        15.1772   11.5160    1.6416 C.ar      1 RES1    0.0000
     15 C5        16.5047   11.4983    1.3905 C.ar      1 RES1    0.0000
     16 C6        17.3106   10.3943    1.3826 C.ar      1 RES1    0.0000
     17 C7        16.6795    9.1535    1.6917 C.ar      1 RES1    0.0000
     18 C8        15.3028    9.1206    1.9833 C.ar      1 RES1    0.0000
     19 C9        14.5299   10.3056    1.9658 C.ar      1 RES1    0.0000
     20 C10       13.1759   10.3411    2.2288 C.ar      1 RES1    0.0000
     21 C11       12.4999    9.0497    2.4997 C.2       1 RES1    0.0000
     22 C12       14.6273    7.8850    2.2010 C.2       1 RES1    0.0000
     23 C13       12.6018    5.7833    3.6447 C.3       1 RES1    0.0000
     24 C14       12.4879    6.5759    2.4028 C.3       1 RES1    0.0000
     25 C15       12.7478    5.6896    1.1776 C.3       1 RES1    0.0000
     26 C16       11.6338    4.5654    1.1362 C.3       1 RES1    0.0000
     27 C17        6.2994    0.1317    1.4064 C.ar      2 RES2    0.0000
     28 C18       11.6376    4.6413    3.7321 C.3       1 RES1    0.0000
     29 C19       10.2267    5.2263    4.2581 C.3       1 RES1    0.0000
     30 C20       12.1237    3.5855    4.6936 C.3       1 RES1    0.0000
     31 C21       12.1766    3.4513    0.2201 C.3       1 RES1    0.0000
     32 C22       10.4246    5.1224    0.4688 C.3       1 RES1    0.0000
     33 C23        7.0788    1.1597    1.5971 C.ar      2 RES2    0.0000
     34 C24        6.5170    2.4536    1.8482 C.ar      2 RES2    0.0000
     35 C25        7.2952    3.6791    2.0103 C.ar      2 RES2    0.0000
     36 C26        6.6789    4.8312    2.3440 C.ar      2 RES2    0.0000
     37 C27        5.3145    4.9047    2.4775 C.ar      2 RES2    0.0000
     38 C28        4.5390    3.7475    2.2860 C.ar      2 RES2    0.0000
     39 C29        5.1038    2.5270    2.0802 C.ar      2 RES2    0.0000
     40 C30        4.3619    1.4154    1.8601 C.ar      2 RES2    0.0000
     41 C31        4.8663    0.1772    1.6797 C.ar      2 RES2    0.0000
     42 C32        2.8633    1.4003    2.0635 C.2       2 RES2    0.0000
     43 C33        3.0321    3.9197    2.4600 C.2       2 RES2    0.0000
     44 C34        0.8144    2.8537    2.3043 C.3       2 RES2    0.0000
     45 C35        0.2393    2.9676    1.0012 C.3       2 RES2    0.0000
     46 C36        0.2741    3.0512    3.4373 C.3       2 RES2    0.0000
     47 C37       -1.3523    3.0360    3.6813 C.3       2 RES2    0.0000
     48 C38       -1.2860    3.0866    0.9980 C.3       2 RES2    0.0000
     49 C39       -1.6719    4.2185    4.3702 C.3       2 RES2    0.0000
     50 C40       -1.7085    1.7775    4.2431 C.3       2 RES2    0.0000
     51 C41       -1.7182    1.8383    0.1430 C.3       2 RES2    0.0000
     52 C42       -1.6254    4.3501    0.2225 C.3       2 RES2    0.0000
     53 H1        11.5151   11.5413    2.3273 H         1 RES1    0.0000
     54 H2        12.5944   13.5417    1.9451 H         1 RES1    0.0000
     55 H3        14.9316   13.5163    1.3206 H         1 RES1    0.0000
     56 H4        16.9830   12.3085    1.2459 H         1 RES1    0.0000
     57 H5        18.2479   10.4044    1.2332 H         1 RES1    0.0000
     58 H6        17.1554    8.3357    1.6003 H         1 RES1    0.0000
     59 H7         6.7357   -0.7014    1.2697 H         2 RES2    0.0000
     60 H8         8.0039    1.0382    1.4279 H         2 RES2    0.0000
     61 H9         8.2426    3.6336    1.9245 H         2 RES2    0.0000
     62 H10        7.2180    5.6111    2.3837 H         2 RES2    0.0000
     63 H11        4.8869    5.7048    2.7604 H         2 RES2    0.0000
     64 H12        4.3293   -0.6001    1.5963 H         2 RES2    0.0000
     65 H13       11.5705    6.8265    2.3591 H         1 RES1    0.0000
     66 H14        0.6853    1.9320    2.5029 H         2 RES2    0.0000
     67 H15       13.4620    5.3756    3.6487 H         1 RES1    0.0000
     68 H16       12.5143    6.3454    4.4044 H         1 RES1    0.0000
     69 H17       12.7454    6.2011    0.3766 H         1 RES1    0.0000
     70 H18       13.5936    5.2693    1.2817 H         1 RES1    0.0000
     71 H19        0.6868    3.5576    0.4068 H         2 RES2    0.0000
     72 H20        0.3337    2.0738    0.6921 H         2 RES2    0.0000
     73 H21        0.6801    2.5853    4.1596 H         2 RES2    0.0000
     74 H22        0.4392    3.9830    3.5295 H         2 RES2    0.0000
     75 H23        9.9867    6.0872    3.9371 H         1 RES1    0.0000
     76 H24       10.2188    5.2288    5.2085 H         1 RES1    0.0000
     77 H25        9.6035    4.5831    3.9387 H         1 RES1    0.0000
     78 H26       11.3926    3.1347    5.1004 H         1 RES1    0.0000
     79 H27       12.6702    3.9729    5.3674 H         1 RES1    0.0000
     80 H28       12.6345    2.9651    4.1874 H         1 RES1    0.0000
     81 H29       13.1217    3.4057    0.2884 H         1 RES1    0.0000
     82 H30       11.9326    3.6158   -0.6833 H         1 RES1    0.0000
     83 H31       11.7961    2.6309    0.5054 H         1 RES1    0.0000
     84 H32       10.0323    4.4413   -0.0628 H         1 RES1    0.0000
     85 H33       10.6260    5.8745   -0.0723 H         1 RES1    0.0000
     86 H34        9.8129    5.3782    1.1529 H         1 RES1    0.0000
     87 H35       -1.0395    4.9072    4.1994 H         2 RES2    0.0000
     88 H36       -1.6807    4.0210    5.2990 H         2 RES2    0.0000
     89 H37       -2.5350    4.5097    4.1008 H         2 RES2    0.0000
     90 H38       -2.4815    1.8687    4.7842 H         2 RES2    0.0000
     91 H39       -0.9864    1.4534    4.7659 H         2 RES2    0.0000
     92 H40       -1.8867    1.1673    3.5351 H         2 RES2    0.0000
     93 H41       -1.1599    1.0812    0.2892 H         2 RES2    0.0000
     94 H42       -1.6673    2.0966   -0.7684 H         2 RES2    0.0000
     95 H43       -2.6157    1.6155    0.3623 H         2 RES2    0.0000
     96 H44       -2.4348    4.2210   -0.2614 H         2 RES2    0.0000
     97 H45       -0.9217    4.5401   -0.3878 H         2 RES2    0.0000
     98 H46       -1.7297    5.0794    0.8224 H         2 RES2    0.0000
@<TRIPOS>BOND
     1    1    8 1
     2    2   21 2
     3    3   22 2
     4    4   10 1
     5    5   42 2
     6    6   43 2
     7    7   21 1
     8    8   26 1
     9    9   42 1
    10   10   47 1
    11   11   12 ar
    12   12   13 ar
    13   13   14 ar
    14   14   15 ar
    15   15   16 ar
    16   16   17 ar
    17   17   18 ar
    18   18   19 ar
    19   19   14 ar
    20   20   11 ar
    21   21   20 1
    22   22    7 1
    23   23   24 1
    24   24    7 1
    25   25   24 1
    26   26   25 1
    27   27   33 ar
    28   28    8 1
    29   29   28 1
    30   30   28 1
    31   31   26 1
    32   32   26 1
    33   33   34 ar
    34   34   35 ar
    35   35   36 ar
    36   36   37 ar
    37   37   38 ar
    38   38   39 ar
    39   39   34 ar
    40   40   39 ar
    41   41   27 ar
    42   42   40 1
    43   43    9 1
    44   44    9 1
    45   45   44 1
    46   46   44 1
    47   47   46 1
    48   48   10 1
    49   49   47 1
    50   50   47 1
    51   51   48 1
    52   52   48 1
    53   53   11 1
    54   54   12 1
    55   55   13 1
    56   56   15 1
    57   57   16 1
    58   58   17 1
    59   59   27 1
    60   60   33 1
    61   61   35 1
    62   62   36 1
    63   63   37 1
    64   64   41 1
    65   65   24 1
    66   66   44 1
    67   67   23 1
    68   68   23 1
    69   69   25 1
    70   70   25 1
    71   71   45 1
    72   72   45 1
    73   73   46 1
    74   74   46 1
    75   75   29 1
    76   76   29 1
    77   77   29 1
    78   78   30 1
    79   79   30 1
    80   80   30 1
    81   81   31 1
    82   82   31 1
    83   83   31 1
    84   84   32 1
    85   85   32 1
    86   86   32 1
    87   87   49 1
    88   88   49 1
    89   89   49 1
    90   90   50 1
    91   91   50 1
    92   92   50 1
    93   93   51 1
    94   94   51 1
    95   95   51 1
    96   96   52 1
    97   97   52 1
    98   98   52 1
    99   18   22 1
   100   19   20 ar
   101   23   28 1
   102   38   43 1
   103   40   41 ar
   104   45   48 1
@<TRIPOS>SUBSTRUCTURE
     1 RES1 1
     2 RES2 4

@<TRIPOS>CRYSIN
  18.3190   25.3210    8.1300  90.0000 102.2200  90.0000 231 1

