# MOL2 file generated by ConQuest
# Please check atom types

@<TRIPOS>MOLECULE
LOMXUH
    80    85     1
SMALL
NO_CHARGES
****
Generated from CSD

@<TRIPOS>ATOM
      1 O1        -2.6173    2.1410    7.7627 O.2       1 RES1    0.0000
      2 O2         3.0618    1.7610    5.4862 O.2       1 RES1    0.0000
      3 O3        -0.0093   -1.0738    9.6891 O.2       1 RES1    0.0000
      4 N1        -1.2494    0.6033    8.7931 N.am      1 RES1    0.0000
      5 N2         2.1484    1.3733    6.3185 N.3       1 RES1    0.0000
      6 C1        -2.0866   -0.6262   10.7497 C.ar      1 RES1    0.0000
      7 C2        -3.2847    0.1133   10.6893 C.ar      1 RES1    0.0000
      8 C3        -3.4991    1.0324    9.6757 C.ar      1 RES1    0.0000
      9 C4        -4.6917    1.7348    9.6343 C.ar      1 RES1    0.0000
     10 C5        -0.1384    0.9747    7.8601 C.3       1 RES1    0.0000
     11 C6        -2.4448    1.3210    8.6543 C.2       1 RES1    0.0000
     12 C7        -1.8877   -1.5301   11.7632 C.ar      1 RES1    0.0000
     13 C8         1.1162    0.4661    5.7233 C.3       1 RES1    0.0000
     14 C9        -1.0330   -0.4149    9.7160 C.2       1 RES1    0.0000
     15 C10        0.2148   -0.0795    6.8364 C.3       1 RES1    0.0000
     16 C11        2.0354    2.1661    7.5681 C.3       1 RES1    0.0000
     17 C12        1.8128   -0.6545    5.0174 C.3       1 RES1    0.0000
     18 C13        1.0792    1.4811    8.5413 C.3       1 RES1    0.0000
     19 C14        1.5600    3.5786    7.1955 C.3       1 RES1    0.0000
     20 C15        0.2867    1.2600    4.7098 C.3       1 RES1    0.0000
     21 C16        3.4286    2.2423    8.1856 C.3       1 RES1    0.0000
     22 H1        -1.0729   -2.0169   11.7934 H         1 RES1    0.0000
     23 H2        -4.8467    2.3447    8.9228 H         1 RES1    0.0000
     24 H3        -0.4671    1.7065    7.3510 H         1 RES1    0.0000
     25 H4         0.6862   -0.7612    7.3018 H         1 RES1    0.0000
     26 H5        -0.5764   -0.4421    6.4583 H         1 RES1    0.0000
     27 H6         0.8175    2.0964    9.2159 H         1 RES1    0.0000
     28 H7         1.5132    0.7373    8.9418 H         1 RES1    0.0000
     29 H8         1.9630   -0.3986    4.1146 H         1 RES1    0.0000
     30 H9         1.2743   -1.4364    5.0398 H         1 RES1    0.0000
     31 H10        2.6454   -0.8320    5.4380 H         1 RES1    0.0000
     32 H11        2.3066    4.1372    7.0132 H         1 RES1    0.0000
     33 H12        1.0572    3.9434    7.9137 H         1 RES1    0.0000
     34 H13        1.0113    3.5208    6.4214 H         1 RES1    0.0000
     35 H14       -0.4626    1.6564    5.1360 H         1 RES1    0.0000
     36 H15       -0.0122    0.6610    4.0352 H         1 RES1    0.0000
     37 H16        0.8228    1.9374    4.3149 H         1 RES1    0.0000
     38 H17        3.5528    1.5083    8.7774 H         1 RES1    0.0000
     39 H18        3.5222    3.0558    8.6678 H         1 RES1    0.0000
     40 H19        4.0797    2.2064    7.4954 H         1 RES1    0.0000
     41 C2B       -4.2556   -0.1133   11.6849 C.ar      1 RES1    0.0000
     42 C1B       -5.4537    0.6262   11.6245 C.ar      1 RES1    0.0000
     43 C7B       -5.6526    1.5301   10.6110 C.ar      1 RES1    0.0000
     44 H1B       -6.4674    2.0169   10.5808 H         1 RES1    0.0000
     45 C9B       -6.5073    0.4149   12.6582 C.2       1 RES1    0.0000
     46 O3B       -7.5310    1.0738   12.6850 O.2       1 RES1    0.0000
     47 N1B       -6.2909   -0.6033   13.5811 N.am      1 RES1    0.0000
     48 C5B       -7.4019   -0.9747   14.5141 C.3       1 RES1    0.0000
     49 C10B      -7.7551    0.0795   15.5378 C.3       1 RES1    0.0000
     50 C8B       -8.6565   -0.4661   16.6509 C.3       1 RES1    0.0000
     51 N2B       -9.6887   -1.3733   16.0557 N.3       1 RES1    0.0000
     52 O2B      -10.6021   -1.7610   16.8880 O.2       1 RES1    0.0000
     53 C11B      -9.5757   -2.1661   14.8061 C.3       1 RES1    0.0000
     54 C13B      -8.6195   -1.4811   13.8328 C.3       1 RES1    0.0000
     55 H3B       -7.0732   -1.7065   15.0231 H         1 RES1    0.0000
     56 H6B       -8.3578   -2.0964   13.1583 H         1 RES1    0.0000
     57 H7B       -9.0535   -0.7373   13.4323 H         1 RES1    0.0000
     58 C14B      -9.1003   -3.5786   15.1786 C.3       1 RES1    0.0000
     59 H11B      -9.8469   -4.1372   15.3610 H         1 RES1    0.0000
     60 H12B      -8.5975   -3.9434   14.4604 H         1 RES1    0.0000
     61 H13B      -8.5517   -3.5208   15.9528 H         1 RES1    0.0000
     62 C16B     -10.9690   -2.2423   14.1886 C.3       1 RES1    0.0000
     63 H17B     -11.0931   -1.5083   13.5968 H         1 RES1    0.0000
     64 H18B     -11.0625   -3.0558   13.7064 H         1 RES1    0.0000
     65 H19B     -11.6200   -2.2064   14.8788 H         1 RES1    0.0000
     66 C12B      -9.3531    0.6545   17.3568 C.3       1 RES1    0.0000
     67 H8B       -9.5033    0.3986   18.2596 H         1 RES1    0.0000
     68 H9B       -8.8146    1.4364   17.3344 H         1 RES1    0.0000
     69 H10B     -10.1857    0.8320   16.9361 H         1 RES1    0.0000
     70 C15B      -7.8270   -1.2600   17.6644 C.3       1 RES1    0.0000
     71 H14B      -7.0777   -1.6564   17.2382 H         1 RES1    0.0000
     72 H15B      -7.5281   -0.6610   18.3390 H         1 RES1    0.0000
     73 H16B      -8.3631   -1.9374   18.0593 H         1 RES1    0.0000
     74 H4B       -8.2265    0.7612   15.0724 H         1 RES1    0.0000
     75 H5B       -6.9640    0.4421   15.9159 H         1 RES1    0.0000
     76 C6B       -5.0955   -1.3210   13.7199 C.2       1 RES1    0.0000
     77 O1B       -4.9230   -2.1410   14.6115 O.2       1 RES1    0.0000
     78 C3B       -4.0413   -1.0324   12.6985 C.ar      1 RES1    0.0000
     79 C4B       -2.8486   -1.7348   12.7399 C.ar      1 RES1    0.0000
     80 H2B       -2.6936   -2.3447   13.4514 H         1 RES1    0.0000
@<TRIPOS>BOND
     1    1   11 2
     2    2    5 1
     3    3   14 2
     4    4   10 1
     5    5   13 1
     6    6    7 ar
     7    7    8 ar
     8    8    9 ar
     9    9   23 1
    10   10   15 1
    11   11    4 1
    12   12    6 ar
    13   13   15 1
    14   14    4 1
    15   15   25 1
    16   16    5 1
    17   17   13 1
    18   18   10 1
    19   19   16 1
    20   20   13 1
    21   21   16 1
    22   22   12 1
    23   24   10 1
    24   26   15 1
    25   27   18 1
    26   28   18 1
    27   29   17 1
    28   30   17 1
    29   31   17 1
    30   32   19 1
    31   33   19 1
    32   34   19 1
    33   35   20 1
    34   36   20 1
    35   37   20 1
    36   38   21 1
    37   39   21 1
    38   40   21 1
    39   41    7 ar
    40   42   41 ar
    41   43    9 ar
    42   44   43 1
    43   45   42 1
    44   46   45 2
    45   47   45 1
    46   48   47 1
    47   49   48 1
    48   50   49 1
    49   51   50 1
    50   52   51 1
    51   53   51 1
    52   54   48 1
    53   55   48 1
    54   56   54 1
    55   57   54 1
    56   58   53 1
    57   59   58 1
    58   60   58 1
    59   61   58 1
    60   62   53 1
    61   63   62 1
    62   64   62 1
    63   65   62 1
    64   66   50 1
    65   67   66 1
    66   68   66 1
    67   69   66 1
    68   70   50 1
    69   71   70 1
    70   72   70 1
    71   73   70 1
    72   74   49 1
    73   75   49 1
    74   76   47 1
    75   77   76 2
    76   78   41 ar
    77   79   12 ar
    78   80   79 1
    79    6   14 1
    80    8   11 1
    81   16   18 1
    82   42   43 ar
    83   53   54 1
    84   76   78 1
    85   78   79 ar
@<TRIPOS>SUBSTRUCTURE
     1 RES1 1

@<TRIPOS>CRYSIN
  11.8530   10.8903   11.8053  90.0000 108.6243  90.0000  14 1

