# MOL2 file generated by ConQuest
# Please check atom types

@<TRIPOS>MOLECULE
LONKUV
   108   110     2
SMALL
NO_CHARGES
****
Generated from CSD

@<TRIPOS>ATOM
      1 O1         3.3484    1.8684   22.4424 O.2       1 RES1    0.0000
      2 C1         3.8427    2.7918   23.0560 C.2       1 RES1    0.0000
      3 O2         4.7579    3.6869   22.5922 O.3       1 RES1    0.0000
      4 N1         5.0551    3.4457   21.2031 N.2       1 RES1    0.0000
      5 C2         5.6107    4.4694   20.7012 C.2       1 RES1    0.0000
      6 C3         5.8625    5.7837   21.3815 C.3       1 RES1    0.0000
      7 H1         5.4293    5.7949   22.2711 H         1 RES1    0.0000
      8 H2         5.4871    6.5233   20.8415 H         1 RES1    0.0000
      9 C4         7.3875    5.9575   21.5313 C.3       1 RES1    0.0000
     10 H3         7.8123    5.8911   20.6394 H         1 RES1    0.0000
     11 H4         7.5781    6.8591   21.8929 H         1 RES1    0.0000
     12 C5         7.9890    4.9273   22.4400 C.2       1 RES1    0.0000
     13 H5         7.7433    4.9367   23.3558 H         1 RES1    0.0000
     14 C6         8.8656    3.9822   22.0190 C.2       1 RES1    0.0000
     15 H6         9.1285    3.9505   21.1056 H         1 RES1    0.0000
     16 H7         9.2178    3.3518   22.6350 H         1 RES1    0.0000
     17 C7         6.0149    4.3156   19.2717 C.ar      1 RES1    0.0000
     18 C8         6.7007    3.1451   18.8554 C.ar      1 RES1    0.0000
     19 H8         6.9188    2.4613   19.4786 H         1 RES1    0.0000
     20 C9         7.0425    3.0260   17.5281 C.ar      1 RES1    0.0000
     21 H9         7.4871    2.2347   17.2474 H         1 RES1    0.0000
     22 C10        6.7775    3.9869   16.5886 C.ar      1 RES1    0.0000
     23 H10        7.0265    3.8666   15.6799 H         1 RES1    0.0000
     24 C11        6.1223    5.1580   17.0143 C.ar      1 RES1    0.0000
     25 H11        5.9313    5.8448   16.3864 H         1 RES1    0.0000
     26 C12        5.7509    5.3188   18.3535 C.ar      1 RES1    0.0000
     27 H12        5.3181    6.1165   18.6342 H         1 RES1    0.0000
     28 O3        13.0191    4.0421   13.2323 O.2       2 RES2    0.0000
     29 C13       12.6399    3.1117   12.6305 C.2       2 RES2    0.0000
     30 O4        11.8347    2.1067   13.0825 O.3       2 RES2    0.0000
     31 N2        11.4853    2.2828   14.4787 N.2       2 RES2    0.0000
     32 C14       10.8192    1.2679   14.8902 C.2       2 RES2    0.0000
     33 C15       10.3994    0.0511   14.0839 C.3       2 RES2    0.0000
     34 H13       10.8963    0.0405   13.2276 H         2 RES2    0.0000
     35 H14       10.6378   -0.7696   14.5834 H         2 RES2    0.0000
     36 C16        8.9155    0.0458   13.7984 C.3       2 RES2    0.0000
     37 H15        8.6877   -0.7825   13.3060 H         2 RES2    0.0000
     38 H16        8.4252    0.0294   14.6595 H         2 RES2    0.0000
     39 C17        8.4497    1.2280   12.9968 C.2       2 RES2    0.0000
     40 H17        8.8597    1.3812   12.1548 H         2 RES2    0.0000
     41 C18        7.5358    2.0445   13.3750 C.2       2 RES2    0.0000
     42 H18        7.1047    1.9213   14.2123 H         2 RES2    0.0000
     43 H19        7.2904    2.7730   12.8161 H         2 RES2    0.0000
     44 C19       10.4465    1.3442   16.3245 C.ar      2 RES2    0.0000
     45 C20       10.7460    2.4437   17.1047 C.ar      2 RES2    0.0000
     46 H20       11.1366    3.2080   16.6980 H         2 RES2    0.0000
     47 C21       10.4842    2.4584   18.4819 C.ar      2 RES2    0.0000
     48 H21       10.7120    3.2197   19.0029 H         2 RES2    0.0000
     49 C22        9.8901    1.3554   19.0837 C.ar      2 RES2    0.0000
     50 H22        9.7189    1.3571   20.0185 H         2 RES2    0.0000
     51 C23        9.5519    0.2677   18.3273 C.ar      2 RES2    0.0000
     52 H23        9.1273   -0.4772   18.7365 H         2 RES2    0.0000
     53 C24        9.8246    0.2442   16.9739 C.ar      2 RES2    0.0000
     54 H24        9.5917   -0.5242   16.4672 H         2 RES2    0.0000
     55 O1B        4.0422    4.0016   25.1302 O.2       1 RES1    0.0000
     56 C1B        3.5479    3.0782   24.5165 C.2       1 RES1    0.0000
     57 O2B        2.6327    2.1831   24.9804 O.3       1 RES1    0.0000
     58 N1B        2.3355    2.4243   26.3695 N.2       1 RES1    0.0000
     59 C2B        1.7799    1.4006   26.8714 C.2       1 RES1    0.0000
     60 C3B        1.5281    0.0863   26.1911 C.3       1 RES1    0.0000
     61 H1B        1.9613    0.0751   25.3015 H         1 RES1    0.0000
     62 H2B        1.9035   -0.6533   26.7310 H         1 RES1    0.0000
     63 C4B        0.0031   -0.0875   26.0412 C.3       1 RES1    0.0000
     64 H3B       -0.4217   -0.0211   26.9332 H         1 RES1    0.0000
     65 H4B       -0.1875   -0.9891   25.6797 H         1 RES1    0.0000
     66 C5B       -0.5984    0.9427   25.1326 C.2       1 RES1    0.0000
     67 H5B       -0.3527    0.9333   24.2168 H         1 RES1    0.0000
     68 C6B       -1.4750    1.8878   25.5536 C.2       1 RES1    0.0000
     69 H6B       -1.7379    1.9195   26.4670 H         1 RES1    0.0000
     70 H7B       -1.8272    2.5182   24.9375 H         1 RES1    0.0000
     71 C7B        1.3757    1.5544   28.3009 C.ar      1 RES1    0.0000
     72 C8B        0.6899    2.7249   28.7172 C.ar      1 RES1    0.0000
     73 H8B        0.4718    3.4087   28.0940 H         1 RES1    0.0000
     74 C9B        0.3481    2.8440   30.0445 C.ar      1 RES1    0.0000
     75 H9B       -0.0965    3.6353   30.3251 H         1 RES1    0.0000
     76 C10B       0.6131    1.8831   30.9840 C.ar      1 RES1    0.0000
     77 H10B       0.3641    2.0034   31.8927 H         1 RES1    0.0000
     78 C11B       1.2682    0.7120   30.5582 C.ar      1 RES1    0.0000
     79 H11B       1.4593    0.0252   31.1862 H         1 RES1    0.0000
     80 C12B       1.6397    0.5512   29.2191 C.ar      1 RES1    0.0000
     81 H12B       2.0725   -0.2465   28.9384 H         1 RES1    0.0000
     82 O3B       12.5987    1.8279   10.5540 O.2       2 RES2    0.0000
     83 C13B      12.9779    2.7583   11.1558 C.2       2 RES2    0.0000
     84 O4B       13.7831    3.7633   10.7038 O.3       2 RES2    0.0000
     85 N2B       14.1325    3.5872    9.3076 N.2       2 RES2    0.0000
     86 C14B      14.7986    4.6021    8.8961 C.2       2 RES2    0.0000
     87 C15B      15.2184    5.8189    9.7024 C.3       2 RES2    0.0000
     88 H13B      14.7215    5.8295   10.5587 H         2 RES2    0.0000
     89 H14B      14.9800    6.6396    9.2029 H         2 RES2    0.0000
     90 C16B      16.7023    5.8242    9.9879 C.3       2 RES2    0.0000
     91 H15B      16.9301    6.6525   10.4802 H         2 RES2    0.0000
     92 H16B      17.1926    5.8407    9.1268 H         2 RES2    0.0000
     93 C17B      17.1681    4.6420   10.7895 C.2       2 RES2    0.0000
     94 H17B      16.7581    4.4888   11.6315 H         2 RES2    0.0000
     95 C18B      18.0820    3.8255   10.4113 C.2       2 RES2    0.0000
     96 H18B      18.5131    3.9487    9.5740 H         2 RES2    0.0000
     97 H19B      18.3274    3.0970   10.9702 H         2 RES2    0.0000
     98 C19B      15.1713    4.5258    7.4618 C.ar      2 RES2    0.0000
     99 C20B      14.8718    3.4263    6.6816 C.ar      2 RES2    0.0000
    100 H20B      14.4812    2.6620    7.0883 H         2 RES2    0.0000
    101 C21B      15.1336    3.4116    5.3043 C.ar      2 RES2    0.0000
    102 H21B      14.9058    2.6503    4.7834 H         2 RES2    0.0000
    103 C22B      15.7277    4.5146    4.7025 C.ar      2 RES2    0.0000
    104 H22B      15.8989    4.5129    3.7677 H         2 RES2    0.0000
    105 C23B      16.0659    5.6023    5.4590 C.ar      2 RES2    0.0000
    106 H23B      16.4905    6.3472    5.0498 H         2 RES2    0.0000
    107 C24B      15.7932    5.6258    6.8124 C.ar      2 RES2    0.0000
    108 H24B      16.0261    6.3942    7.3190 H         2 RES2    0.0000
@<TRIPOS>BOND
     1    1    2 2
     2    2    3 1
     3    3    4 1
     4    4    5 2
     5    5    6 1
     6    6    7 1
     7    8    6 1
     8    9    6 1
     9   10    9 1
    10   11    9 1
    11   12    9 1
    12   13   12 1
    13   14   12 2
    14   15   14 1
    15   16   14 1
    16   17    5 1
    17   18   17 ar
    18   19   18 1
    19   20   18 ar
    20   21   20 1
    21   22   20 ar
    22   23   22 1
    23   24   22 ar
    24   25   24 1
    25   26   17 ar
    26   27   26 1
    27   28   29 2
    28   29   30 1
    29   30   31 1
    30   31   32 2
    31   32   33 1
    32   33   34 1
    33   35   33 1
    34   36   33 1
    35   37   36 1
    36   38   36 1
    37   39   36 1
    38   40   39 1
    39   41   39 2
    40   42   41 1
    41   43   41 1
    42   44   32 1
    43   45   44 ar
    44   46   45 1
    45   47   45 ar
    46   48   47 1
    47   49   47 ar
    48   50   49 1
    49   51   49 ar
    50   52   51 1
    51   53   44 ar
    52   54   53 1
    53   55   56 2
    54   56    2 1
    55   57   56 1
    56   58   57 1
    57   59   58 2
    58   60   59 1
    59   61   60 1
    60   62   60 1
    61   63   60 1
    62   64   63 1
    63   65   63 1
    64   66   63 1
    65   67   66 1
    66   68   66 2
    67   69   68 1
    68   70   68 1
    69   71   59 1
    70   72   71 ar
    71   73   72 1
    72   74   72 ar
    73   75   74 1
    74   76   74 ar
    75   77   76 1
    76   78   76 ar
    77   79   78 1
    78   80   71 ar
    79   81   80 1
    80   82   83 2
    81   83   29 1
    82   84   83 1
    83   85   84 1
    84   86   85 2
    85   87   86 1
    86   88   87 1
    87   89   87 1
    88   90   87 1
    89   91   90 1
    90   92   90 1
    91   93   90 1
    92   94   93 1
    93   95   93 2
    94   96   95 1
    95   97   95 1
    96   98   86 1
    97   99   98 ar
    98  100   99 1
    99  101   99 ar
   100  102  101 1
   101  103  101 ar
   102  104  103 1
   103  105  103 ar
   104  106  105 1
   105  107   98 ar
   106  108  107 1
   107   24   26 ar
   108   51   53 ar
   109   78   80 ar
   110  105  107 ar
@<TRIPOS>SUBSTRUCTURE
     1 RES1 1
     2 RES2 28

@<TRIPOS>CRYSIN
  14.6150    5.8700   24.0590  90.0000  98.6350  90.0000  14 1

