# MOL2 file generated by ConQuest
# Please check atom types

@<TRIPOS>MOLECULE
LONSUE
    50    53     1
SMALL
NO_CHARGES
****
Generated from CSD

@<TRIPOS>ATOM
      1 C1         8.2864   12.4078    9.7357 C.3       1 RES1    0.0000
      2 H1         8.5942   13.2422   10.1489 H         1 RES1    0.0000
      3 C2         8.8582   12.4035    8.2914 C.3       1 RES1    0.0000
      4 H2         9.7641   12.7784    8.2714 H         1 RES1    0.0000
      5 C3         7.8824   13.2823    7.4978 C.3       1 RES1    0.0000
      6 H3         7.5626   12.7777    6.7215 H         1 RES1    0.0000
      7 C4         6.6821   13.5038    8.4879 C.3       1 RES1    0.0000
      8 H4         6.7843   14.3987    8.8720 H         1 RES1    0.0000
      9 C5         5.3375   13.4594    7.8135 C.ar      1 RES1    0.0000
     10 C6         4.6057   14.6121    7.6693 C.ar      1 RES1    0.0000
     11 H5         4.9394   15.4115    8.0069 H         1 RES1    0.0000
     12 C7         3.3787   14.6014    7.0293 C.ar      1 RES1    0.0000
     13 H6         2.8984   15.3912    6.9306 H         1 RES1    0.0000
     14 C8         2.8734   13.4305    6.5426 C.ar      1 RES1    0.0000
     15 H7         2.0441   13.4192    6.1220 H         1 RES1    0.0000
     16 C9         3.5923   12.2684    6.6765 C.ar      1 RES1    0.0000
     17 H8         3.2504   11.4687    6.3481 H         1 RES1    0.0000
     18 C10        4.8158   12.2892    7.2956 C.ar      1 RES1    0.0000
     19 H9         5.3036   11.5014    7.3690 H         1 RES1    0.0000
     20 C11        8.4834   14.5840    7.0185 C.ar      1 RES1    0.0000
     21 C12        8.5404   14.8923    5.6881 C.ar      1 RES1    0.0000
     22 H10        8.2178   14.2842    5.0627 H         1 RES1    0.0000
     23 C13        9.0736   16.1002    5.2552 C.ar      1 RES1    0.0000
     24 H11        9.1175   16.2853    4.3448 H         1 RES1    0.0000
     25 C14        9.5332   17.0170    6.1563 C.ar      1 RES1    0.0000
     26 H12        9.8799   17.8291    5.8649 H         1 RES1    0.0000
     27 C15        9.4792   16.7319    7.4816 C.ar      1 RES1    0.0000
     28 H13        9.7916   17.3522    8.1008 H         1 RES1    0.0000
     29 C16        8.9636   15.5268    7.9180 C.ar      1 RES1    0.0000
     30 H14        8.9378   15.3436    8.8293 H         1 RES1    0.0000
     31 C17        8.7343   11.2972   10.6508 C.ar      1 RES1    0.0000
     32 C18       10.0960   11.1874   10.9748 C.ar      1 RES1    0.0000
     33 C19       10.5323   10.2058   11.8418 C.ar      1 RES1    0.0000
     34 H15       11.4372   10.1297   12.0423 H         1 RES1    0.0000
     35 C20        9.6251    9.3413   12.4089 C.ar      1 RES1    0.0000
     36 H16        9.9219    8.6833   12.9949 H         1 RES1    0.0000
     37 C21        8.2920    9.4387   12.1212 C.ar      1 RES1    0.0000
     38 H17        7.6846    8.8530   12.5128 H         1 RES1    0.0000
     39 C22        7.8525   10.4143   11.2430 C.ar      1 RES1    0.0000
     40 H18        6.9457   10.4770   11.0481 H         1 RES1    0.0000
     41 C23       12.2801   12.1496   10.7194 C.3       1 RES1    0.0000
     42 H19       12.3847   12.3319   11.6562 H         1 RES1    0.0000
     43 H20       12.7194   12.8342   10.2097 H         1 RES1    0.0000
     44 H21       12.6704   11.2975   10.5137 H         1 RES1    0.0000
     45 H22        6.5332   11.7300    9.2944 H         1 RES1    0.0000
     46 N1         6.8382   12.5390    9.5845 N.3       1 RES1    0.0000
     47 N2         8.8505   10.9884    7.7909 N.pl3     1 RES1    0.0000
     48 O1         7.7753   10.4540    7.5819 O.2       1 RES1    0.0000
     49 O2         9.9096   10.4139    7.6799 O.2       1 RES1    0.0000
     50 O3        10.8953   12.1301   10.3922 O.3       1 RES1    0.0000
@<TRIPOS>BOND
     1    1    2 1
     2    3    1 1
     3    4    3 1
     4    5    3 1
     5    6    5 1
     6    7    5 1
     7    8    7 1
     8    9    7 1
     9   10    9 ar
    10   11   10 1
    11   12   10 ar
    12   13   12 1
    13   14   12 ar
    14   15   14 1
    15   16   14 ar
    16   17   16 1
    17   18    9 ar
    18   19   18 1
    19   20    5 1
    20   21   20 ar
    21   22   21 1
    22   23   21 ar
    23   24   23 1
    24   25   23 ar
    25   26   25 1
    26   27   25 ar
    27   28   27 1
    28   29   20 ar
    29   30   29 1
    30   31    1 1
    31   32   31 ar
    32   33   32 ar
    33   34   33 1
    34   35   33 ar
    35   36   35 1
    36   37   35 ar
    37   38   37 1
    38   39   31 ar
    39   40   39 1
    40   41   42 1
    41   43   41 1
    42   44   41 1
    43   45   46 1
    44   46    1 1
    45   47    3 1
    46   48   47 2
    47   49   47 2
    48   50   32 1
    49    7   46 1
    50   16   18 ar
    51   27   29 ar
    52   37   39 ar
    53   41   50 1
@<TRIPOS>SUBSTRUCTURE
     1 RES1 1

@<TRIPOS>CRYSIN
   9.3000    9.8840   11.5210  67.9560  84.3430  81.3950   2 1

