# MOL2 file generated by ConQuest
# Please check atom types

@<TRIPOS>MOLECULE
LONSOY
    48    51     1
SMALL
NO_CHARGES
****
Generated from CSD

@<TRIPOS>ATOM
      1 C1         8.2933    2.6607    6.9549 C.3       1 RES1    0.0000
      2 H1         9.1342    3.0984    6.7028 H         1 RES1    0.0000
      3 C2         8.0296    1.5399    5.9340 C.3       1 RES1    0.0000
      4 H2         8.8744    1.2536    5.5250 H         1 RES1    0.0000
      5 C3         7.1094    2.1498    4.8654 C.3       1 RES1    0.0000
      6 H3         6.2012    1.8154    5.0180 H         1 RES1    0.0000
      7 C4         7.1352    3.6603    5.2183 C.3       1 RES1    0.0000
      8 H4         7.9463    4.0786    4.8584 H         1 RES1    0.0000
      9 C5         5.9096    4.3872    4.7239 C.ar      1 RES1    0.0000
     10 C6         5.8660    4.9074    3.4284 C.ar      1 RES1    0.0000
     11 H5         6.6136    4.8478    2.8780 H         1 RES1    0.0000
     12 C7         4.6940    5.5202    2.9579 C.ar      1 RES1    0.0000
     13 H6         4.6761    5.8617    2.0924 H         1 RES1    0.0000
     14 C8         3.5934    5.6242    3.7296 C.ar      1 RES1    0.0000
     15 H7         2.8180    6.0332    3.4186 H         1 RES1    0.0000
     16 C9         3.6707    5.0932    5.0124 C.ar      1 RES1    0.0000
     17 C10        4.7832    4.4862    5.5306 C.ar      1 RES1    0.0000
     18 H8         4.7832    4.1496    6.3975 H         1 RES1    0.0000
     19 C11        7.4783    1.8728    3.4228 C.ar      1 RES1    0.0000
     20 C12        8.7613    2.0859    2.9873 C.ar      1 RES1    0.0000
     21 H9         9.4058    2.3873    3.5853 H         1 RES1    0.0000
     22 C13        9.1044    1.8599    1.6764 C.ar      1 RES1    0.0000
     23 H10        9.9512    2.0737    1.3599 H         1 RES1    0.0000
     24 C14        8.1882    1.3261    0.8739 C.ar      1 RES1    0.0000
     25 H11        8.4401    1.0627    0.0182 H         1 RES1    0.0000
     26 C15        6.9032    1.1510    1.2535 C.ar      1 RES1    0.0000
     27 H12        6.2666    0.8560    0.6442 H         1 RES1    0.0000
     28 C16        6.5581    1.4107    2.5307 C.ar      1 RES1    0.0000
     29 H13        5.6816    1.2722    2.8080 H         1 RES1    0.0000
     30 C17        8.4103    2.2617    8.4059 C.ar      1 RES1    0.0000
     31 C18        9.5962    1.7602    8.8568 C.ar      1 RES1    0.0000
     32 H14       10.3082    1.6719    8.2658 H         1 RES1    0.0000
     33 C19        9.7608    1.3770   10.1915 C.ar      1 RES1    0.0000
     34 H15       10.5699    1.0232   10.4856 H         1 RES1    0.0000
     35 C20        8.7058    1.5341   11.0612 C.ar      1 RES1    0.0000
     36 H16        8.7950    1.2859   11.9534 H         1 RES1    0.0000
     37 C21        7.5556    2.0429   10.6215 C.ar      1 RES1    0.0000
     38 H17        6.8556    2.1606   11.2237 H         1 RES1    0.0000
     39 C22        7.3633    2.4060    9.2826 C.ar      1 RES1    0.0000
     40 H18        6.5442    2.7375    8.9941 H         1 RES1    0.0000
     41 H19        7.3295    4.2049    6.9745 H         1 RES1    0.0000
     42 N1         7.2088    3.5849    6.6510 N.3       1 RES1    0.0000
     43 N2         7.3494    0.3746    6.5712 N.pl3     1 RES1    0.0000
     44 N3         2.4471    5.1858    5.8765 N.pl3     1 RES1    0.0000
     45 O1         8.1029   -0.5805    6.7379 O.2       1 RES1    0.0000
     46 O2         6.2230    0.3932    6.8765 O.2       1 RES1    0.0000
     47 O3         2.5622    4.8442    7.0320 O.2       1 RES1    0.0000
     48 O4         1.4536    5.6199    5.4004 O.2       1 RES1    0.0000
@<TRIPOS>BOND
     1    1    2 1
     2    3    1 1
     3    4    3 1
     4    5    3 1
     5    6    5 1
     6    7    5 1
     7    8    7 1
     8    9    7 1
     9   10    9 ar
    10   11   10 1
    11   12   10 ar
    12   13   12 1
    13   14   12 ar
    14   15   14 1
    15   16   14 ar
    16   17    9 ar
    17   18   17 1
    18   19    5 1
    19   20   19 ar
    20   21   20 1
    21   22   20 ar
    22   23   22 1
    23   24   22 ar
    24   25   24 1
    25   26   24 ar
    26   27   26 1
    27   28   19 ar
    28   29   28 1
    29   30    1 1
    30   31   30 ar
    31   32   31 1
    32   33   31 ar
    33   34   33 1
    34   35   33 ar
    35   36   35 1
    36   37   35 ar
    37   38   37 1
    38   39   30 ar
    39   40   39 1
    40   41   42 1
    41   42    1 1
    42   43    3 1
    43   44   16 1
    44   45   43 2
    45   46   43 2
    46   47   44 2
    47   48   44 2
    48    7   42 1
    49   16   17 ar
    50   26   28 ar
    51   37   39 ar
@<TRIPOS>SUBSTRUCTURE
     1 RES1 1

@<TRIPOS>CRYSIN
  19.8310    7.1756   14.0051  90.0000  90.0000  90.0000  29 1

