# MOL2 file generated by ConQuest
# Please check atom types

@<TRIPOS>MOLECULE
LONTAL
    51    53     2
SMALL
NO_CHARGES
****
Generated from CSD

@<TRIPOS>ATOM
      1 C1         5.2554   11.4391    3.2584 C.3       1 RES1    0.0000
      2 H1         6.1376   11.7188    3.5804 H         1 RES1    0.0000
      3 C2         4.7767   10.2044    4.0873 C.3       1 RES1    0.0000
      4 H2         3.8160   10.2820    4.2659 H         1 RES1    0.0000
      5 C3         5.0371    8.9693    3.2247 C.3       1 RES1    0.0000
      6 H3         5.5401    8.3134    3.7523 H         1 RES1    0.0000
      7 C4         5.9631    9.5367    2.1073 C.3       1 RES1    0.0000
      8 H4         6.8712    9.6281    2.4634 H         1 RES1    0.0000
      9 C5         6.0113    8.7012    0.8575 C.ar      1 RES1    0.0000
     10 C6         6.7656    7.5453    0.8409 C.ar      1 RES1    0.0000
     11 H5         7.2806    7.3247    1.5836 H         1 RES1    0.0000
     12 C7         6.7684    6.7137   -0.2554 C.ar      1 RES1    0.0000
     13 H6         7.2627    5.9257   -0.2381 H         1 RES1    0.0000
     14 C8         6.0472    7.0406   -1.3715 C.ar      1 RES1    0.0000
     15 H7         6.0612    6.4857   -2.1185 H         1 RES1    0.0000
     16 C9         5.3053    8.1884   -1.3798 C.ar      1 RES1    0.0000
     17 H8         4.8203    8.4186   -2.1388 H         1 RES1    0.0000
     18 C10        5.2710    9.0119   -0.2661 C.ar      1 RES1    0.0000
     19 H9         4.7453    9.7796   -0.2755 H         1 RES1    0.0000
     20 C11        3.7882    8.3118    2.6881 C.ar      1 RES1    0.0000
     21 C12        2.6701    9.0207    2.2912 C.ar      1 RES1    0.0000
     22 H10        2.6567    9.9458    2.3802 H         1 RES1    0.0000
     23 C13        1.5684    8.3671    1.7624 C.ar      1 RES1    0.0000
     24 H11        0.8210    8.8562    1.5045 H         1 RES1    0.0000
     25 C14        1.5729    7.0050    1.6177 C.ar      1 RES1    0.0000
     26 H12        0.8380    6.5718    1.2472 H         1 RES1    0.0000
     27 C15        2.6641    6.2855    2.0207 C.ar      1 RES1    0.0000
     28 H13        2.6645    5.3587    1.9434 H         1 RES1    0.0000
     29 C16        3.7636    6.9355    2.5420 C.ar      1 RES1    0.0000
     30 H14        4.5050    6.4374    2.8009 H         1 RES1    0.0000
     31 C17        4.3166   12.6149    3.3104 C.ar      1 RES1    0.0000
     32 C18        4.2853   13.4260    4.4224 C.ar      1 RES1    0.0000
     33 H15        4.8823   13.2628    5.1170 H         1 RES1    0.0000
     34 C19        3.3916   14.4780    4.5379 C.ar      1 RES1    0.0000
     35 H16        3.3806   15.0015    5.3060 H         1 RES1    0.0000
     36 C20        2.5178   14.7419    3.5039 C.ar      1 RES1    0.0000
     37 C21        2.5492   13.9578    2.3718 C.ar      1 RES1    0.0000
     38 H17        1.9725   14.1408    1.6658 H         1 RES1    0.0000
     39 C22        3.4278   12.9074    2.2799 C.ar      1 RES1    0.0000
     40 H18        3.4295   12.3807    1.5131 H         1 RES1    0.0000
     41 C23        1.6934   16.7122    4.5542 C.3       1 RES1    0.0000
     42 H19        1.4814   16.2929    5.3903 H         1 RES1    0.0000
     43 H20        1.0758   17.4291    4.3898 H         1 RES1    0.0000
     44 H21        2.5869   17.0615    4.5873 H         1 RES1    0.0000
     45 H22        5.9383   11.3700    1.4149 H         1 RES1    0.0000
     46 N1         5.3942   10.8603    1.9219 N.3       1 RES1    0.0000
     47 N2         5.5290   10.1823    5.3861 N.pl3     1 RES1    0.0000
     48 O1         1.5975   15.7618    3.5130 O.3       1 RES1    0.0000
     49 O2         6.5541    9.5504    5.4684 O.2       1 RES1    0.0000
     50 O3         4.9698   10.7937    6.2884 O.2       1 RES1    0.0000
     51 O4         5.4170   11.0011    6.2659 Du        2 SUP2    0.0000
@<TRIPOS>BOND
     1    1    2 1
     2    3    1 1
     3    4    3 1
     4    5    3 1
     5    6    5 1
     6    7    5 1
     7    8    7 1
     8    9    7 1
     9   10    9 ar
    10   11   10 1
    11   12   10 ar
    12   13   12 1
    13   14   12 ar
    14   15   14 1
    15   16   14 ar
    16   17   16 1
    17   18    9 ar
    18   19   18 1
    19   20    5 1
    20   21   20 ar
    21   22   21 1
    22   23   21 ar
    23   24   23 1
    24   25   23 ar
    25   26   25 1
    26   27   25 ar
    27   28   27 1
    28   29   20 ar
    29   30   29 1
    30   31    1 1
    31   32   31 ar
    32   33   32 1
    33   34   32 ar
    34   35   34 1
    35   36   34 ar
    36   37   36 ar
    37   38   37 1
    38   39   31 ar
    39   40   39 1
    40   41   42 1
    41   43   41 1
    42   44   41 1
    43   45   46 1
    44   46    1 1
    45   47    3 1
    46   48   36 1
    47   49   47 2
    48   50   47 2
    49    7   46 1
    50   16   18 ar
    51   27   29 ar
    52   37   39 ar
    53   41   48 1
@<TRIPOS>SUBSTRUCTURE
     1 RES1 1
     2 SUP2 51

@<TRIPOS>CRYSIN
   8.9060   10.5670   10.8700  80.3000  83.2240  76.6370   2 1

