# MOL2 file generated by ConQuest
# Please check atom types

@<TRIPOS>MOLECULE
LONWAN
    32    33     1
SMALL
NO_CHARGES
****
Generated from CSD

@<TRIPOS>ATOM
      1 C1         3.3595   12.9623    2.2005 C.ar      1 RES1    0.0000
      2 O1         5.6313   13.3518    2.1027 O.2       1 RES1    0.0000
      3 N1         4.5396   13.7911    2.4288 N.pl3     1 RES1    0.0000
      4 O2        -4.4085    7.8593    0.3812 O.3       1 RES1    0.0000
      5 C2         1.0066   12.6788    2.2382 C.ar      1 RES1    0.0000
      6 H1         0.1544   13.0180    2.3925 H         1 RES1    0.0000
      7 O3         4.3919   14.8882    2.9531 O.2       1 RES1    0.0000
      8 C3        -3.2876    7.5076    1.0744 C.ar      1 RES1    0.0000
      9 C4        -2.2751    8.4603    1.0828 C.ar      1 RES1    0.0000
     10 H2        -2.4000    9.2705    0.6451 H         1 RES1    0.0000
     11 C5        -1.0766    8.2085    1.7418 C.ar      1 RES1    0.0000
     12 C6         2.4346   10.8904    1.5184 C.ar      1 RES1    0.0000
     13 H3         2.5451   10.0245    1.1973 H         1 RES1    0.0000
     14 C7        -0.0292   10.4959    1.6573 C.2       1 RES1    0.0000
     15 H4        -0.8519   10.8872    1.4716 H         1 RES1    0.0000
     16 C8         1.1452   11.3671    1.7907 C.ar      1 RES1    0.0000
     17 C9         3.5383   11.6859    1.7209 C.ar      1 RES1    0.0000
     18 H5         4.3917   11.3650    1.5359 H         1 RES1    0.0000
     19 C10       -0.9093    6.9802    2.3827 C.ar      1 RES1    0.0000
     20 H6        -0.1087    6.7909    2.8176 H         1 RES1    0.0000
     21 C11        2.1058   13.4852    2.4588 C.ar      1 RES1    0.0000
     22 H7         2.0056   14.3540    2.7722 H         1 RES1    0.0000
     23 C12       -3.1121    6.2962    1.7237 C.ar      1 RES1    0.0000
     24 H8        -3.7887    5.6587    1.7202 H         1 RES1    0.0000
     25 C13       -1.9191    6.0469    2.3764 C.ar      1 RES1    0.0000
     26 H9        -1.7984    5.2376    2.8169 H         1 RES1    0.0000
     27 C14        0.0250    9.1785    1.7886 C.2       1 RES1    0.0000
     28 H10        0.8721    8.8221    1.9282 H         1 RES1    0.0000
     29 C15       -5.4639    6.9094    0.2883 C.3       1 RES1    0.0000
     30 H11       -6.1844    7.2800   -0.2255 H         1 RES1    0.0000
     31 H12       -5.7769    6.6913    1.1687 H         1 RES1    0.0000
     32 H13       -5.1411    6.1139   -0.1424 H         1 RES1    0.0000
@<TRIPOS>BOND
     1    1    3 1
     2    2    3 2
     3    3    7 2
     4    4    8 1
     5    5    6 1
     6    8    9 ar
     7    9   10 1
     8   11    9 ar
     9   12   13 1
    10   14   15 1
    11   16    5 ar
    12   17    1 ar
    13   18   17 1
    14   19   11 ar
    15   20   19 1
    16   21    1 ar
    17   22   21 1
    18   23    8 ar
    19   24   23 1
    20   25   19 ar
    21   26   25 1
    22   27   11 1
    23   28   27 1
    24   29    4 1
    25   30   29 1
    26   31   29 1
    27   32   29 1
    28    5   21 ar
    29   12   16 ar
    30   12   17 ar
    31   14   16 1
    32   14   27 2
    33   23   25 ar
@<TRIPOS>SUBSTRUCTURE
     1 RES1 1

@<TRIPOS>CRYSIN
   8.0355   22.6440    7.0938  90.0000 100.2210  90.0000  14 1

