# MOL2 file generated by ConQuest
# Please check atom types

@<TRIPOS>MOLECULE
LONYUK
    56    59     1
SMALL
NO_CHARGES
****
Generated from CSD

@<TRIPOS>ATOM
      1 H1        -0.2370   13.2868    2.5527 H         1 RES1    0.0000
      2 O1        -0.2704    7.8803    3.4496 O.3       1 RES1    0.0000
      3 O2        -1.4447    6.2891    4.5135 O.2       1 RES1    0.0000
      4 N1        -0.0069   12.6082    3.0586 N.3       1 RES1    0.0000
      5 C1        -1.0992   12.3850    4.0140 C.3       1 RES1    0.0000
      6 H2        -1.9252   12.2162    3.5136 H         1 RES1    0.0000
      7 N2        -0.8730    8.8604    4.3257 N.2       1 RES1    0.0000
      8 C2         0.1047    5.6921    2.7994 C.ar      1 RES1    0.0000
      9 C3        -0.8020   11.1674    4.9005 C.3       1 RES1    0.0000
     10 H3        -0.0369   11.4101    5.4646 H         1 RES1    0.0000
     11 C4         0.2448   11.4827    2.1692 C.3       1 RES1    0.0000
     12 H4        -0.5838   11.2613    1.6937 H         1 RES1    0.0000
     13 C5         1.3215   11.7886    1.1583 C.ar      1 RES1    0.0000
     14 C6        -0.3656    9.9977    4.0603 C.2       1 RES1    0.0000
     15 C7        -1.2702   13.6533    4.8259 C.ar      1 RES1    0.0000
     16 C8        -0.6441    6.6115    3.6919 C.2       1 RES1    0.0000
     17 C9         0.8551    6.1433    1.7269 C.ar      1 RES1    0.0000
     18 H5         0.8654    7.0528    1.5303 H         1 RES1    0.0000
     19 C10        1.5915    5.2734    0.9392 C.ar      1 RES1    0.0000
     20 C11       -2.4441   14.3727    4.7950 C.ar      1 RES1    0.0000
     21 H6        -3.1561   14.0751    4.2756 H         1 RES1    0.0000
     22 C12        0.6629   10.2931    3.0097 C.3       1 RES1    0.0000
     23 H7         0.7756    9.5169    2.4395 H         1 RES1    0.0000
     24 H8         1.5151   10.4806    3.4344 H         1 RES1    0.0000
     25 C13       -2.5686   15.5422    5.5367 C.ar      1 RES1    0.0000
     26 H9        -3.3605   16.0293    5.5002 H         1 RES1    0.0000
     27 C14       -1.5391   15.9823    6.3171 C.ar      1 RES1    0.0000
     28 H10       -1.6371   16.7540    6.8251 H         1 RES1    0.0000
     29 C15       -0.2285   14.1346    5.5992 C.ar      1 RES1    0.0000
     30 H11        0.5807   13.6758    5.6150 H         1 RES1    0.0000
     31 C16       -0.3701   15.2878    6.3485 C.ar      1 RES1    0.0000
     32 H12        0.3342   15.5894    6.8752 H         1 RES1    0.0000
     33 C17        2.3267   12.7014    1.4153 C.ar      1 RES1    0.0000
     34 H13        2.3300   13.1787    2.2130 H         1 RES1    0.0000
     35 C18       -1.9579   10.8542    5.8430 C.3       1 RES1    0.0000
     36 H14       -2.1755   11.6377    6.3543 H         1 RES1    0.0000
     37 H15       -1.7037   10.1450    6.4368 H         1 RES1    0.0000
     38 H16       -2.7231   10.5836    5.3303 H         1 RES1    0.0000
     39 C19        0.8370    3.4748    2.3332 C.ar      1 RES1    0.0000
     40 H17        0.8419    2.5671    2.5382 H         1 RES1    0.0000
     41 C20        0.0832    4.3423    3.0955 C.ar      1 RES1    0.0000
     42 H18       -0.4335    4.0229    3.8000 H         1 RES1    0.0000
     43 C21        1.5806    3.9343    1.2769 C.ar      1 RES1    0.0000
     44 H19        2.0861    3.3338    0.7781 H         1 RES1    0.0000
     45 C22        1.3731   11.0717   -0.0202 C.ar      1 RES1    0.0000
     46 H20        0.7143   10.4425   -0.2038 H         1 RES1    0.0000
     47 C23        2.3898   11.2766   -0.9307 C.ar      1 RES1    0.0000
     48 H21        2.4114   10.7807   -1.7180 H         1 RES1    0.0000
     49 C24        3.3324   12.9053    0.4821 C.ar      1 RES1    0.0000
     50 H22        3.9962   13.5334    0.6552 H         1 RES1    0.0000
     51 C25        3.3648   12.1997   -0.6866 C.ar      1 RES1    0.0000
     52 H23        4.0416   12.3471   -1.3071 H         1 RES1    0.0000
     53 C26        2.4201    5.7915   -0.2053 C.3       1 RES1    0.0000
     54 H24        2.8653    5.0579   -0.6358 H         1 RES1    0.0000
     55 H25        3.0730    6.4120    0.1278 H         1 RES1    0.0000
     56 H26        1.8504    6.2352   -0.8380 H         1 RES1    0.0000
@<TRIPOS>BOND
     1    1    4 1
     2    2    7 1
     3    3   16 2
     4    4    5 1
     5    5    6 1
     6    7   14 2
     7    8   16 1
     8    9    5 1
     9   10    9 1
    10   11    4 1
    11   12   11 1
    12   13   11 1
    13   14    9 1
    14   15    5 1
    15   16    2 1
    16   17    8 ar
    17   18   17 1
    18   19   17 ar
    19   20   15 ar
    20   21   20 1
    21   22   11 1
    22   23   22 1
    23   24   22 1
    24   25   20 ar
    25   26   25 1
    26   27   25 ar
    27   28   27 1
    28   29   15 ar
    29   30   29 1
    30   31   27 ar
    31   32   31 1
    32   33   13 ar
    33   34   33 1
    34   35    9 1
    35   36   35 1
    36   37   35 1
    37   38   35 1
    38   39   40 1
    39   41    8 ar
    40   42   41 1
    41   43   19 ar
    42   44   43 1
    43   45   13 ar
    44   46   45 1
    45   47   45 ar
    46   48   47 1
    47   49   33 ar
    48   50   49 1
    49   51   47 ar
    50   52   51 1
    51   53   19 1
    52   54   53 1
    53   55   53 1
    54   56   53 1
    55   14   22 1
    56   29   31 ar
    57   39   41 ar
    58   39   43 ar
    59   49   51 ar
@<TRIPOS>SUBSTRUCTURE
     1 RES1 1

@<TRIPOS>CRYSIN
  10.6265   12.7146   16.4031  90.0000  99.5240  90.0000 231 1

