# MOL2 file generated by ConQuest
# Please check atom types

@<TRIPOS>MOLECULE
LOPLAF
    43    45     1
SMALL
NO_CHARGES
****
Generated from CSD

@<TRIPOS>ATOM
      1 N1         4.4972    9.8923   -0.3696 N.pl3     1 RES1    0.0000
      2 O1         0.8949   10.5389    4.9135 O.2       1 RES1    0.0000
      3 O2         2.8536   11.4203    5.5679 O.3       1 RES1    0.0000
      4 O3         3.8514    9.2986   -1.2073 O.2       1 RES1    0.0000
      5 O4         5.6487   10.2438   -0.5307 O.2       1 RES1    0.0000
      6 C1         2.3983   11.5028    6.9456 C.3       1 RES1    0.0000
      7 H1         1.4309   11.6592    6.9621 H         1 RES1    0.0000
      8 C2         2.7303   10.2398    7.7708 C.3       1 RES1    0.0000
      9 H2         1.8906    9.9098    8.1531 H         1 RES1    0.0000
     10 C3         3.5738   10.8117    8.9318 C.3       1 RES1    0.0000
     11 C4         4.9402   11.2510    8.3872 C.3       1 RES1    0.0000
     12 H3         5.5363   11.5004    9.1112 H         1 RES1    0.0000
     13 H4         5.3518   10.5395    7.8713 H         1 RES1    0.0000
     14 C5         4.6244   12.4541    7.5017 C.3       1 RES1    0.0000
     15 H5         4.8537   12.2730    6.5768 H         1 RES1    0.0000
     16 H6         5.1081   13.2399    7.7985 H         1 RES1    0.0000
     17 C6         3.1113   12.6471    7.6639 C.3       1 RES1    0.0000
     18 C7         2.9096   12.1756    9.1081 C.3       1 RES1    0.0000
     19 H7         3.3748   12.7352    9.7499 H         1 RES1    0.0000
     20 H8         1.9719   12.1044    9.3476 H         1 RES1    0.0000
     21 C8         3.3592    9.0883    6.9882 C.3       1 RES1    0.0000
     22 H9         4.0913    9.4197    6.4632 H         1 RES1    0.0000
     23 H10        2.7009    8.6973    6.4086 H         1 RES1    0.0000
     24 H11        3.6810    8.4228    7.6019 H         1 RES1    0.0000
     25 C9         3.6307    9.9073   10.1545 C.3       1 RES1    0.0000
     26 H12        4.0595   10.3727   10.8761 H         1 RES1    0.0000
     27 H13        4.1295    9.1157    9.9431 H         1 RES1    0.0000
     28 H14        2.7393    9.6652   10.4147 H         1 RES1    0.0000
     29 C10        2.5928   14.0277    7.3074 C.3       1 RES1    0.0000
     30 H15        2.7866   14.2142    6.3859 H         1 RES1    0.0000
     31 H16        3.0199   14.6840    7.8633 H         1 RES1    0.0000
     32 H17        1.6432   14.0588    7.4474 H         1 RES1    0.0000
     33 C11        2.0310   10.8581    4.6837 C.2       1 RES1    0.0000
     34 C12        2.6981   10.6502    3.3641 C.ar      1 RES1    0.0000
     35 C13        3.9625   11.1299    3.0893 C.ar      1 RES1    0.0000
     36 H18        4.4235   11.6082    3.7390 H         1 RES1    0.0000
     37 C14        4.5494   10.9074    1.8625 C.ar      1 RES1    0.0000
     38 H19        5.3957   11.2432    1.6718 H         1 RES1    0.0000
     39 C15        3.8538   10.1774    0.9261 C.ar      1 RES1    0.0000
     40 C16        2.5937    9.6788    1.1749 C.ar      1 RES1    0.0000
     41 H20        2.1419    9.1857    0.5285 H         1 RES1    0.0000
     42 C17        2.0201    9.9252    2.3971 C.ar      1 RES1    0.0000
     43 H21        1.1671    9.6025    2.5787 H         1 RES1    0.0000
@<TRIPOS>BOND
     1    1    4 2
     2    2   33 2
     3    3    6 1
     4    5    1 2
     5    6    7 1
     6    8    6 1
     7    9    8 1
     8   10    8 1
     9   11   10 1
    10   12   11 1
    11   13   11 1
    12   14   11 1
    13   15   14 1
    14   16   14 1
    15   17    6 1
    16   18   10 1
    17   19   18 1
    18   20   18 1
    19   21    8 1
    20   22   21 1
    21   23   21 1
    22   24   21 1
    23   25   10 1
    24   26   25 1
    25   27   25 1
    26   28   25 1
    27   29   17 1
    28   30   29 1
    29   31   29 1
    30   32   29 1
    31   33    3 1
    32   34   33 1
    33   35   34 ar
    34   36   35 1
    35   37   35 ar
    36   38   37 1
    37   39    1 1
    38   40   39 ar
    39   41   40 1
    40   42   34 ar
    41   43   42 1
    42   14   17 1
    43   17   18 1
    44   37   39 ar
    45   40   42 ar
@<TRIPOS>SUBSTRUCTURE
     1 RES1 1

@<TRIPOS>CRYSIN
   6.0820   11.6120   12.5910  66.5760  79.7520  88.1390   2 1

