# MOL2 file generated by ConQuest
# Please check atom types

@<TRIPOS>MOLECULE
LOPMUA
    90    92     2
SMALL
NO_CHARGES
****
Generated from CSD

@<TRIPOS>ATOM
      1 O1         4.8200    0.7739   15.0928 O.2       1 RES1    0.0000
      2 O2         7.2333    5.5401   12.5673 O.2       1 RES1    0.0000
      3 O3         8.1822    4.7128   10.8104 O.2       1 RES1    0.0000
      4 O4         6.2876    0.6907    8.8336 O.2       1 RES1    0.0000
      5 O5         5.2304   -0.6764   10.1307 O.2       1 RES1    0.0000
      6 N1         3.3889    2.5177   14.8715 N.am      1 RES1    0.0000
      7 N2         7.3832    4.6614   11.7325 N.pl3     1 RES1    0.0000
      8 N3         5.7781    0.4045    9.9043 N.pl3     1 RES1    0.0000
      9 C1         2.7541    3.5480   14.0373 C.3       1 RES1    0.0000
     10 H1         3.2605    3.5919   13.1757 H         1 RES1    0.0000
     11 C2         2.8176    4.9327   14.6793 C.3       1 RES1    0.0000
     12 H2         2.3623    4.9151   15.5593 H         1 RES1    0.0000
     13 H3         3.7616    5.1911   14.8248 H         1 RES1    0.0000
     14 C3         2.1474    5.9372   13.7802 C.2       1 RES1    0.0000
     15 H4         2.3512    6.8579   13.8988 H         1 RES1    0.0000
     16 C4         1.2810    5.5976   12.8241 C.2       1 RES1    0.0000
     17 C5         0.8026    4.1805   12.6161 C.3       1 RES1    0.0000
     18 H5         1.1179    3.8585   11.7354 H         1 RES1    0.0000
     19 H6        -0.1873    4.1717   12.6064 H         1 RES1    0.0000
     20 C6         1.2980    3.2307   13.7003 C.3       1 RES1    0.0000
     21 H7         1.2238    2.2952   13.3845 H         1 RES1    0.0000
     22 H8         0.7386    3.3281   14.5117 H         1 RES1    0.0000
     23 C7         0.7903    6.6049   11.9219 C.1       1 RES1    0.0000
     24 C8         0.4199    7.4200   11.1393 C.1       1 RES1    0.0000
     25 H9         0.1235    8.0707   10.5133 H         1 RES1    0.0000
     26 C9         2.8370    2.2248   16.1931 C.3       1 RES1    0.0000
     27 H10        2.7645    1.2440   16.3032 H         1 RES1    0.0000
     28 H11        1.9250    2.6043   16.2538 H         1 RES1    0.0000
     29 C10        3.6875    2.7917   17.3237 C.3       1 RES1    0.0000
     30 H12        4.6256    2.4981   17.2027 H         1 RES1    0.0000
     31 H13        3.6714    3.7807   17.2786 H         1 RES1    0.0000
     32 C11        3.2030    2.3513   18.6738 C.3       1 RES1    0.0000
     33 H14        3.7549    2.7640   19.3698 H         1 RES1    0.0000
     34 H15        3.2668    1.3759   18.7417 H         1 RES1    0.0000
     35 H16        2.2705    2.6267   18.7910 H         1 RES1    0.0000
     36 C12        4.4217    1.7425   14.4542 C.2       1 RES1    0.0000
     37 C13        5.0998    2.0855   13.1632 C.ar      1 RES1    0.0000
     38 C14        5.8390    3.2530   13.0144 C.ar      1 RES1    0.0000
     39 H17        5.8525    3.9051   13.7052 H         1 RES1    0.0000
     40 C15        6.5550    3.4533   11.8485 C.ar      1 RES1    0.0000
     41 C16        6.5553    2.5509   10.7974 C.ar      1 RES1    0.0000
     42 H18        7.0390    2.7112    9.9952 H         1 RES1    0.0000
     43 C17        5.8088    1.4036   10.9854 C.ar      1 RES1    0.0000
     44 C18        5.1037    1.1351   12.1421 C.ar      1 RES1    0.0000
     45 H19        4.6305    0.3173   12.2402 H         1 RES1    0.0000
     46 O6         8.8902    3.0312   13.5168 O.2       2 RES2    0.0000
     47 O7         6.5173   -1.8447   15.9012 O.2       2 RES2    0.0000
     48 O8         5.5713   -1.0735   17.6862 O.2       2 RES2    0.0000
     49 O9         7.3917    2.9392   19.7433 O.2       2 RES2    0.0000
     50 O10        8.4111    4.3462   18.4779 O.2       2 RES2    0.0000
     51 N4        10.3294    1.2886   13.6659 N.am      2 RES2    0.0000
     52 N5         6.3593   -0.9809   16.7548 N.pl3     2 RES2    0.0000
     53 N6         7.8924    3.2659   18.6861 N.pl3     2 RES2    0.0000
     54 C19       10.9907    0.2449   14.4694 C.3       2 RES2    0.0000
     55 H20       10.4560    0.1353   15.3069 H         2 RES2    0.0000
     56 C20       11.0311   -1.1114   13.7843 C.3       2 RES2    0.0000
     57 H21       10.1344   -1.3421   13.4338 H         2 RES2    0.0000
     58 H22       11.6668   -1.0898   13.0258 H         2 RES2    0.0000
     59 C21       11.4723   -2.1457   14.8045 C.3       2 RES2    0.0000
     60 H23       10.6942   -2.3885   15.3676 H         2 RES2    0.0000
     61 H24       11.7612   -2.9622   14.3239 H         2 RES2    0.0000
     62 C22       12.5939   -1.6925   15.7022 C.2       2 RES2    0.0000
     63 C23       13.0445   -0.4444   15.6966 C.2       2 RES2    0.0000
     64 H25       13.8038   -0.2368   16.2272 H         2 RES2    0.0000
     65 C24       12.4111    0.6582   14.8901 C.3       2 RES2    0.0000
     66 H26       12.9579    0.8402   14.0847 H         2 RES2    0.0000
     67 H27       12.3710    1.4868   15.4302 H         2 RES2    0.0000
     68 C25       13.0887   -2.6875   16.6172 C.1       2 RES2    0.0000
     69 C26       13.3935   -3.5683   17.3518 C.1       2 RES2    0.0000
     70 H28       13.6376   -4.2731   17.9409 H         2 RES2    0.0000
     71 C27       10.8598    1.6072   12.3349 C.3       2 RES2    0.0000
     72 H29       11.7875    1.2677   12.2667 H         2 RES2    0.0000
     73 H30       10.8891    2.5908   12.2250 H         2 RES2    0.0000
     74 C28       10.0240    1.0045   11.2093 C.3       2 RES2    0.0000
     75 H31       10.0755    0.0169   11.2553 H         2 RES2    0.0000
     76 H32        9.0763    1.2677   11.3274 H         2 RES2    0.0000
     77 C29       10.5083    1.4692    9.8517 C.3       2 RES2    0.0000
     78 H33        9.9814    1.0309    9.1507 H         2 RES2    0.0000
     79 H34       11.4536    1.2359    9.7447 H         2 RES2    0.0000
     80 H35       10.4007    2.4406    9.7808 H         2 RES2    0.0000
     81 C30        9.3076    2.0361   14.1187 C.2       2 RES2    0.0000
     82 C31        8.6148    1.6627   15.4071 C.ar      2 RES2    0.0000
     83 C32        7.9005    0.4634   15.5209 C.ar      2 RES2    0.0000
     84 H36        7.9116   -0.1793   14.8210 H         2 RES2    0.0000
     85 C33        7.1810    0.2415   16.6778 C.ar      2 RES2    0.0000
     86 C34        7.1551    1.1161   17.7391 C.ar      2 RES2    0.0000
     87 H37        6.6703    0.9274   18.5330 H         2 RES2    0.0000
     88 C35        7.8753    2.2871   17.5841 C.ar      2 RES2    0.0000
     89 C36        8.5749    2.5813   16.4388 C.ar      2 RES2    0.0000
     90 H38        9.0284    3.4120   16.3563 H         2 RES2    0.0000
@<TRIPOS>BOND
     1    1   36 2
     2    2    7 2
     3    3    7 2
     4    4    8 2
     5    5    8 2
     6    6    9 1
     7    7   40 1
     8    8   43 1
     9    9   10 1
    10   11    9 1
    11   12   11 1
    12   13   11 1
    13   14   11 1
    14   15   14 1
    15   16   14 2
    16   17   16 1
    17   18   17 1
    18   19   17 1
    19   20    9 1
    20   21   20 1
    21   22   20 1
    22   23   16 1
    23   24   23 3
    24   25   24 1
    25   26    6 1
    26   27   26 1
    27   28   26 1
    28   29   26 1
    29   30   29 1
    30   31   29 1
    31   32   29 1
    32   33   32 1
    33   34   32 1
    34   35   32 1
    35   36    6 1
    36   37   36 1
    37   38   37 ar
    38   39   38 1
    39   40   38 ar
    40   41   40 ar
    41   42   41 1
    42   43   41 ar
    43   44   37 ar
    44   45   44 1
    45   46   81 2
    46   47   52 2
    47   48   52 2
    48   49   53 2
    49   50   53 2
    50   51   54 1
    51   52   85 1
    52   53   88 1
    53   54   55 1
    54   56   54 1
    55   57   56 1
    56   58   56 1
    57   59   56 1
    58   60   59 1
    59   61   59 1
    60   62   59 1
    61   63   62 2
    62   64   63 1
    63   65   54 1
    64   66   65 1
    65   67   65 1
    66   68   62 1
    67   69   68 3
    68   70   69 1
    69   71   51 1
    70   72   71 1
    71   73   71 1
    72   74   71 1
    73   75   74 1
    74   76   74 1
    75   77   74 1
    76   78   77 1
    77   79   77 1
    78   80   77 1
    79   81   51 1
    80   82   81 1
    81   83   82 ar
    82   84   83 1
    83   85   83 ar
    84   86   85 ar
    85   87   86 1
    86   88   86 ar
    87   89   82 ar
    88   90   89 1
    89   17   20 1
    90   43   44 ar
    91   63   65 1
    92   88   89 ar
@<TRIPOS>SUBSTRUCTURE
     1 RES1 1
     2 RES2 46

@<TRIPOS>CRYSIN
  13.9182    6.7645   19.5561  90.0000 103.9780  90.0000   4 1

