# MOL2 file generated by ConQuest
# Please check atom types

@<TRIPOS>MOLECULE
LOQBID
    36    38     1
SMALL
NO_CHARGES
****
Generated from CSD

@<TRIPOS>ATOM
      1 O1         6.3004    1.8311    0.9687 O.2       1 RES1    0.0000
      2 O2        10.1220    3.4916    2.6829 O.2       1 RES1    0.0000
      3 O3         7.4325    1.3010    2.8688 O.3       1 RES1    0.0000
      4 N1         8.0842    2.5519    2.7340 N.am      1 RES1    0.0000
      5 C1         6.1264   -0.4102    1.8804 C.3       1 RES1    0.0000
      6 C2         6.6060    1.0188    1.7923 C.2       1 RES1    0.0000
      7 C3        10.0376    1.0996    2.3445 C.3       1 RES1    0.0000
      8 C4         9.4502    2.4744    2.6210 C.2       1 RES1    0.0000
      9 C5         7.3837    3.6632    3.3484 C.3       1 RES1    0.0000
     10 C6         8.4494   -1.4461    1.9337 C.ar      1 RES1    0.0000
     11 C7         7.1347   -1.3903    2.4321 C.ar      1 RES1    0.0000
     12 C8         6.7548   -2.2636    3.4529 C.ar      1 RES1    0.0000
     13 C9         7.6540   -3.1759    3.9983 C.ar      1 RES1    0.0000
     14 C10        8.9634   -3.2100    3.5291 C.ar      1 RES1    0.0000
     15 C11        9.3533   -2.3508    2.5025 C.ar      1 RES1    0.0000
     16 C12        8.8700   -0.5774    0.7915 C.ar      1 RES1    0.0000
     17 C13        9.6230    0.5957    0.9768 C.ar      1 RES1    0.0000
     18 C14        9.9742    1.3685   -0.1340 C.ar      1 RES1    0.0000
     19 C15        9.5803    1.0024   -1.4142 C.ar      1 RES1    0.0000
     20 C16        8.8451   -0.1656   -1.6072 C.ar      1 RES1    0.0000
     21 C17        8.4939   -0.9476   -0.5091 C.ar      1 RES1    0.0000
     22 H1         5.8307   -0.6447    0.9808 H         1 RES1    0.0000
     23 H2         5.3068   -0.4061    2.4549 H         1 RES1    0.0000
     24 H3         9.7639    0.4551    3.0518 H         1 RES1    0.0000
     25 H4        11.0175    1.2372    2.3668 H         1 RES1    0.0000
     26 H5         7.1763    3.4824    4.2758 H         1 RES1    0.0000
     27 H6         7.9763    4.4526    3.3011 H         1 RES1    0.0000
     28 H7         6.5685    3.8348    2.8678 H         1 RES1    0.0000
     29 H8         5.8576   -2.2326    3.7976 H         1 RES1    0.0000
     30 H9         7.3562   -3.7637    4.7282 H         1 RES1    0.0000
     31 H10        9.6310   -3.8427    3.9215 H         1 RES1    0.0000
     32 H11       10.2630   -2.3954    2.1896 H         1 RES1    0.0000
     33 H12       10.4880    2.2026    0.0213 H         1 RES1    0.0000
     34 H13        9.8123    1.5690   -2.1653 H         1 RES1    0.0000
     35 H14        8.5671   -0.4187   -2.5135 H         1 RES1    0.0000
     36 H15        7.9532   -1.7665   -0.6447 H         1 RES1    0.0000
@<TRIPOS>BOND
     1    1    6 2
     2    2    8 2
     3    3    4 1
     4    4    8 1
     5    5    6 1
     6    6    3 1
     7    7    8 1
     8    9    4 1
     9   10   11 ar
    10   11    5 1
    11   12   11 ar
    12   13   12 ar
    13   14   13 ar
    14   15   10 ar
    15   16   10 1
    16   17    7 1
    17   18   17 ar
    18   19   18 ar
    19   20   19 ar
    20   21   16 ar
    21   22    5 1
    22   23    5 1
    23   24    7 1
    24   25    7 1
    25   26    9 1
    26   27    9 1
    27   28    9 1
    28   29   12 1
    29   30   13 1
    30   31   14 1
    31   32   15 1
    32   33   18 1
    33   34   19 1
    34   35   20 1
    35   36   21 1
    36   14   15 ar
    37   16   17 ar
    38   20   21 ar
@<TRIPOS>SUBSTRUCTURE
     1 RES1 1

@<TRIPOS>CRYSIN
  11.2449   15.8005    7.6152  90.0000  93.2695  90.0000  14 1

