# MOL2 file generated by ConQuest
# Please check atom types

@<TRIPOS>MOLECULE
LORJAD
    38    38     1
SMALL
NO_CHARGES
****
Generated from CSD

@<TRIPOS>ATOM
      1 O1         2.2585   -0.1790    2.8520 O.2       1 RES1    0.0000
      2 O2         1.8904    4.2344    3.7274 O.2       1 RES1    0.0000
      3 O3         3.9472    5.6794    3.5058 O.3       1 RES1    0.0000
      4 O4        10.2157    2.9795    0.2643 O.3       1 RES1    0.0000
      5 O5        10.6742    5.0724   -0.2450 O.2       1 RES1    0.0000
      6 O6         7.1172    6.0366    1.6586 O.2       1 RES1    0.0000
      7 O7         9.0410    6.7868    1.0076 O.2       1 RES1    0.0000
      8 N1         4.0463    1.1159    2.3413 N.am      1 RES1    0.0000
      9 N2         2.0758    2.0434    3.2883 N.am      1 RES1    0.0000
     10 N3         4.5828    4.5992    2.9731 N.2       1 RES1    0.0000
     11 N4         5.8634    2.3273    1.7494 N.2       1 RES1    0.0000
     12 N5         6.5626    3.5191    1.6710 N.3       1 RES1    0.0000
     13 N6         8.2524    5.8516    1.1837 N.pl3     1 RES1    0.0000
     14 C1         2.7646    0.9173    2.8079 C.2       1 RES1    0.0000
     15 C2         2.5645    3.2813    3.3145 C.2       1 RES1    0.0000
     16 C3         3.9609    3.4927    2.8795 C.2       1 RES1    0.0000
     17 C4         4.6902    2.3444    2.2890 C.2       1 RES1    0.0000
     18 C5         4.7602   -0.0503    1.7935 C.3       1 RES1    0.0000
     19 C6         0.7018    1.7766    3.8609 C.3       1 RES1    0.0000
     20 C7         7.7636    3.4612    1.1108 C.2       1 RES1    0.0000
     21 C8         8.6292    4.5106    0.8685 C.2       1 RES1    0.0000
     22 C9         9.9511    4.2778    0.2560 C.2       1 RES1    0.0000
     23 C10       11.4709    2.5439   -0.3840 C.3       1 RES1    0.0000
     24 C11       11.9799    1.5780    0.3111 C.3       1 RES1    0.0000
     25 H1         5.7268    0.1961    1.9132 H         1 RES1    0.0000
     26 H2         4.6614   -0.1534    0.9497 H         1 RES1    0.0000
     27 H3         4.4327   -0.8354    2.2574 H         1 RES1    0.0000
     28 H4         0.8924    0.8440    3.6200 H         1 RES1    0.0000
     29 H5         0.1185    2.2591    3.4273 H         1 RES1    0.0000
     30 H6         0.7437    2.1142    4.8450 H         1 RES1    0.0000
     31 H7        12.1844    3.2821   -0.3166 H         1 RES1    0.0000
     32 H8        11.1490    2.3785   -1.4315 H         1 RES1    0.0000
     33 H9        12.5764    1.1338    0.0826 H         1 RES1    0.0000
     34 H10       11.4504    0.8951    0.4542 H         1 RES1    0.0000
     35 H11       12.2943    2.4722    0.9497 H         1 RES1    0.0000
     36 H12        3.0303    5.3793    3.7714 H         1 RES1    0.0000
     37 H13        8.1194    2.5660    0.7570 H         1 RES1    0.0000
     38 H14        6.3932    4.3563    2.2436 H         1 RES1    0.0000
@<TRIPOS>BOND
     1    1   14 2
     2    2   15 2
     3    3   10 1
     4    4   22 1
     5    5   22 2
     6    6   13 2
     7    7   13 2
     8    8   14 1
     9    9   14 1
    10   10   16 2
    11   11   12 1
    12   12   20 1
    13   13   21 1
    14   15    9 1
    15   16   15 1
    16   17    8 1
    17   18    8 1
    18   19    9 1
    19   20   21 2
    20   21   22 1
    21   23    4 1
    22   24   23 1
    23   25   18 1
    24   26   18 1
    25   27   18 1
    26   28   19 1
    27   29   19 1
    28   30   19 1
    29   31   23 1
    30   32   23 1
    31   33   24 1
    32   34   24 1
    33   35   24 1
    34   36    3 1
    35   37   20 1
    36   38   12 1
    37   11   17 2
    38   16   17 1
@<TRIPOS>SUBSTRUCTURE
     1 RES1 1

@<TRIPOS>CRYSIN
  12.9810    8.5250   13.7690  90.0000  91.4900  90.0000  14 1

