# MOL2 file generated by ConQuest
# Please check atom types

@<TRIPOS>MOLECULE
LORNAI
    42    42     2
SMALL
NO_CHARGES
****
Generated from CSD

@<TRIPOS>ATOM
      1 O1         5.9435    5.2768    2.7712 O.2       1 RES1    0.0000
      2 O2         5.1981    6.7072    1.3513 O.2       1 RES1    0.0000
      3 N1        12.6213    4.2436   -0.7037 N.1       1 RES1    0.0000
      4 N2         6.0420    5.9013    1.7409 N.pl3     1 RES1    0.0000
      5 C1        11.8640    4.6386    0.0631 C.1       1 RES1    0.0000
      6 C2        10.9262    5.1365    1.0345 C.3       1 RES1    0.0000
      7 H1        11.2307    6.0035    1.3443 H         1 RES1    0.0000
      8 H2        10.9216    4.5372    1.7970 H         1 RES1    0.0000
      9 C3         8.7689    5.6524    2.9086 C.3       1 RES1    0.0000
     10 H3         9.7029    5.4963    3.0684 H         1 RES1    0.0000
     11 H4         8.2475    5.0113    3.3992 H         1 RES1    0.0000
     12 H5         8.5385    6.5388    3.1973 H         1 RES1    0.0000
     13 C4         8.4783    5.5114    1.4242 C.ar      1 RES1    0.0000
     14 C5         7.1899    5.6625    0.8873 C.ar      1 RES1    0.0000
     15 C6         6.9349    5.6006   -0.4850 C.ar      1 RES1    0.0000
     16 H6         6.0742    5.7315   -0.8116 H         1 RES1    0.0000
     17 C7         7.9703    5.3437   -1.3443 C.ar      1 RES1    0.0000
     18 H7         7.8130    5.2718   -2.2582 H         1 RES1    0.0000
     19 C8         9.2428    5.1948   -0.8537 C.ar      1 RES1    0.0000
     20 H8         9.9452    5.0365   -1.4424 H         1 RES1    0.0000
     21 C9         9.5020    5.2768    0.5172 C.ar      1 RES1    0.0000
     22 O3        -0.7583    1.8354    3.6249 O.2       2 RES2    0.0000
     23 O4         0.8597    0.4605    3.4370 O.2       2 RES2    0.0000
     24 N3        -1.7005    3.0456   -3.7959 N.1       2 RES2    0.0000
     25 N4         0.0619    1.2375    2.9675 N.pl3     2 RES2    0.0000
     26 C10       -1.8809    2.5801   -2.7838 C.1       2 RES2    0.0000
     27 C11       -2.1503    2.0045   -1.4634 C.3       2 RES2    0.0000
     28 H9        -2.5322    1.1210   -1.5783 H         2 RES2    0.0000
     29 H10       -2.8090    2.5542   -1.0106 H         2 RES2    0.0000
     30 C12       -2.4263    1.3865    1.3401 C.3       2 RES2    0.0000
     31 H11       -2.3664    0.8274    2.1180 H         2 RES2    0.0000
     32 H12       -2.9817    0.9627    0.6826 H         2 RES2    0.0000
     33 H13       -2.8069    2.2340    1.5826 H         2 RES2    0.0000
     34 C13       -1.0598    1.6002    0.7724 C.ar      2 RES2    0.0000
     35 C14        0.1119    1.5210    1.5139 C.ar      2 RES2    0.0000
     36 C15        1.3766    1.6728    0.9938 C.ar      2 RES2    0.0000
     37 H14        2.1299    1.5851    1.5335 H         2 RES2    0.0000
     38 C16        1.4939    1.9578   -0.3490 C.ar      2 RES2    0.0000
     39 H15        2.3339    2.0794   -0.7289 H         2 RES2    0.0000
     40 C17        0.3677    2.0628   -1.1256 C.ar      2 RES2    0.0000
     41 H16        0.4565    2.2492   -2.0325 H         2 RES2    0.0000
     42 C18       -0.9143    1.8952   -0.5817 C.ar      2 RES2    0.0000
@<TRIPOS>BOND
     1    1    4 2
     2    2    4 2
     3    3    5 3
     4    4   14 1
     5    5    6 1
     6    6    7 1
     7    8    6 1
     8    9   10 1
     9   11    9 1
    10   12    9 1
    11   13    9 1
    12   14   13 ar
    13   15   14 ar
    14   16   15 1
    15   17   15 ar
    16   18   17 1
    17   19   17 ar
    18   20   19 1
    19   21    6 1
    20   22   25 2
    21   23   25 2
    22   24   26 3
    23   25   35 1
    24   26   27 1
    25   27   28 1
    26   29   27 1
    27   30   31 1
    28   32   30 1
    29   33   30 1
    30   34   30 1
    31   35   34 ar
    32   36   35 ar
    33   37   36 1
    34   38   36 ar
    35   39   38 1
    36   40   38 ar
    37   41   40 1
    38   42   27 1
    39   13   21 ar
    40   19   21 ar
    41   34   42 ar
    42   40   42 ar
@<TRIPOS>SUBSTRUCTURE
     1 RES1 1
     2 RES2 22

@<TRIPOS>CRYSIN
  17.2160    7.1950   15.7460  90.0000 117.1000  90.0000  14 1

