# MOL2 file generated by ConQuest
# Please check atom types

@<TRIPOS>MOLECULE
LOSDUT
    25    25     1
SMALL
NO_CHARGES
****
Generated from CSD

@<TRIPOS>ATOM
      1 O1         0.2107    0.7776   13.1732 O.2       1 RES1    0.0000
      2 O2         1.6274    2.3878   12.8950 O.2       1 RES1    0.0000
      3 O3         2.5466    2.6146    6.7783 O.2       1 RES1    0.0000
      4 O4         2.7958    3.9674    8.5498 O.3       1 RES1    0.0000
      5 H1         3.1054    4.4597    7.9722 H         1 RES1    0.0000
      6 N1         0.9659    1.4502   12.4596 N.pl3     1 RES1    0.0000
      7 N2        -0.0138   -1.0792   11.2771 N.3       1 RES1    0.0000
      8 C1         1.6680    2.0704   10.2399 C.ar      1 RES1    0.0000
      9 H2         1.9565    2.8735   10.6085 H         1 RES1    0.0000
     10 C2         1.0696    1.1126   11.0528 C.ar      1 RES1    0.0000
     11 C3         0.5911   -0.1312   10.5405 C.ar      1 RES1    0.0000
     12 C4         0.8227   -0.3484    9.1491 C.ar      1 RES1    0.0000
     13 H3         0.5593   -1.1536    8.7657 H         1 RES1    0.0000
     14 C5         1.4238    0.6007    8.3651 C.ar      1 RES1    0.0000
     15 H4         1.5621    0.4217    7.4633 H         1 RES1    0.0000
     16 C6         1.8370    1.8365    8.8886 C.ar      1 RES1    0.0000
     17 C7         2.4289    2.8642    8.0181 C.2       1 RES1    0.0000
     18 C8        -0.4530   -2.3679   10.7409 C.3       1 RES1    0.0000
     19 H5         0.2996   -2.8271   10.3362 H         1 RES1    0.0000
     20 H6        -1.1241   -2.2243   10.0556 H         1 RES1    0.0000
     21 C9        -1.0326   -3.2206   11.8517 C.3       1 RES1    0.0000
     22 H7        -1.3329   -4.0574   11.4900 H         1 RES1    0.0000
     23 H8        -1.7738   -2.7619   12.2532 H         1 RES1    0.0000
     24 H9        -0.3585   -3.3823   12.5159 H         1 RES1    0.0000
     25 H10       -0.1869   -0.9070   12.0717 H         1 RES1    0.0000
@<TRIPOS>BOND
     1    1    6 2
     2    2    6 2
     3    3   17 2
     4    4    5 1
     5    6   10 1
     6    7   11 1
     7    8    9 1
     8   10    8 ar
     9   11   10 ar
    10   12   11 ar
    11   13   12 1
    12   14   12 ar
    13   15   14 1
    14   16    8 ar
    15   17    4 1
    16   18    7 1
    17   19   18 1
    18   20   18 1
    19   21   18 1
    20   22   21 1
    21   23   21 1
    22   24   21 1
    23   25    7 1
    24   14   16 ar
    25   16   17 1
@<TRIPOS>SUBSTRUCTURE
     1 RES1 1

@<TRIPOS>CRYSIN
   3.9354    8.4741   13.8106  89.2560  84.7300  82.3040   2 1

