# MOL2 file generated by ConQuest
# Please check atom types

@<TRIPOS>MOLECULE
LOVHOV
    96    75     2
SMALL
NO_CHARGES
****
Generated from CSD

@<TRIPOS>ATOM
      1 O1         5.6273    4.2422    6.2650 O.2       1 RES1    0.0000
      2 O2         3.9035    1.9915    7.6840 O.2       1 RES1    0.0000
      3 N1         5.1578   -1.0368    5.1008 N.pl3     1 RES1    0.0000
      4 O3         5.2752   -2.0720    4.4557 O.2       1 RES1    0.0000
      5 O4         5.7298   -0.8616    6.1821 O.2       1 RES1    0.0000
      6 C1         5.0924    1.9022    7.4141 C.2       1 RES1    0.0000
      7 C2         5.5324    1.8846    5.9446 C.3       1 RES1    0.0000
      8 H1         6.3337    1.2934    5.8514 H         1 RES1    0.0000
      9 C3         5.9140    3.3149    5.5248 C.2       1 RES1    0.0000
     10 C4         6.6670    3.5777    4.2243 C.3       1 RES1    0.0000
     11 C5         7.2876    2.3269    3.6049 C.3       1 RES1    0.0000
     12 H2         6.5766    1.6730    3.3918 H         1 RES1    0.0000
     13 H3         7.9091    1.9076    4.2523 H         1 RES1    0.0000
     14 C6         8.0496    2.6981    2.3231 C.3       1 RES1    0.0000
     15 H4         8.4519    1.8722    1.9276 H         1 RES1    0.0000
     16 C7         7.0893    3.3154    1.3217 C.3       1 RES1    0.0000
     17 H5         7.5722    3.5405    0.4873 H         1 RES1    0.0000
     18 H6         6.3731    2.6692    1.1009 H         1 RES1    0.0000
     19 C8         6.4846    4.5679    1.9204 C.3       1 RES1    0.0000
     20 H7         5.8533    4.9758    1.2608 H         1 RES1    0.0000
     21 C9         7.5763    5.5587    2.2415 C.3       1 RES1    0.0000
     22 H8         7.1792    6.3831    2.6206 H         1 RES1    0.0000
     23 H9         8.0622    5.8010    1.4142 H         1 RES1    0.0000
     24 C10        8.5410    4.9435    3.2440 C.3       1 RES1    0.0000
     25 H10        9.2662    5.5993    3.4527 H         1 RES1    0.0000
     26 C11        7.7932    4.5913    4.5197 C.3       1 RES1    0.0000
     27 H11        7.4052    5.4127    4.9137 H         1 RES1    0.0000
     28 H12        8.4241    4.2034    5.1769 H         1 RES1    0.0000
     29 C12        5.7184    4.2091    3.1948 C.3       1 RES1    0.0000
     30 H13        4.9923    3.5721    2.9774 H         1 RES1    0.0000
     31 H14        5.3081    5.0252    3.5768 H         1 RES1    0.0000
     32 C13        9.1515    3.6831    2.6505 C.3       1 RES1    0.0000
     33 H15        9.6543    3.9091    1.8286 H         1 RES1    0.0000
     34 H16        9.7817    3.2788    3.2983 H         1 RES1    0.0000
     35 C14        6.1229    1.7661    8.5329 C.3       1 RES1    0.0000
     36 C15        5.9511    0.4524    9.1823 C.3       1 RES1    0.0000
     37 H17        6.1490   -0.2704    8.5361 H         1 RES1    0.0000
     38 H18        5.0161    0.3489    9.4891 H         1 RES1    0.0000
     39 C16        6.9135    0.3570   10.3876 C.3       1 RES1    0.0000
     40 H19        6.8120   -0.5332   10.8314 H         1 RES1    0.0000
     41 C17        6.5706    1.4592   11.3677 C.3       1 RES1    0.0000
     42 H20        5.6348    1.3506   11.6723 H         1 RES1    0.0000
     43 H21        7.1613    1.3928   12.1596 H         1 RES1    0.0000
     44 C18        6.7363    2.8144   10.7324 C.3       1 RES1    0.0000
     45 H22        6.5230    3.5264   11.4025 H         1 RES1    0.0000
     46 C19        8.1638    2.9823   10.2538 C.3       1 RES1    0.0000
     47 H23        8.7819    2.9296   11.0251 H         1 RES1    0.0000
     48 H24        8.2707    3.8721    9.8328 H         1 RES1    0.0000
     49 C20        8.5070    1.8971    9.2486 C.3       1 RES1    0.0000
     50 H25        9.4496    2.0147    8.9343 H         1 RES1    0.0000
     51 C21        7.5464    1.9991    8.0553 C.3       1 RES1    0.0000
     52 H26        7.6194    2.8967    7.6430 H         1 RES1    0.0000
     53 H27        7.7869    1.3242    7.3732 H         1 RES1    0.0000
     54 C22        8.3425    0.5185    9.8774 C.3       1 RES1    0.0000
     55 H28        8.9799    0.4141   10.6280 H         1 RES1    0.0000
     56 H29        8.5390   -0.1820    9.2051 H         1 RES1    0.0000
     57 C23        5.7704    2.9210    9.5489 C.3       1 RES1    0.0000
     58 H30        5.8668    3.8025    9.1094 H         1 RES1    0.0000
     59 H31        4.8368    2.8274    9.8622 H         1 RES1    0.0000
     60 C24        4.4217    1.3507    5.0705 C.ar      1 RES1    0.0000
     61 C25        3.3967    2.2022    4.7135 C.ar      1 RES1    0.0000
     62 H32        3.4265    3.1091    4.9964 H         1 RES1    0.0000
     63 C26        2.3175    1.7605    3.9461 C.ar      1 RES1    0.0000
     64 H33        1.6201    2.3641    3.7193 H         1 RES1    0.0000
     65 C27        2.2581    0.4512    3.5162 C.ar      1 RES1    0.0000
     66 H34        1.5286    0.1586    2.9828 H         1 RES1    0.0000
     67 C28        3.2523   -0.4260    3.8575 C.ar      1 RES1    0.0000
     68 H35        3.2165   -1.3306    3.5691 H         1 RES1    0.0000
     69 C29        4.3094    0.0238    4.6297 C.ar      1 RES1    0.0000
     70 N2         5.4644   -0.9517    4.9278 Du        2 SUP2    0.0000
     71 O5         5.1342   -2.1273    4.8560 Du        2 SUP2    0.0000
     72 O6         6.6158   -0.6004    5.1606 Du        2 SUP2    0.0000
     73 C30        7.0233    0.4027    8.2859 Du        2 SUP2    0.0000
     74 H36        6.4155   -0.3705    8.1663 Du        2 SUP2    0.0000
     75 H37        7.5487    0.5068    7.4537 Du        2 SUP2    0.0000
     76 C31        7.9927    0.1115    9.4673 Du        2 SUP2    0.0000
     77 H38        8.5552   -0.6898    9.2628 Du        2 SUP2    0.0000
     78 C32        7.1871   -0.1241   10.7248 Du        2 SUP2    0.0000
     79 H39        6.5970   -0.9093   10.5986 Du        2 SUP2    0.0000
     80 H40        7.7989   -0.3179   11.4787 Du        2 SUP2    0.0000
     81 C33        6.3557    1.0819   11.0501 Du        2 SUP2    0.0000
     82 H41        5.8360    0.9193   11.8888 Du        2 SUP2    0.0000
     83 C34        7.2387    2.3212   11.2187 Du        2 SUP2    0.0000
     84 H42        7.8561    2.1881   11.9812 Du        2 SUP2    0.0000
     85 H43        6.6728    3.1095   11.4145 Du        2 SUP2    0.0000
     86 C35        8.0595    2.5739    9.9187 Du        2 SUP2    0.0000
     87 H44        8.6607    3.3643   10.0449 Du        2 SUP2    0.0000
     88 C36        7.0681    2.8474    8.7548 Du        2 SUP2    0.0000
     89 H45        6.5654    3.6771    8.9517 Du        2 SUP2    0.0000
     90 H46        7.5838    2.9971    7.9237 Du        2 SUP2    0.0000
     91 C37        8.8782    1.3518    9.6359 Du        2 SUP2    0.0000
     92 H47        9.5138    1.2032   10.3800 Du        2 SUP2    0.0000
     93 H48        9.4048    1.4940    8.8092 Du        2 SUP2    0.0000
     94 C38        5.3875    1.4083    9.8872 Du        2 SUP2    0.0000
     95 H49        4.8151    2.1717   10.1515 Du        2 SUP2    0.0000
     96 H50        4.7960    0.6288    9.7338 Du        2 SUP2    0.0000
@<TRIPOS>BOND
     1    1    9 2
     2    2    6 2
     3    3    4 2
     4    5    3 2
     5    6    7 1
     6    7    8 1
     7    9    7 1
     8   10    9 1
     9   11   10 1
    10   12   11 1
    11   13   11 1
    12   14   11 1
    13   15   14 1
    14   16   14 1
    15   17   16 1
    16   18   16 1
    17   19   16 1
    18   20   19 1
    19   21   19 1
    20   22   21 1
    21   23   21 1
    22   24   21 1
    23   25   24 1
    24   26   10 1
    25   27   26 1
    26   28   26 1
    27   29   10 1
    28   30   29 1
    29   31   29 1
    30   32   14 1
    31   33   32 1
    32   34   32 1
    33   35    6 1
    34   36   35 1
    35   37   36 1
    36   38   36 1
    37   39   36 1
    38   40   39 1
    39   41   39 1
    40   42   41 1
    41   43   41 1
    42   44   41 1
    43   45   44 1
    44   46   44 1
    45   47   46 1
    46   48   46 1
    47   49   46 1
    48   50   49 1
    49   51   35 1
    50   52   51 1
    51   53   51 1
    52   54   39 1
    53   55   54 1
    54   56   54 1
    55   57   35 1
    56   58   57 1
    57   59   57 1
    58   60    7 1
    59   61   60 ar
    60   62   61 1
    61   63   61 ar
    62   64   63 1
    63   65   63 ar
    64   66   65 1
    65   67   65 ar
    66   68   67 1
    67   69    3 1
    68   19   29 1
    69   24   26 1
    70   24   32 1
    71   44   57 1
    72   49   51 1
    73   49   54 1
    74   60   69 ar
    75   67   69 ar
@<TRIPOS>SUBSTRUCTURE
     1 RES1 1
     2 SUP2 70

@<TRIPOS>CRYSIN
  10.4669   10.9940   11.9657  85.1450  65.6110  70.7220   2 1

