# MOL2 file generated by ConQuest
# Please check atom types

@<TRIPOS>MOLECULE
LOVJEN01
    27    29     1
SMALL
USER_CHARGES
****
Generated from CSD

@<TRIPOS>ATOM
      1 C1         3.4989    6.2507    1.7755 C.ar      1 RES1    0.0000
      2 H1         3.3159    5.6864    1.0598 H         1 RES1    0.0000
      3 C2         4.5630    5.9859    2.5978 C.ar      1 RES1    0.0000
      4 H2         5.1011    5.2444    2.4368 H         1 RES1    0.0000
      5 C3         4.8422    6.8313    3.6827 C.ar      1 RES1    0.0000
      6 H3         5.5733    6.6481    4.2276 H         1 RES1    0.0000
      7 C4         4.0558    7.9215    3.9528 C.ar      1 RES1    0.0000
      8 H4         4.2444    8.4620    4.6862 H         1 RES1    0.0000
      9 C5         2.9538    8.2238    3.1131 C.ar      1 RES1    0.0000
     10 C6         2.6841    7.3698    2.0073 C.ar      1 RES1    0.0000
     11 C7         0.8720    8.6333    1.4354 C.ar      1 RES1    0.0000
     12 H5         0.1507    8.7910    0.8701 H         1 RES1    0.0000
     13 C8         2.0923    9.3385    3.3484 C.ar      1 RES1    0.0000
     14 C9         2.2407   10.2854    4.4805 C.ar      1 RES1    0.0000
     15 C10        3.4174   11.0263    4.6254 C.ar      1 RES1    0.0000
     16 H6         4.1058   10.9355    4.0069 H         1 RES1    0.0000
     17 C11        3.5536   11.8987    5.6958 C.ar      1 RES1    0.0000
     18 H7         4.3328   12.3981    5.7885 H         1 RES1    0.0000
     19 C12        2.5347   12.0315    6.6281 C.ar      1 RES1    0.0000
     20 H8         2.6315   12.6206    7.3414 H         1 RES1    0.0000
     21 C13        1.3737   11.2891    6.4996 C.ar      1 RES1    0.0000
     22 H9         0.6968   11.3695    7.1322 H         1 RES1    0.0000
     23 C14        1.2224   10.4249    5.4245 C.ar      1 RES1    0.0000
     24 H10        0.4367    9.9356    5.3322 H         1 RES1    0.0000
     25 N1         1.6145    7.6209    1.1724 N.ar      1 RES1    0.0000
     26 N2         1.0570    9.5202    2.5031 N.pl3     1 RES1    1.0000
     27 O1         0.2281   10.5062    2.6052 O.2       1 RES1   -1.0000
@<TRIPOS>BOND
     1    1    2 1
     2    3    1 ar
     3    4    3 1
     4    5    3 ar
     5    6    5 1
     6    7    5 ar
     7    8    7 1
     8    9    7 ar
     9   10    1 ar
    10   11   12 1
    11   13    9 ar
    12   14   13 1
    13   15   14 ar
    14   16   15 1
    15   17   15 ar
    16   18   17 1
    17   19   17 ar
    18   20   19 1
    19   21   19 ar
    20   22   21 1
    21   23   14 ar
    22   24   23 1
    23   25   10 ar
    24   26   11 ar
    25   27   26 1
    26    9   10 ar
    27   11   25 ar
    28   13   26 ar
    29   21   23 ar
@<TRIPOS>SUBSTRUCTURE
     1 RES1 1

@<TRIPOS>CRYSIN
   5.7450   15.8970   11.7260  90.0000 101.4080  90.0000  14 1

