# MOL2 file generated by ConQuest
# Please check atom types

@<TRIPOS>MOLECULE
LOWMOB
    43    46     1
SMALL
NO_CHARGES
****
Generated from CSD

@<TRIPOS>ATOM
      1 C1         4.7357   14.3875    4.7392 C.2       1 RES1    0.0000
      2 C2         4.9654   13.9248    6.9898 C.2       1 RES1    0.0000
      3 C3         4.7805   14.1208    2.2734 C.ar      1 RES1    0.0000
      4 C4         6.2812   14.7370    8.5533 C.2       1 RES1    0.0000
      5 C5         4.2646   13.6394    1.0908 C.ar      1 RES1    0.0000
      6 C6         4.3312   11.2821    9.4950 C.ar      1 RES1    0.0000
      7 C7         2.4091    9.8934    9.0757 C.ar      1 RES1    0.0000
      8 C8         4.1208   13.9148    3.4914 C.ar      1 RES1    0.0000
      9 C9         2.9079   13.2164    3.4778 C.ar      1 RES1    0.0000
     10 C10        2.3894   12.7302    2.2856 C.ar      1 RES1    0.0000
     11 C11        3.5556   10.1717    9.8059 C.ar      1 RES1    0.0000
     12 C12        5.9301   14.8713    7.1961 C.2       1 RES1    0.0000
     13 C13        6.3699   15.7794    6.0822 C.3       1 RES1    0.0000
     14 C14        5.6258   15.3807    4.8484 C.2       1 RES1    0.0000
     15 C15        7.2856   15.5253    9.3271 C.3       1 RES1    0.0000
     16 C16        2.7759   11.8692    7.7360 C.ar      1 RES1    0.0000
     17 C17        6.2184   17.2797    6.4246 C.3       1 RES1    0.0000
     18 C18        2.0235   10.7330    8.0459 C.ar      1 RES1    0.0000
     19 C19        3.9359   12.1232    8.4566 C.ar      1 RES1    0.0000
     20 C20        3.0621   12.9334    1.0887 C.ar      1 RES1    0.0000
     21 N1         5.5751   13.7710    9.1410 N.2       1 RES1    0.0000
     22 N2         4.7528   13.2623    8.1610 N.pl3     1 RES1    0.0000
     23 N3         4.8128   17.5724    6.8186 N.pl3     1 RES1    0.0000
     24 O1         4.3159   13.6138    5.8446 O.3       1 RES1    0.0000
     25 O2         4.0193   17.8921    5.9477 O.2       1 RES1    0.0000
     26 O3         4.5238   17.4332    7.9924 O.2       1 RES1    0.0000
     27 H1         2.6829   12.6296    0.2321 H         1 RES1    0.0000
     28 H2         7.3740   15.2175   10.2663 H         1 RES1    0.0000
     29 H3         5.0963   11.5040    9.9956 H         1 RES1    0.0000
     30 H4         2.4210   13.0832    4.2949 H         1 RES1    0.0000
     31 H5         8.1529   15.4782    8.8966 H         1 RES1    0.0000
     32 H6         1.5489   12.2281    2.2937 H         1 RES1    0.0000
     33 H7         3.8430    9.5444   10.5644 H         1 RES1    0.0000
     34 H8         5.6209   14.5315    2.3124 H         1 RES1    0.0000
     35 H9         1.8307    9.1246    9.2784 H         1 RES1    0.0000
     36 H10        4.7477   13.7707    0.2508 H         1 RES1    0.0000
     37 H11        7.0081   16.4953    9.3730 H         1 RES1    0.0000
     38 H12        6.7548   17.5223    7.1981 H         1 RES1    0.0000
     39 H13        2.4418   12.4451    7.0231 H         1 RES1    0.0000
     40 H14        7.3145   15.6641    5.8922 H         1 RES1    0.0000
     41 H15        1.2579   10.5785    7.5215 H         1 RES1    0.0000
     42 H16        6.3817   17.8069    5.6524 H         1 RES1    0.0000
     43 H17        5.8187   15.8346    4.0594 H         1 RES1    0.0000
@<TRIPOS>BOND
     1    1    8 1
     2    2   12 2
     3    3    5 ar
     4    4   12 1
     5    5   20 ar
     6    6   11 ar
     7    7   11 ar
     8    8    3 ar
     9    9    8 ar
    10   10    9 ar
    11   11   33 1
    12   12   13 1
    13   13   14 1
    14   14    1 2
    15   15    4 1
    16   16   18 ar
    17   17   13 1
    18   18    7 ar
    19   19    6 ar
    20   20   10 ar
    21   21    4 2
    22   22    2 1
    23   23   17 1
    24   24    1 1
    25   25   23 2
    26   26   23 2
    27   27   20 1
    28   28   15 1
    29   29    6 1
    30   30    9 1
    31   31   15 1
    32   32   10 1
    33   34    3 1
    34   35    7 1
    35   36    5 1
    36   37   15 1
    37   38   17 1
    38   39   16 1
    39   40   13 1
    40   41   18 1
    41   42   17 1
    42   43   14 1
    43    2   24 1
    44   16   19 ar
    45   19   22 1
    46   21   22 1
@<TRIPOS>SUBSTRUCTURE
     1 RES1 1

@<TRIPOS>CRYSIN
   5.3666   14.0877   11.0289  90.0000  94.0650  90.0000   4 1

