# MOL2 file generated by ConQuest
# Please check atom types

@<TRIPOS>MOLECULE
LOWMUH
    64    67     1
SMALL
NO_CHARGES
****
Generated from CSD

@<TRIPOS>ATOM
      1 C1         6.9398    4.1269   13.0772 C.3       1 RES1    0.0000
      2 C2         6.3860    2.8690   13.8273 C.3       1 RES1    0.0000
      3 C3         7.4555    5.2505   15.3148 C.3       1 RES1    0.0000
      4 C4         6.2572    7.7574   13.2686 C.ar      1 RES1    0.0000
      5 C5         7.2404    2.7077   15.1112 C.3       1 RES1    0.0000
      6 C6         7.1476    6.6877   13.2378 C.ar      1 RES1    0.0000
      7 C7         9.5475    2.9849   18.7993 C.ar      1 RES1    0.0000
      8 C8         6.7746    5.3978   13.9452 C.3       1 RES1    0.0000
      9 C9         7.0897    3.9342   16.0253 C.3       1 RES1    0.0000
     10 C10        7.7883    3.8106   17.3691 C.ar      1 RES1    0.0000
     11 C11        7.2322    4.4597   18.4684 C.ar      1 RES1    0.0000
     12 C12        7.7846    9.1234   12.0166 C.ar      1 RES1    0.0000
     13 C13        8.9797    3.6196   19.8901 C.ar      1 RES1    0.0000
     14 N1         8.9653    5.3679   15.2157 N.pl3     1 RES1    0.0000
     15 N2         4.5185    4.8104   10.4122 N.2       1 RES1    0.0000
     16 N3         7.8809    3.5838   10.0012 N.pl3     1 RES1    0.0000
     17 O1         9.5697    4.5642   14.5044 O.2       1 RES1    0.0000
     18 O2         5.0027    4.7449   11.7571 O.3       1 RES1    0.0000
     19 O3         5.8511    1.3301   16.5512 O.2       1 RES1    0.0000
     20 O4         7.7347    0.4743   15.6675 O.3       1 RES1    0.0000
     21 O5         9.5109    6.2480   15.8598 O.2       1 RES1    0.0000
     22 O6         8.8441    3.6033   10.7579 O.2       1 RES1    0.0000
     23 C14        6.2593    4.3017   11.7606 C.2       1 RES1    0.0000
     24 C15        7.8116    4.3535   19.7248 C.ar      1 RES1    0.0000
     25 C16        7.4918   -0.7838   16.3717 C.3       1 RES1    0.0000
     26 C17        5.4901    4.3903    9.6568 C.2       1 RES1    0.0000
     27 C18        6.8378    1.4487   15.8692 C.2       1 RES1    0.0000
     28 C19        8.9572    3.0771   17.5491 C.ar      1 RES1    0.0000
     29 C20        6.4884    1.6244   12.9471 C.3       1 RES1    0.0000
     30 C21        5.3240    4.3431    8.1693 C.3       1 RES1    0.0000
     31 C22        6.6145    4.0612   10.4625 C.2       1 RES1    0.0000
     32 C23        8.6998   -1.6435   16.1790 C.3       1 RES1    0.0000
     33 O7         5.0573    3.1027   14.2553 O.3       1 RES1    0.0000
     34 C24        8.3622    6.8491   12.5647 C.ar      1 RES1    0.0000
     35 C25        8.6800    8.0704   11.9707 C.ar      1 RES1    0.0000
     36 O8         7.9359    3.1862    8.8420 O.2       1 RES1    0.0000
     37 C26        6.5764    8.9638   12.6537 C.ar      1 RES1    0.0000
     38 H1         9.3233    2.5739   16.8342 H         1 RES1    0.0000
     39 H2         8.9998    6.0908   12.5065 H         1 RES1    0.0000
     40 H3         6.4408    4.9839   18.3169 H         1 RES1    0.0000
     41 H4         9.4829    8.1351   11.5312 H         1 RES1    0.0000
     42 H5         8.0688    9.9279   11.5836 H         1 RES1    0.0000
     43 H6         8.8423   -1.8681   15.2553 H         1 RES1    0.0000
     44 H7         7.3761   -0.5673   17.3416 H         1 RES1    0.0000
     45 H8         5.4565    7.6531   13.7333 H         1 RES1    0.0000
     46 H9         6.0439    4.8310    7.7348 H         1 RES1    0.0000
     47 H10        5.3852    3.4027    7.8638 H         1 RES1    0.0000
     48 H11        4.4691    4.7689    7.9207 H         1 RES1    0.0000
     49 H12        6.2077    0.8476   13.4337 H         1 RES1    0.0000
     50 H13        7.4059    1.4847   12.6311 H         1 RES1    0.0000
     51 H14        5.9194    1.7141   12.1238 H         1 RES1    0.0000
     52 H15        7.2388    5.9789   15.8480 H         1 RES1    0.0000
     53 H16        7.8794    3.9911   12.8804 H         1 RES1    0.0000
     54 H17        8.1081    2.6360   14.8333 H         1 RES1    0.0000
     55 H18        7.3867    4.7722   20.5037 H         1 RES1    0.0000
     56 H19        6.1971    4.0310   16.2110 H         1 RES1    0.0000
     57 H20        9.4212    3.5412   20.7727 H         1 RES1    0.0000
     58 H21       10.3427    2.4554   18.8964 H         1 RES1    0.0000
     59 H22        5.9587    9.6830   12.6880 H         1 RES1    0.0000
     60 H23        8.5125   -2.4598   16.6680 H         1 RES1    0.0000
     61 H24        6.7142   -1.2044   15.9595 H         1 RES1    0.0000
     62 H25        9.4382   -1.1967   16.6396 H         1 RES1    0.0000
     63 H26        5.9130    5.4814   14.1488 H         1 RES1    0.0000
     64 H27        4.6074    2.8809   13.6305 H         1 RES1    0.0000
@<TRIPOS>BOND
     1    1    2 1
     2    2    5 1
     3    3    8 1
     4    4    6 ar
     5    5    9 1
     6    6    8 1
     7    7   13 ar
     8    8    1 1
     9    9    3 1
    10   10    9 1
    11   11   10 ar
    12   12   35 ar
    13   13   24 ar
    14   14    3 1
    15   15   18 1
    16   16   22 2
    17   17   14 2
    18   18   23 1
    19   19   27 2
    20   20   25 1
    21   21   14 2
    22   23    1 1
    23   24   11 ar
    24   25   32 1
    25   26   15 2
    26   27    5 1
    27   28    7 ar
    28   29    2 1
    29   30   26 1
    30   31   16 1
    31   32   43 1
    32   33    2 1
    33   34    6 ar
    34   35   34 ar
    35   36   16 2
    36   37    4 ar
    37   38   28 1
    38   39   34 1
    39   40   11 1
    40   41   35 1
    41   42   12 1
    42   44   25 1
    43   45    4 1
    44   46   30 1
    45   47   30 1
    46   48   30 1
    47   49   29 1
    48   50   29 1
    49   51   29 1
    50   52    3 1
    51   53    1 1
    52   54    5 1
    53   55   24 1
    54   56    9 1
    55   57   13 1
    56   58    7 1
    57   59   37 1
    58   60   32 1
    59   61   25 1
    60   62   32 1
    61   63    8 1
    62   64   33 1
    63   10   28 ar
    64   12   37 ar
    65   20   27 1
    66   23   31 2
    67   26   31 1
@<TRIPOS>SUBSTRUCTURE
     1 RES1 1

@<TRIPOS>CRYSIN
  10.6406   11.0802   21.8683  90.0000  90.0000  90.0000  19 1

