# MOL2 file generated by ConQuest
# Please check atom types

@<TRIPOS>MOLECULE
LOXFUB
    24    24     1
SMALL
USER_CHARGES
****
Generated from CSD

@<TRIPOS>ATOM
      1 N1         1.1138    6.1231    4.1862 N.pl3     1 RES1    1.0000
      2 O1         1.1093    7.0511    3.2814 O.2       1 RES1   -1.0000
      3 C1         0.5641    4.8993    3.9038 C.ar      1 RES1    0.0000
      4 C2         1.6752    6.3762    5.4091 C.ar      1 RES1    0.0000
      5 C3        -0.0165    4.7649    2.5445 C.3       1 RES1    0.0000
      6 H1        -0.4197    3.8766    2.4474 H         1 RES1    0.0000
      7 H2         0.6900    4.8779    1.8751 H         1 RES1    0.0000
      8 H3        -0.7035    5.4511    2.4135 H         1 RES1    0.0000
      9 C4         2.2430    7.7386    5.5749 C.3       1 RES1    0.0000
     10 H4         2.6877    7.8037    6.4462 H         1 RES1    0.0000
     11 H5         1.5222    8.4005    5.5266 H         1 RES1    0.0000
     12 H6         2.8934    7.9107    4.8619 H         1 RES1    0.0000
     13 N1B        1.1339    4.1679    6.0882 N.pl3     1 RES1    1.0000
     14 O1B        1.1384    3.2399    6.9931 O.2       1 RES1   -1.0000
     15 C1B        1.6837    5.3917    6.3707 C.ar      1 RES1    0.0000
     16 C2B        0.5725    3.9148    4.8654 C.ar      1 RES1    0.0000
     17 C3B        2.2643    5.5261    7.7300 C.3       1 RES1    0.0000
     18 H1B        2.6675    6.4144    7.8271 H         1 RES1    0.0000
     19 H2B        1.5577    5.4131    8.3994 H         1 RES1    0.0000
     20 H3B        2.9512    4.8399    7.8610 H         1 RES1    0.0000
     21 C4B        0.0048    2.5524    4.6995 C.3       1 RES1    0.0000
     22 H4B       -0.4400    2.4873    3.8283 H         1 RES1    0.0000
     23 H5B        0.7255    1.8905    4.7478 H         1 RES1    0.0000
     24 H6B       -0.6457    2.3803    5.4126 H         1 RES1    0.0000
@<TRIPOS>BOND
     1    1    2 1
     2    3    1 ar
     3    4    1 ar
     4    5    3 1
     5    6    5 1
     6    7    5 1
     7    8    5 1
     8    9    4 1
     9   10    9 1
    10   11    9 1
    11   12    9 1
    12   13   14 1
    13   15    4 ar
    14   16    3 ar
    15   17   15 1
    16   18   17 1
    17   19   17 1
    18   20   17 1
    19   21   16 1
    20   22   21 1
    21   23   21 1
    22   24   21 1
    23   13   15 ar
    24   13   16 ar
@<TRIPOS>SUBSTRUCTURE
     1 RES1 1

@<TRIPOS>CRYSIN
   3.8328   10.2910   10.3960  90.0000  98.7700  90.0000  14 1

