# MOL2 file generated by ConQuest
# Please check atom types

@<TRIPOS>MOLECULE
LOXMUG
    94   102     2
SMALL
NO_CHARGES
****
Generated from CSD

@<TRIPOS>ATOM
      1 O1        -3.8592  -15.0020   -8.1283 O.3       1 RES1    0.0000
      2 O2        -5.5535  -15.1193  -10.9463 O.3       1 RES1    0.0000
      3 O3        -3.2840  -13.6918   -4.3478 O.3       1 RES1    0.0000
      4 N1        -3.8425  -13.5561   -7.9929 N.3       1 RES1    0.0000
      5 C1        -4.4622  -13.0752  -10.3022 C.ar      1 RES1    0.0000
      6 C2        -4.6665  -14.1039  -11.1915 C.ar      1 RES1    0.0000
      7 C3        -4.8737  -10.9859   -5.7129 C.ar      1 RES1    0.0000
      8 C4        -3.1175  -13.2042  -12.7798 C.ar      1 RES1    0.0000
      9 C5        -5.2345  -15.4175   -8.0514 C.3       1 RES1    0.0000
     10 C6        -2.9410  -12.0532  -11.9527 C.ar      1 RES1    0.0000
     11 C7        -3.6337  -11.9761  -10.7194 C.ar      1 RES1    0.0000
     12 C8        -2.0958  -10.9843  -12.3480 C.ar      1 RES1    0.0000
     13 C9        -3.8970  -11.7231   -6.3679 C.ar      1 RES1    0.0000
     14 C10       -4.9889  -13.1690   -8.8785 C.3       1 RES1    0.0000
     15 C11       -4.0635  -13.2193   -6.5583 C.3       1 RES1    0.0000
     16 C12       -3.5869   -8.9854   -5.9800 C.ar      1 RES1    0.0000
     17 C13       -2.7556  -11.0697   -6.8035 C.ar      1 RES1    0.0000
     18 C14       -4.7161   -9.6204   -5.5152 C.ar      1 RES1    0.0000
     19 C15       -6.0374  -14.2966   -8.7138 C.3       1 RES1    0.0000
     20 C16       -6.6036  -14.7222  -10.0533 C.3       1 RES1    0.0000
     21 C17       -3.0485  -13.9850   -5.7165 C.3       1 RES1    0.0000
     22 C18       -3.9733  -14.1844  -12.4138 C.ar      1 RES1    0.0000
     23 C19       -2.5991   -9.7025   -6.6132 C.ar      1 RES1    0.0000
     24 C20       -2.6999   -9.7595  -10.3973 C.ar      1 RES1    0.0000
     25 C21       -3.5023  -10.7949   -9.9655 C.ar      1 RES1    0.0000
     26 C22       -1.9900   -9.8634  -11.5867 C.ar      1 RES1    0.0000
     27 H1        -4.0914  -13.6683   -4.2087 H         1 RES1    0.0000
     28 H2        -5.6409  -11.4098   -5.4018 H         1 RES1    0.0000
     29 H3        -2.6403  -13.2796  -13.5740 H         1 RES1    0.0000
     30 H4        -5.5062  -15.5331   -7.1255 H         1 RES1    0.0000
     31 H5        -5.3653  -16.2552   -8.5235 H         1 RES1    0.0000
     32 H6        -1.6075  -11.0513  -13.1348 H         1 RES1    0.0000
     33 H7        -5.3648  -12.3095   -8.5967 H         1 RES1    0.0000
     34 H8        -4.9706  -13.4840   -6.2948 H         1 RES1    0.0000
     35 H9        -3.4906   -8.0673   -5.8629 H         1 RES1    0.0000
     36 H10       -2.0852  -11.5539   -7.2316 H         1 RES1    0.0000
     37 H11       -5.3737   -9.1346   -5.0724 H         1 RES1    0.0000
     38 H12       -6.7590  -14.0034   -8.1173 H         1 RES1    0.0000
     39 H13       -7.2172  -15.4627   -9.9252 H         1 RES1    0.0000
     40 H14       -7.0992  -13.9850  -10.4449 H         1 RES1    0.0000
     41 H15       -3.1404  -14.9366   -5.8739 H         1 RES1    0.0000
     42 H16       -2.1481  -13.7203   -5.9617 H         1 RES1    0.0000
     43 H17       -4.1042  -14.9165  -12.9738 H         1 RES1    0.0000
     44 H18       -1.8296   -9.2736   -6.9132 H         1 RES1    0.0000
     45 H19       -2.6331   -8.9854   -9.8886 H         1 RES1    0.0000
     46 H20       -3.9661  -10.7112   -9.1640 H         1 RES1    0.0000
     47 H21       -1.4416   -9.1647  -11.8612 H         1 RES1    0.0000
     48 O4        -0.5752  -14.3385  -21.4424 O.3       2 RES2    0.0000
     49 O5        -0.9738  -17.6358  -21.1167 O.3       2 RES2    0.0000
     50 O6        -2.3781  -19.9982  -21.8230 O.3       2 RES2    0.0000
     51 N2        -1.7344  -17.5420  -19.8907 N.3       2 RES2    0.0000
     52 C23       -3.2350  -18.6796  -18.4048 C.ar      2 RES2    0.0000
     53 C24       -4.4438  -18.1904  -17.9327 C.ar      2 RES2    0.0000
     54 C25       -0.3992  -14.4524  -20.0737 C.ar      2 RES2    0.0000
     55 C26        0.6771  -13.7320  -19.5357 C.ar      2 RES2    0.0000
     56 C27       -1.9778  -15.7543  -16.9666 C.ar      2 RES2    0.0000
     57 C28       -2.4722  -15.8397  -21.4461 C.3       2 RES2    0.0000
     58 C29        0.0184  -14.4256  -17.3289 C.ar      2 RES2    0.0000
     59 C30       -2.3413  -19.2392  -17.4972 C.ar      2 RES2    0.0000
     60 C31       -1.8269  -15.6336  -15.6161 C.ar      2 RES2    0.0000
     61 C32       -2.2562  -16.1379  -19.9419 C.3       2 RES2    0.0000
     62 C33       -1.2394  -15.2097  -19.2978 C.ar      2 RES2    0.0000
     63 C34       -3.8280  -18.7818  -15.6856 C.ar      2 RES2    0.0000
     64 C35       -2.8386  -18.5556  -19.8614 C.3       2 RES2    0.0000
     65 C36       -1.0780  -15.1477  -17.8742 C.ar      2 RES2    0.0000
     66 C37       -2.3642  -19.9060  -20.4104 C.3       2 RES2    0.0000
     67 C38       -4.7339  -18.2272  -16.5713 C.ar      2 RES2    0.0000
     68 C39        0.9048  -13.7437  -18.2035 C.ar      2 RES2    0.0000
     69 C40        0.1698  -14.3519  -15.9162 C.ar      2 RES2    0.0000
     70 C41       -1.7406  -16.9706  -22.1451 C.3       2 RES2    0.0000
     71 C42       -0.7294  -14.9350  -15.0818 C.ar      2 RES2    0.0000
     72 C43       -1.9404  -14.4809  -21.8303 C.3       2 RES2    0.0000
     73 C44       -2.6314  -19.2978  -16.1468 C.ar      2 RES2    0.0000
     74 H22       -3.1515  -19.9529  -22.0939 H         2 RES2    0.0000
     75 H23       -5.0635  -17.8368  -18.5293 H         2 RES2    0.0000
     76 H24        1.2361  -13.2444  -20.0956 H         2 RES2    0.0000
     77 H25       -2.6921  -16.2468  -17.2959 H         2 RES2    0.0000
     78 H26       -3.4282  -15.8900  -21.6547 H         2 RES2    0.0000
     79 H27       -1.5334  -19.5827  -17.8046 H         2 RES2    0.0000
     80 H28       -2.4527  -16.0173  -15.0452 H         2 RES2    0.0000
     81 H29       -3.1097  -16.0810  -19.4625 H         2 RES2    0.0000
     82 H30       -4.0246  -18.8069  -14.7780 H         2 RES2    0.0000
     83 H31       -3.5997  -18.2306  -20.3884 H         2 RES2    0.0000
     84 H32       -1.4605  -20.0685  -20.0993 H         2 RES2    0.0000
     85 H33       -2.9304  -20.6047  -20.0481 H         2 RES2    0.0000
     86 H34       -5.5374  -17.8787  -16.2602 H         2 RES2    0.0000
     87 H35        1.6465  -13.3031  -17.8559 H         2 RES2    0.0000
     88 H36        0.8964  -13.8945  -15.5576 H         2 RES2    0.0000
     89 H37       -2.3709  -17.5855  -22.5513 H         2 RES2    0.0000
     90 H38       -1.1548  -16.6221  -22.8368 H         2 RES2    0.0000
     91 H39       -0.6197  -14.8730  -14.1632 H         2 RES2    0.0000
     92 H40       -2.0162  -14.3653  -22.7929 H         2 RES2    0.0000
     93 H41       -2.4722  -13.7923  -21.4022 H         2 RES2    0.0000
     94 H42       -2.0262  -19.6798  -15.5539 H         2 RES2    0.0000
@<TRIPOS>BOND
     1    1    4 1
     2    2    6 1
     3    3   21 1
     4    4   14 1
     5    5    6 ar
     6    6   22 ar
     7    7   13 ar
     8    8   10 ar
     9    9    1 1
    10   10   11 ar
    11   11    5 ar
    12   12   10 ar
    13   13   15 1
    14   14    5 1
    15   15    4 1
    16   16   18 ar
    17   17   13 ar
    18   18    7 ar
    19   19    9 1
    20   20    2 1
    21   21   15 1
    22   22    8 ar
    23   23   16 ar
    24   24   25 ar
    25   25   11 ar
    26   26   12 ar
    27   27    3 1
    28   28    7 1
    29   29    8 1
    30   30    9 1
    31   31    9 1
    32   32   12 1
    33   33   14 1
    34   34   15 1
    35   35   16 1
    36   36   17 1
    37   37   18 1
    38   38   19 1
    39   39   20 1
    40   40   20 1
    41   41   21 1
    42   42   21 1
    43   43   22 1
    44   44   23 1
    45   45   24 1
    46   46   25 1
    47   47   26 1
    48   48   54 1
    49   49   51 1
    50   50   66 1
    51   51   61 1
    52   52   53 ar
    53   53   67 ar
    54   54   55 ar
    55   55   68 ar
    56   56   60 ar
    57   57   61 1
    58   58   65 ar
    59   59   52 ar
    60   60   71 ar
    61   61   62 1
    62   62   54 ar
    63   63   67 ar
    64   64   51 1
    65   65   56 ar
    66   66   64 1
    67   67   86 1
    68   68   58 ar
    69   69   58 ar
    70   70   49 1
    71   71   69 ar
    72   72   48 1
    73   73   59 ar
    74   74   50 1
    75   75   53 1
    76   76   55 1
    77   77   56 1
    78   78   57 1
    79   79   59 1
    80   80   60 1
    81   81   61 1
    82   82   63 1
    83   83   64 1
    84   84   66 1
    85   85   66 1
    86   87   68 1
    87   88   69 1
    88   89   70 1
    89   90   70 1
    90   91   71 1
    91   92   72 1
    92   93   72 1
    93   94   73 1
    94   14   19 1
    95   17   23 ar
    96   19   20 1
    97   24   26 ar
    98   52   64 1
    99   57   70 1
   100   57   72 1
   101   62   65 ar
   102   63   73 ar
@<TRIPOS>SUBSTRUCTURE
     1 RES1 1
     2 RES2 48

@<TRIPOS>CRYSIN
   5.5680   16.7545   36.5974  90.0000  90.0000  90.0000  19 1

