# MOL2 file generated by ConQuest
# Please check atom types

@<TRIPOS>MOLECULE
LOXNUH
    41    44     1
SMALL
NO_CHARGES
****
Generated from CSD

@<TRIPOS>ATOM
      1 O1         0.6581    1.9015    5.4747 O.3       1 RES1    0.0000
      2 O2         4.4402    4.7178    6.6730 O.3       1 RES1    0.0000
      3 O3         0.1358    1.5550    1.9358 O.3       1 RES1    0.0000
      4 N1         1.3973    3.1392    5.3023 N.3       1 RES1    0.0000
      5 C1         2.5554    1.3610   10.0175 C.ar      1 RES1    0.0000
      6 C2         1.5753    2.8163    8.3623 C.ar      1 RES1    0.0000
      7 C3        -0.1020    2.9174    2.0800 C.ar      1 RES1    0.0000
      8 C4        -0.7491    5.5965    2.3646 C.ar      1 RES1    0.0000
      9 C5        -1.0795    3.4760    1.2725 C.ar      1 RES1    0.0000
     10 C6         0.2403    5.0241    3.1361 C.ar      1 RES1    0.0000
     11 C7         2.5470    2.4407    7.4465 C.ar      1 RES1    0.0000
     12 C8         1.9972    1.6132    3.5369 C.3       1 RES1    0.0000
     13 C9         3.5105    0.9632    9.0997 C.ar      1 RES1    0.0000
     14 C10        1.3214    0.8856    4.7011 C.3       1 RES1    0.0000
     15 C11        1.5867    2.2674    9.6388 C.ar      1 RES1    0.0000
     16 C12        1.7136    3.0990    3.8475 C.3       1 RES1    0.0000
     17 C13        2.6833    3.1004    6.0878 C.3       1 RES1    0.0000
     18 C14        3.5136    1.5148    7.8232 C.ar      1 RES1    0.0000
     19 C15        0.5858    3.6825    3.0259 C.ar      1 RES1    0.0000
     20 C16        3.1214    4.5750    6.2021 C.3       1 RES1    0.0000
     21 C17       -1.4051    4.8148    1.4148 C.ar      1 RES1    0.0000
     22 C18        1.5009    1.2016    2.1702 C.3       1 RES1    0.0000
     23 H1         4.6290    5.5147    6.7191 H         1 RES1    0.0000
     24 H2         2.5663    1.0201   10.8812 H         1 RES1    0.0000
     25 H3         0.9203    3.4302    8.1218 H         1 RES1    0.0000
     26 H4        -0.9760    6.4918    2.4768 H         1 RES1    0.0000
     27 H5        -1.5149    2.9548    0.6352 H         1 RES1    0.0000
     28 H6         0.6924    5.5549    3.7513 H         1 RES1    0.0000
     29 H7         2.9632    1.4566    3.5830 H         1 RES1    0.0000
     30 H8         4.1483    0.3299    9.3362 H         1 RES1    0.0000
     31 H9         0.6799    0.2370    4.3705 H         1 RES1    0.0000
     32 H10        1.9810    0.4227    5.2422 H         1 RES1    0.0000
     33 H11        0.9302    2.5169   10.2499 H         1 RES1    0.0000
     34 H12        2.5278    3.6187    3.6852 H         1 RES1    0.0000
     35 H13        3.3550    2.6125    5.5668 H         1 RES1    0.0000
     36 H14        4.1696    1.2612    7.2140 H         1 RES1    0.0000
     37 H15        3.0485    4.9950    5.3324 H         1 RES1    0.0000
     38 H16        2.5190    5.0379    6.8052 H         1 RES1    0.0000
     39 H17       -2.0622    5.1932    0.8777 H         1 RES1    0.0000
     40 H18        2.0554    1.6216    1.4949 H         1 RES1    0.0000
     41 H19        1.5976    0.2412    2.0760 H         1 RES1    0.0000
@<TRIPOS>BOND
     1    1    4 1
     2    2   20 1
     3    3    7 1
     4    4   16 1
     5    5   13 ar
     6    6   11 ar
     7    7    9 ar
     8    8   10 ar
     9    9   21 ar
    10   10   19 ar
    11   11   17 1
    12   12   14 1
    13   13   18 ar
    14   14    1 1
    15   15    5 ar
    16   16   12 1
    17   17    4 1
    18   18   11 ar
    19   19    7 ar
    20   20   17 1
    21   21    8 ar
    22   22    3 1
    23   23    2 1
    24   24    5 1
    25   25    6 1
    26   26    8 1
    27   27    9 1
    28   28   10 1
    29   29   12 1
    30   30   13 1
    31   31   14 1
    32   32   14 1
    33   33   15 1
    34   34   16 1
    35   35   17 1
    36   36   18 1
    37   37   20 1
    38   38   20 1
    39   39   21 1
    40   40   22 1
    41   41   22 1
    42    6   15 ar
    43   12   22 1
    44   16   19 1
@<TRIPOS>SUBSTRUCTURE
     1 RES1 1

@<TRIPOS>CRYSIN
   5.2023   13.8595   20.0390  90.0000  90.0000  90.0000  19 1

