# MOL2 file generated by ConQuest
# Please check atom types

@<TRIPOS>MOLECULE
LOYDAE
    36    39     1
SMALL
NO_CHARGES
****
Generated from CSD

@<TRIPOS>ATOM
      1 C1         3.1902    4.9222    0.2067 C.3       1 RES1    0.0000
      2 H1         3.0652    5.8582    0.2533 H         1 RES1    0.0000
      3 N1         4.0574    4.5241    1.3380 N.3       1 RES1    0.0000
      4 O1         3.7619    3.0788    1.4373 O.3       1 RES1    0.0000
      5 C2         2.5800    2.7825    0.6388 C.3       1 RES1    0.0000
      6 H2         2.0215    2.1983    1.1451 H         1 RES1    0.0000
      7 C3         3.0191    2.1596   -0.6776 C.3       1 RES1    0.0000
      8 H3         2.1531    1.8410   -1.2216 H         1 RES1    0.0000
      9 H4         3.6387    1.3431   -0.5368 H         1 RES1    0.0000
     10 N2         3.7027    3.1966   -1.4606 N.pl3     1 RES1    0.0000
     11 C4         4.3148    3.0879   -2.6921 C.2       1 RES1    0.0000
     12 H5         4.3627    2.2138   -3.1518 H         1 RES1    0.0000
     13 C5         4.7322    4.3281   -2.9801 C.2       1 RES1    0.0000
     14 H6         5.1901    4.6932   -3.7764 H         1 RES1    0.0000
     15 N3         4.4191    5.2333   -1.9806 N.2       1 RES1    0.0000
     16 C6         3.7995    4.4907   -1.0824 C.2       1 RES1    0.0000
     17 C7         1.9115    4.1146    0.4139 C.3       1 RES1    0.0000
     18 H7         1.2975    4.0946   -0.4189 H         1 RES1    0.0000
     19 H8         1.3812    4.4819    1.2090 H         1 RES1    0.0000
     20 C8         3.6218    5.1302    2.6234 C.3       1 RES1    0.0000
     21 H9         2.7060    4.8602    2.8081 H         1 RES1    0.0000
     22 C9         3.7337    6.6348    2.5422 C.3       1 RES1    0.0000
     23 H10        3.0840    7.0586    1.9565 H         1 RES1    0.0000
     24 H11        3.7234    7.0586    3.4992 H         1 RES1    0.0000
     25 H12        4.7858    6.7267    2.1660 H         1 RES1    0.0000
     26 C10        4.4549    4.6101    3.7752 C.ar      1 RES1    0.0000
     27 C11        3.8531    3.9763    4.8283 C.ar      1 RES1    0.0000
     28 H13        2.9636    3.7826    4.7509 H         1 RES1    0.0000
     29 C12        4.5526    3.6067    5.9504 C.ar      1 RES1    0.0000
     30 H14        4.0994    3.0879    6.7087 H         1 RES1    0.0000
     31 C13        5.8887    3.8767    6.0214 C.ar      1 RES1    0.0000
     32 H15        6.4124    3.6289    6.7638 H         1 RES1    0.0000
     33 C14        6.5318    4.4907    4.9804 C.ar      1 RES1    0.0000
     34 H16        7.4937    4.7773    4.9766 H         1 RES1    0.0000
     35 C15        5.8154    4.8647    3.8566 C.ar      1 RES1    0.0000
     36 H17        6.2338    5.3614    3.1443 H         1 RES1    0.0000
@<TRIPOS>BOND
     1    1    2 1
     2    3    1 1
     3    4    3 1
     4    5    4 1
     5    6    5 1
     6    7    5 1
     7    8    7 1
     8    9    7 1
     9   10    7 1
    10   11   10 1
    11   12   11 1
    12   13   11 2
    13   14   13 1
    14   15   13 1
    15   16    1 1
    16   17    1 1
    17   18   17 1
    18   19   17 1
    19   20    3 1
    20   21   20 1
    21   22   20 1
    22   23   22 1
    23   24   22 1
    24   25   22 1
    25   26   20 1
    26   27   26 ar
    27   28   27 1
    28   29   27 ar
    29   30   29 1
    30   31   29 ar
    31   32   31 1
    32   33   31 ar
    33   34   33 1
    34   35   26 ar
    35   36   35 1
    36    5   17 1
    37   10   16 1
    38   15   16 2
    39   33   35 ar
@<TRIPOS>SUBSTRUCTURE
     1 RES1 1

@<TRIPOS>CRYSIN
   9.4024   11.0636   12.5419  90.0000  90.0000  90.0000  19 1

