# MOL2 file generated by ConQuest
# Please check atom types

@<TRIPOS>MOLECULE
LOZFIP
    80    83     1
SMALL
NO_CHARGES
****
Generated from CSD

@<TRIPOS>ATOM
      1 O1       -10.7020   -5.0194   -7.6413 O.2       1 RES1    0.0000
      2 O2        -9.3106   -5.2753   -5.8643 O.3       1 RES1    0.0000
      3 O3        -7.7978   -3.9206   -3.9318 O.3       1 RES1    0.0000
      4 O4        -5.2582   -1.0826   -5.8848 O.2       1 RES1    0.0000
      5 O5        -6.4966   -2.0647   -7.4799 O.3       1 RES1    0.0000
      6 O6        -9.4872   -1.0882   -3.9809 O.2       1 RES1    0.0000
      7 N1       -10.6778   -6.9414   -6.4321 N.am      1 RES1    0.0000
      8 N2        -6.8806   -3.0581   -3.2460 N.3       1 RES1    0.0000
      9 N3        -8.5109   -0.7789   -1.9845 N.am      1 RES1    0.0000
     10 C1       -11.1127   -8.0747   -8.5880 C.ar      1 RES1    0.0000
     11 C2       -11.9532   -8.1914   -9.7385 C.ar      1 RES1    0.0000
     12 C3       -13.3274   -7.8209   -9.7365 C.ar      1 RES1    0.0000
     13 C4       -14.0784   -7.8750  -10.8712 C.ar      1 RES1    0.0000
     14 C5       -13.5127   -8.3066  -12.0787 C.ar      1 RES1    0.0000
     15 C6       -12.2083   -8.6982  -12.1278 C.ar      1 RES1    0.0000
     16 C7       -11.3891   -8.6413  -10.9617 C.ar      1 RES1    0.0000
     17 C8       -10.0185   -9.0075  -11.0108 C.ar      1 RES1    0.0000
     18 C9        -9.2345   -8.8915   -9.9135 C.ar      1 RES1    0.0000
     19 C10       -9.7881   -8.4226   -8.7021 C.ar      1 RES1    0.0000
     20 C11      -11.6908   -7.5819   -7.2724 C.3       1 RES1    0.0000
     21 C12      -12.3861   -8.6764   -6.4838 C.3       1 RES1    0.0000
     22 C13      -10.2844   -5.6922   -6.7316 C.2       1 RES1    0.0000
     23 C14       -9.0355   -3.8672   -5.9823 C.3       1 RES1    0.0000
     24 C15       -7.7129   -3.5726   -5.3432 C.3       1 RES1    0.0000
     25 C16       -7.1833   -1.7540   -3.8623 C.3       1 RES1    0.0000
     26 C17       -7.4006   -2.0675   -5.3510 C.3       1 RES1    0.0000
     27 C18       -5.5293   -3.5487   -3.4159 C.ar      1 RES1    0.0000
     28 C19       -5.2976   -4.8753   -3.7463 C.ar      1 RES1    0.0000
     29 C20       -4.0026   -5.3569   -3.8722 C.ar      1 RES1    0.0000
     30 C21       -2.9241   -4.5329   -3.6460 C.ar      1 RES1    0.0000
     31 C22       -3.1478   -3.2218   -3.2861 C.ar      1 RES1    0.0000
     32 C23       -4.4438   -2.7157   -3.1603 C.ar      1 RES1    0.0000
     33 C24       -6.2360   -1.6809   -6.2301 C.2       1 RES1    0.0000
     34 C25       -5.4757   -1.7477   -8.4681 C.3       1 RES1    0.0000
     35 C26       -8.4856   -1.1789   -3.2586 C.2       1 RES1    0.0000
     36 C27       -7.3557   -0.8788   -1.0560 C.3       1 RES1    0.0000
     37 C28       -7.6475   -1.8869    0.0433 C.3       1 RES1    0.0000
     38 C29       -6.9538    0.4759   -0.5211 C.3       1 RES1    0.0000
     39 C30       -9.7628   -0.2046   -1.4317 C.3       1 RES1    0.0000
     40 C31      -10.1081    1.1360   -2.0826 C.3       1 RES1    0.0000
     41 C32      -10.9151   -1.1965   -1.4631 C.3       1 RES1    0.0000
     42 H1       -13.7286   -7.5305   -8.9263 H         1 RES1    0.0000
     43 H2       -14.9923   -7.6177  -10.8437 H         1 RES1    0.0000
     44 H3       -14.0424   -8.3270  -12.8673 H         1 RES1    0.0000
     45 H4       -11.8410   -9.0118  -12.9459 H         1 RES1    0.0000
     46 H5        -9.6477   -9.3379  -11.8211 H         1 RES1    0.0000
     47 H6        -8.3152   -9.1242   -9.9587 H         1 RES1    0.0000
     48 H7        -9.2256   -8.3446   -7.9410 H         1 RES1    0.0000
     49 H8       -12.3445   -6.9238   -7.4789 H         1 RES1    0.0000
     50 H9       -13.0599   -9.0757   -7.0207 H         1 RES1    0.0000
     51 H10      -12.7829   -8.3024   -5.7050 H         1 RES1    0.0000
     52 H11      -11.7510   -9.3358   -6.2281 H         1 RES1    0.0000
     53 H12      -10.3051   -7.4012   -5.6893 H         1 RES1    0.0000
     54 H13       -9.7180   -3.3716   -5.5477 H         1 RES1    0.0000
     55 H14       -9.0049   -3.6254   -6.9007 H         1 RES1    0.0000
     56 H15       -7.0175   -4.0612   -5.7680 H         1 RES1    0.0000
     57 H16       -6.4603   -1.1487   -3.7483 H         1 RES1    0.0000
     58 H17       -8.1721   -1.6000   -5.6480 H         1 RES1    0.0000
     59 H18       -6.0334   -5.4602   -3.8879 H         1 RES1    0.0000
     60 H19       -3.8583   -6.2630   -4.1160 H         1 RES1    0.0000
     61 H20       -2.0376   -4.8641   -3.7345 H         1 RES1    0.0000
     62 H21       -2.4053   -2.6510   -3.1229 H         1 RES1    0.0000
     63 H22       -4.5828   -1.8123   -2.9027 H         1 RES1    0.0000
     64 H23       -5.7523   -2.0633   -9.3196 H         1 RES1    0.0000
     65 H24       -4.6597   -2.1673   -8.2242 H         1 RES1    0.0000
     66 H25       -5.3509   -0.8070   -8.5035 H         1 RES1    0.0000
     67 H26       -6.6215   -1.2127   -1.5556 H         1 RES1    0.0000
     68 H27       -7.8257   -2.7354   -0.3461 H         1 RES1    0.0000
     69 H28       -8.4041   -1.6021    0.5408 H         1 RES1    0.0000
     70 H29       -6.8955   -1.9543    0.6195 H         1 RES1    0.0000
     71 H30       -6.2066    0.3789    0.0570 H         1 RES1    0.0000
     72 H31       -7.6799    0.8534   -0.0374 H         1 RES1    0.0000
     73 H32       -6.7246    1.0468   -1.2448 H         1 RES1    0.0000
     74 H33       -9.5921   -0.0218   -0.5152 H         1 RES1    0.0000
     75 H34       -9.3987    1.7512   -1.9351 H         1 RES1    0.0000
     76 H35      -10.9072    1.4777   -1.6991 H         1 RES1    0.0000
     77 H36      -10.2321    1.0123   -3.0167 H         1 RES1    0.0000
     78 H37      -11.0896   -1.4496   -2.3638 H         1 RES1    0.0000
     79 H38      -11.6913   -0.7923   -1.0934 H         1 RES1    0.0000
     80 H39      -10.6850   -1.9656   -0.9577 H         1 RES1    0.0000
@<TRIPOS>BOND
     1    1   22 2
     2    2   22 1
     3    3    8 1
     4    4   33 2
     5    5   33 1
     6    6   35 2
     7    7   20 1
     8    8   25 1
     9    9   35 1
    10   10   11 ar
    11   11   12 ar
    12   12   13 ar
    13   13   14 ar
    14   14   15 ar
    15   15   16 ar
    16   16   11 ar
    17   17   16 ar
    18   18   17 ar
    19   19   10 ar
    20   20   10 1
    21   21   20 1
    22   22    7 1
    23   23    2 1
    24   24    3 1
    25   25   26 1
    26   26   24 1
    27   27    8 1
    28   28   27 ar
    29   29   28 ar
    30   30   29 ar
    31   31   30 ar
    32   32   27 ar
    33   33   26 1
    34   34    5 1
    35   35   25 1
    36   36    9 1
    37   37   36 1
    38   38   36 1
    39   39    9 1
    40   40   39 1
    41   41   39 1
    42   42   12 1
    43   43   13 1
    44   44   14 1
    45   45   15 1
    46   46   17 1
    47   47   18 1
    48   48   19 1
    49   49   20 1
    50   50   21 1
    51   51   21 1
    52   52   21 1
    53   53    7 1
    54   54   23 1
    55   55   23 1
    56   56   24 1
    57   57   25 1
    58   58   26 1
    59   59   28 1
    60   60   29 1
    61   61   30 1
    62   62   31 1
    63   63   32 1
    64   64   34 1
    65   65   34 1
    66   66   34 1
    67   67   36 1
    68   68   37 1
    69   69   37 1
    70   70   37 1
    71   71   38 1
    72   72   38 1
    73   73   38 1
    74   74   39 1
    75   75   40 1
    76   76   40 1
    77   77   40 1
    78   78   41 1
    79   79   41 1
    80   80   41 1
    81   18   19 ar
    82   23   24 1
    83   31   32 ar
@<TRIPOS>SUBSTRUCTURE
     1 RES1 1

@<TRIPOS>CRYSIN
  10.8510    7.0300   20.2460  90.0000 103.7510  90.0000   4 1

