# MOL2 file generated by ConQuest
# Please check atom types

@<TRIPOS>MOLECULE
LOZGIQ
    38    40     1
SMALL
NO_CHARGES
****
Generated from CSD

@<TRIPOS>ATOM
      1 O1        -5.9351    1.6973    2.1809 O.2       1 RES1    0.0000
      2 N1        -6.8864    1.6973    1.3174 N.pl3     1 RES1    0.0000
      3 N2        -8.9736    1.6973   -0.5686 N.ar      1 RES1    0.0000
      4 C1        -8.2017    1.6973    1.7332 C.ar      1 RES1    0.0000
      5 C2        -9.2331    1.6973    0.7444 C.ar      1 RES1    0.0000
      6 C3       -10.6070    1.6973    1.2048 C.ar      1 RES1    0.0000
      7 C4       -10.8280    1.6973    2.5517 C.ar      1 RES1    0.0000
      8 C5        -9.7801    1.6973    3.5010 C.ar      1 RES1    0.0000
      9 C6        -8.4812    1.6973    3.1102 C.ar      1 RES1    0.0000
     10 C7        -6.6003    1.6973   -0.0248 C.ar      1 RES1    0.0000
     11 C8        -7.6834    1.6973   -0.9476 C.ar      1 RES1    0.0000
     12 C9        -7.3753    1.6973   -2.3488 C.ar      1 RES1    0.0000
     13 C10       -6.0631    1.6973   -2.7271 C.ar      1 RES1    0.0000
     14 C11       -5.0077    1.6973   -1.7830 C.ar      1 RES1    0.0000
     15 C12       -5.2595    1.6973   -0.4598 C.ar      1 RES1    0.0000
     16 C13       -8.5030    1.6973   -3.3340 C.3       1 RES1    0.0000
     17 C14      -11.7744    1.6973    0.2029 C.3       1 RES1    0.0000
     18 C15      -11.7230    2.9547   -0.6705 C.3       1 RES1    0.0000
     19 C16      -13.1301    1.6973    0.9252 C.3       1 RES1    0.0000
     20 H1       -11.6991    1.6973    2.8761 H         1 RES1    0.0000
     21 H2       -10.0167    1.6973    4.4240 H         1 RES1    0.0000
     22 H3        -7.7656    1.6973    3.7015 H         1 RES1    0.0000
     23 H4        -5.8411    1.6973   -3.6786 H         1 RES1    0.0000
     24 H5        -4.0813    1.6973   -2.0821 H         1 RES1    0.0000
     25 H6        -4.5867    1.6973    0.1942 H         1 RES1    0.0000
     26 H7        -8.1330    1.6973   -4.2641 H         1 RES1    0.0000
     27 H8        -9.0819    0.8826   -3.2259 H         1 RES1    0.0000
     28 H9       -10.9093    2.9940   -1.2281 H         1 RES1    0.0000
     29 H10      -11.7751    3.7748   -0.0885 H         1 RES1    0.0000
     30 H11      -12.4903    2.9601   -1.2667 H         1 RES1    0.0000
     31 H12      -13.2646    0.8894    1.5066 H         1 RES1    0.0000
     32 H13      -13.8263    1.6973    0.2085 H         1 RES1    0.0000
     33 H8C       -9.0819    2.5120   -3.2259 H         1 RES1    0.0000
     34 C15C     -11.7230    0.4399   -0.6705 C.3       1 RES1    0.0000
     35 H9C      -10.9093    0.4006   -1.2281 H         1 RES1    0.0000
     36 H10C     -11.7751   -0.3802   -0.0885 H         1 RES1    0.0000
     37 H11C     -12.4903    0.4345   -1.2667 H         1 RES1    0.0000
     38 H12C     -13.2646    2.5052    1.5066 H         1 RES1    0.0000
@<TRIPOS>BOND
     1    1    2 1
     2    2    4 ar
     3    3    5 ar
     4    4    5 ar
     5    5    6 ar
     6    6    7 ar
     7    7    8 ar
     8    8    9 ar
     9    9    4 ar
    10   10    2 ar
    11   11    3 ar
    12   12   11 ar
    13   13   12 ar
    14   14   13 ar
    15   15   10 ar
    16   16   12 1
    17   17    6 1
    18   18   17 1
    19   19   17 1
    20   20    7 1
    21   21    8 1
    22   22    9 1
    23   23   13 1
    24   24   14 1
    25   25   15 1
    26   26   16 1
    27   27   16 1
    28   28   18 1
    29   29   18 1
    30   30   18 1
    31   31   19 1
    32   32   19 1
    33   33   16 1
    34   34   17 1
    35   35   34 1
    36   36   34 1
    37   37   34 1
    38   38   19 1
    39   10   11 ar
    40   14   15 ar
@<TRIPOS>SUBSTRUCTURE
     1 RES1 1

@<TRIPOS>CRYSIN
  14.0783    6.7892   14.2803  90.0000  90.0000  90.0000  62 1

