# MOL2 file generated by ConQuest
# Please check atom types

@<TRIPOS>MOLECULE
LOZZEF
    56    60     2
SMALL
NO_CHARGES
****
Generated from CSD

@<TRIPOS>ATOM
      1 N1        -4.1295    0.7277   -0.6673 N.3       1 RES1    0.0000
      2 O1        -3.2468    1.0501   -1.7872 O.3       1 RES1    0.0000
      3 C1        -3.3205    2.4782   -2.0402 C.3       1 RES1    0.0000
      4 H1        -3.6320    2.6496   -2.9427 H         1 RES1    0.0000
      5 H2        -2.4493    2.8904   -1.9283 H         1 RES1    0.0000
      6 C2        -4.3046    3.0250   -1.0237 C.3       1 RES1    0.0000
      7 H3        -4.0766    3.9320   -0.7317 H         1 RES1    0.0000
      8 C3        -5.6923    2.9312   -1.5675 C.2       1 RES1    0.0000
      9 O2        -6.4516    3.8836   -1.6354 O.2       1 RES1    0.0000
     10 C4        -6.0566    1.5661   -2.0705 C.3       1 RES1    0.0000
     11 H4        -5.7711    1.4845   -2.9944 H         1 RES1    0.0000
     12 H5        -7.0219    1.4712   -2.0503 H         1 RES1    0.0000
     13 C5        -5.4333    0.4377   -1.2594 C.3       1 RES1    0.0000
     14 H6        -6.0462    0.1989   -0.5466 H         1 RES1    0.0000
     15 H7        -5.3417   -0.3377   -1.8351 H         1 RES1    0.0000
     16 C6        -4.1392    1.9783    0.1073 C.3       1 RES1    0.0000
     17 C7        -2.7959    2.1323    0.8408 C.3       1 RES1    0.0000
     18 H8        -2.1791    1.4324    0.5739 H         1 RES1    0.0000
     19 H9        -2.3943    2.9934    0.6413 H         1 RES1    0.0000
     20 C8        -3.1237    2.0242    2.3143 C.3       1 RES1    0.0000
     21 H10       -2.4962    2.5333    2.8509 H         1 RES1    0.0000
     22 H11       -3.1141    1.0998    2.6070 H         1 RES1    0.0000
     23 C9        -4.5179    2.6098    2.4018 C.3       1 RES1    0.0000
     24 H12       -4.9548    2.3547    3.2297 H         1 RES1    0.0000
     25 H13       -4.4967    3.5780    2.3401 H         1 RES1    0.0000
     26 C10       -5.2127    2.0007    1.2072 C.3       1 RES1    0.0000
     27 H14       -5.9722    2.5394    0.9369 H         1 RES1    0.0000
     28 H15       -5.5196    1.1019    1.4075 H         1 RES1    0.0000
     29 N2        -1.9844    3.0655    8.1914 N.3       2 RES2    0.0000
     30 O3        -1.1957    3.5107    9.3438 O.3       2 RES2    0.0000
     31 C11       -1.2887    4.9523    9.4474 C.3       2 RES2    0.0000
     32 H16       -0.4114    5.3584    9.3619 H         2 RES2    0.0000
     33 H17       -1.6705    5.2104   10.3017 H         2 RES2    0.0000
     34 C12       -2.1942    5.3859    8.3019 C.3       2 RES2    0.0000
     35 H18       -1.9466    6.2623    7.9400 H         2 RES2    0.0000
     36 C13       -3.6308    5.3267    8.7257 C.2       2 RES2    0.0000
     37 O4        -4.4089    6.2542    8.5652 O.2       2 RES2    0.0000
     38 C14       -4.0267    4.0198    9.3389 C.3       2 RES2    0.0000
     39 H19       -4.9885    3.9157    9.2658 H         2 RES2    0.0000
     40 H20       -3.8017    4.0330   10.2830 H         2 RES2    0.0000
     41 C15       -3.3467    2.8210    8.6841 C.3       2 RES2    0.0000
     42 H21       -3.3151    2.0956    9.3275 H         2 RES2    0.0000
     43 H22       -3.8940    2.5251    7.9400 H         2 RES2    0.0000
     44 C16       -1.9274    4.2371    7.3034 C.3       2 RES2    0.0000
     45 C17       -2.9182    4.1565    6.1289 C.3       2 RES2    0.0000
     46 H23       -3.1068    3.2342    5.8941 H         2 RES2    0.0000
     47 H24       -3.7515    4.6044    6.3446 H         2 RES2    0.0000
     48 C18       -2.1916    4.8686    5.0029 C.3       2 RES2    0.0000
     49 H25       -2.5685    4.6391    4.1393 H         2 RES2    0.0000
     50 H26       -2.2196    5.8307    5.1178 H         2 RES2    0.0000
     51 C19       -0.7789    4.3381    5.1465 C.3       2 RES2    0.0000
     52 H27       -0.1447    4.9115    4.6888 H         2 RES2    0.0000
     53 H28       -0.7076    3.4393    4.7893 H         2 RES2    0.0000
     54 C20       -0.5372    4.3473    6.6446 C.3       2 RES2    0.0000
     55 H29       -0.0990    5.1706    6.9127 H         2 RES2    0.0000
     56 H30        0.0221    3.5984    6.9041 H         2 RES2    0.0000
@<TRIPOS>BOND
     1    1    2 1
     2    2    3 1
     3    3    4 1
     4    5    3 1
     5    6    3 1
     6    7    6 1
     7    8    6 1
     8    9    8 2
     9   10    8 1
    10   11   10 1
    11   12   10 1
    12   13    1 1
    13   14   13 1
    14   15   13 1
    15   16    1 1
    16   17   16 1
    17   18   17 1
    18   19   17 1
    19   20   17 1
    20   21   20 1
    21   22   20 1
    22   23   20 1
    23   24   23 1
    24   25   23 1
    25   26   16 1
    26   27   26 1
    27   28   26 1
    28   29   30 1
    29   30   31 1
    30   31   32 1
    31   33   31 1
    32   34   31 1
    33   35   34 1
    34   36   34 1
    35   37   36 2
    36   38   36 1
    37   39   38 1
    38   40   38 1
    39   41   29 1
    40   42   41 1
    41   43   41 1
    42   44   29 1
    43   45   44 1
    44   46   45 1
    45   47   45 1
    46   48   45 1
    47   49   48 1
    48   50   48 1
    49   51   48 1
    50   52   51 1
    51   53   51 1
    52   54   44 1
    53   55   54 1
    54   56   54 1
    55    6   16 1
    56   10   13 1
    57   23   26 1
    58   34   44 1
    59   38   41 1
    60   51   54 1
@<TRIPOS>SUBSTRUCTURE
     1 RES1 1
     2 RES2 29

@<TRIPOS>CRYSIN
   6.4979   10.2025   14.5685  90.0000  99.9870  90.0000   4 1

