# MOL2 file generated by ConQuest
# Please check atom types

@<TRIPOS>MOLECULE
LOZZIL
    16    15     1
SMALL
NO_CHARGES
****
Generated from CSD

@<TRIPOS>ATOM
      1 N1         1.3214    0.0522    2.7325 N.3       1 RES1    0.0000
      2 O1         1.2096   -0.7030    4.8016 O.2       1 RES1    0.0000
      3 O2         1.5048   -2.0376    0.4419 O.2       1 RES1    0.0000
      4 N2         2.2545   -2.1730    2.5114 N.3       1 RES1    0.0000
      5 N3         0.7352    0.0502    3.9401 N.pl3     1 RES1    0.0000
      6 O3        -0.2305    0.7816    4.1283 O.2       1 RES1    0.0000
      7 C1         2.5054   -0.7758    2.5692 C.3       1 RES1    0.0000
      8 O4         1.4827   -3.9536    1.4785 O.2       1 RES1    0.0000
      9 N4         1.7115   -2.7445    1.4122 N.pl3     1 RES1    0.0000
     10 C2         0.7929    0.9453    1.7234 C.3       1 RES1    0.0000
     11 H1         3.0782   -0.6360    3.2920 H         1 RES1    0.0000
     12 H2         2.9189   -0.4594    1.7706 H         1 RES1    0.0000
     13 H3         2.2530   -2.6673    3.2039 H         1 RES1    0.0000
     14 H4         1.3389    0.8310    0.9734 H         1 RES1    0.0000
     15 H5         0.8426    1.7890    2.0695 H         1 RES1    0.0000
     16 H6        -0.1154    0.6694    1.4601 H         1 RES1    0.0000
@<TRIPOS>BOND
     1    1    5 1
     2    2    5 2
     3    3    9 2
     4    4    7 1
     5    5    6 2
     6    7    1 1
     7    8    9 2
     8    9    4 1
     9   10    1 1
    10   11    7 1
    11   12    7 1
    12   13    4 1
    13   14   10 1
    14   15   10 1
    15   16   10 1
@<TRIPOS>SUBSTRUCTURE
     1 RES1 1

@<TRIPOS>CRYSIN
  11.5419   11.5419   38.3240  90.0000  90.0000  90.0000 142 1

