# MOL2 file generated by ConQuest
# Please check atom types

@<TRIPOS>MOLECULE
LOZZOP
    33    35     1
SMALL
NO_CHARGES
****
Generated from CSD

@<TRIPOS>ATOM
      1 N1        -1.9219    2.3927    7.3050 N.3       1 RES1    0.0000
      2 O1        -1.1455    2.4032    8.5375 O.3       1 RES1    0.0000
      3 C1        -1.5396    1.1770    9.2056 C.3       1 RES1    0.0000
      4 H1        -1.3182    1.2201   10.1801 H         1 RES1    0.0000
      5 C2        -0.7829    0.0397    8.5339 C.3       1 RES1    0.0000
      6 H2         0.1988    0.2259    8.5791 H         1 RES1    0.0000
      7 O2        -1.0657   -1.1549    9.2460 O.3       1 RES1    0.0000
      8 H3        -0.6912   -1.8034    8.8654 H         1 RES1    0.0000
      9 C3        -1.2130   -0.0416    7.0699 C.3       1 RES1    0.0000
     10 H4        -2.0969   -0.4832    7.0094 H         1 RES1    0.0000
     11 H5        -0.5608   -0.5879    6.5637 H         1 RES1    0.0000
     12 C4        -1.2975    1.3555    6.4505 C.3       1 RES1    0.0000
     13 H6        -0.3815    1.6509    6.2185 H         1 RES1    0.0000
     14 H7        -1.8127    1.2934    5.6074 H         1 RES1    0.0000
     15 C5        -3.0557    1.1172    8.9999 C.3       1 RES1    0.0000
     16 H8        -3.5373    1.4134    9.8126 H         1 RES1    0.0000
     17 H9        -3.3473    0.2002    8.7679 H         1 RES1    0.0000
     18 C6        -3.2986    2.0964    7.8176 C.3       1 RES1    0.0000
     19 C7        -4.2073    1.5491    6.7143 C.3       1 RES1    0.0000
     20 H10       -3.8800    0.6578    6.4318 H         1 RES1    0.0000
     21 H11       -4.1696    2.1515    5.9292 H         1 RES1    0.0000
     22 C8        -5.6601    1.4290    7.1937 C.3       1 RES1    0.0000
     23 H12       -6.2236    1.1025    6.4480 H         1 RES1    0.0000
     24 H13       -5.7080    0.7649    7.9262 H         1 RES1    0.0000
     25 C9        -6.2062    2.7627    7.6890 C.3       1 RES1    0.0000
     26 H14       -6.2540    3.4019    6.9343 H         1 RES1    0.0000
     27 H15       -7.1220    2.6346    8.0430 H         1 RES1    0.0000
     28 C10       -5.3127    3.3312    8.7819 C.3       1 RES1    0.0000
     29 H16       -5.3574    2.7464    9.5801 H         1 RES1    0.0000
     30 H17       -5.6409    4.2284    9.0410 H         1 RES1    0.0000
     31 C11       -3.8632    3.4378    8.3107 C.3       1 RES1    0.0000
     32 H18       -3.3048    3.7686    9.0583 H         1 RES1    0.0000
     33 H19       -3.8106    4.1004    7.5770 H         1 RES1    0.0000
@<TRIPOS>BOND
     1    1    2 1
     2    2    3 1
     3    3    4 1
     4    5    3 1
     5    6    5 1
     6    7    5 1
     7    8    7 1
     8    9    5 1
     9   10    9 1
    10   11    9 1
    11   12    1 1
    12   13   12 1
    13   14   12 1
    14   15    3 1
    15   16   15 1
    16   17   15 1
    17   18    1 1
    18   19   18 1
    19   20   19 1
    20   21   19 1
    21   22   19 1
    22   23   22 1
    23   24   22 1
    24   25   22 1
    25   26   25 1
    26   27   25 1
    27   28   25 1
    28   29   28 1
    29   30   28 1
    30   31   18 1
    31   32   31 1
    32   33   31 1
    33    9   12 1
    34   15   18 1
    35   28   31 1
@<TRIPOS>SUBSTRUCTURE
     1 RES1 1

@<TRIPOS>CRYSIN
   8.5701   11.6422   10.9446  90.0000 111.9290  90.0000 231 1

