# MOL2 file generated by ConQuest
# Please check atom types

@<TRIPOS>MOLECULE
LUBDIX
    78    83     1
SMALL
NO_CHARGES
****
Generated from CSD

@<TRIPOS>ATOM
      1 N1         3.2776    3.8846    5.8996 N.2       1 RES1    0.0000
      2 O1         1.9601    4.0348    6.4086 O.3       1 RES1    0.0000
      3 H1         1.2946    3.5640    5.6962 H         1 RES1    0.0000
      4 O2         3.1789    3.2868   14.7422 O.3       1 RES1    0.0000
      5 O3         1.1502    2.3498   14.7352 O.2       1 RES1    0.0000
      6 O4         8.1187    2.6779    4.6620 O.3       1 RES1    0.0000
      7 O5         7.1938    2.0577    2.6096 O.3       1 RES1    0.0000
      8 C1         2.9303    3.9663   11.0198 C.3       1 RES1    0.0000
      9 H2         2.5648    3.1290   10.6933 H         1 RES1    0.0000
     10 H3         2.4866    4.6863   10.5462 H         1 RES1    0.0000
     11 C2         2.6224    4.0950   12.5203 C.3       1 RES1    0.0000
     12 H4         2.8924    4.9732   12.8307 H         1 RES1    0.0000
     13 H5         1.6664    4.0072   12.6634 H         1 RES1    0.0000
     14 C3         3.3486    3.0360   13.3113 C.3       1 RES1    0.0000
     15 H6         2.9863    2.1537   13.0882 H         1 RES1    0.0000
     16 C4         4.8272    3.0544   13.0501 C.3       1 RES1    0.0000
     17 H7         5.2471    2.3181   13.5230 H         1 RES1    0.0000
     18 H8         5.2045    3.8816   13.3892 H         1 RES1    0.0000
     19 C5         5.1272    2.9339   11.5406 C.3       1 RES1    0.0000
     20 H9         4.7514    2.0751   11.2519 H         1 RES1    0.0000
     21 C6         6.6120    2.8583   11.2723 C.3       1 RES1    0.0000
     22 H10        7.0028    2.1537   11.8138 H         1 RES1    0.0000
     23 H11        7.0288    3.6967   11.5228 H         1 RES1    0.0000
     24 C7         6.8844    2.5765    9.7882 C.3       1 RES1    0.0000
     25 H12        7.8387    2.6306    9.6263 H         1 RES1    0.0000
     26 H13        6.5986    1.6727    9.5795 H         1 RES1    0.0000
     27 C8         6.1668    3.5487    8.8667 C.3       1 RES1    0.0000
     28 H14        6.5568    4.4361    9.0142 H         1 RES1    0.0000
     29 C9         4.6725    3.6406    9.2076 C.3       1 RES1    0.0000
     30 H15        4.3141    2.7358    9.0945 H         1 RES1    0.0000
     31 C10        4.4317    4.0113   10.7010 C.3       1 RES1    0.0000
     32 C11        3.9075    4.5290    8.2105 C.3       1 RES1    0.0000
     33 H16        2.9571    4.4637    8.3921 H         1 RES1    0.0000
     34 H17        4.1720    5.4532    8.3419 H         1 RES1    0.0000
     35 C12        4.1609    4.1440    6.7836 C.2       1 RES1    0.0000
     36 C13        5.6166    4.0245    6.3585 C.3       1 RES1    0.0000
     37 C14        6.3468    3.2107    7.4104 C.2       1 RES1    0.0000
     38 C15        7.1030    2.2711    6.8629 C.2       1 RES1    0.0000
     39 H18        7.6682    1.7136    7.3485 H         1 RES1    0.0000
     40 C16        6.9444    2.2099    5.3828 C.3       1 RES1    0.0000
     41 H19        6.6917    1.3082    5.0941 H         1 RES1    0.0000
     42 C17        5.8534    3.2168    5.0453 C.3       1 RES1    0.0000
     43 H20        5.0324    2.7307    4.8199 H         1 RES1    0.0000
     44 C18        6.2236    5.4338    6.3297 C.3       1 RES1    0.0000
     45 H21        7.1441    5.3807    6.0608 H         1 RES1    0.0000
     46 H22        6.1668    5.8249    7.2047 H         1 RES1    0.0000
     47 H23        5.7397    5.9781    5.7029 H         1 RES1    0.0000
     48 C19        4.9677    5.4154   11.0021 C.3       1 RES1    0.0000
     49 H24        4.5083    6.0567   10.4558 H         1 RES1    0.0000
     50 H25        5.9079    5.4471   10.8104 H         1 RES1    0.0000
     51 H26        4.8224    5.6207   11.9276 H         1 RES1    0.0000
     52 C20        6.3673    3.9377    3.7863 C.3       1 RES1    0.0000
     53 H27        6.6546    4.8354    4.0572 H         1 RES1    0.0000
     54 C21        5.3340    4.0981    2.6792 C.3       1 RES1    0.0000
     55 H28        4.5872    4.6025    3.0103 H         1 RES1    0.0000
     56 H29        5.0348    3.2321    2.3915 H         1 RES1    0.0000
     57 H30        5.7295    4.5617    1.9366 H         1 RES1    0.0000
     58 C22        7.6130    3.1535    3.4010 C.3       1 RES1    0.0000
     59 C23        8.6873    3.9469    2.7016 C.3       1 RES1    0.0000
     60 H31        8.2966    4.4136    1.9467 H         1 RES1    0.0000
     61 H32        9.0386    4.6138    3.3114 H         1 RES1    0.0000
     62 C24        9.8146    3.0799    2.2159 C.3       1 RES1    0.0000
     63 H33       10.3222    2.7603    2.9769 H         1 RES1    0.0000
     64 H34       10.4098    3.6110    1.6624 H         1 RES1    0.0000
     65 C25        9.3181    1.8994    1.4185 C.3       1 RES1    0.0000
     66 H35        8.9044    2.2334    0.5954 H         1 RES1    0.0000
     67 C26        8.2587    1.1897    2.2330 C.3       1 RES1    0.0000
     68 H36        7.8995    0.4534    1.7159 H         1 RES1    0.0000
     69 H37        8.6660    0.8210    3.0337 H         1 RES1    0.0000
     70 C27       10.4556    0.9620    1.0412 C.3       1 RES1    0.0000
     71 H38       10.1075    0.2236    0.5352 H         1 RES1    0.0000
     72 H39       10.8764    0.6321    1.8396 H         1 RES1    0.0000
     73 H40       11.0998    1.4368    0.5118 H         1 RES1    0.0000
     74 C28        2.0027    3.3281   16.7531 C.3       1 RES1    0.0000
     75 H41        1.3222    2.8338   17.2157 H         1 RES1    0.0000
     76 H42        1.8140    4.2666   16.8143 H         1 RES1    0.0000
     77 H43        2.8568    3.1473   17.1521 H         1 RES1    0.0000
     78 C29        2.0272    2.9135   15.3128 C.2       1 RES1    0.0000
@<TRIPOS>BOND
     1    1    2 1
     2    2    3 1
     3    4   14 1
     4    5   78 2
     5    6   40 1
     6    7   58 1
     7    8    9 1
     8   10    8 1
     9   11    8 1
    10   12   11 1
    11   13   11 1
    12   14   11 1
    13   15   14 1
    14   16   14 1
    15   17   16 1
    16   18   16 1
    17   19   16 1
    18   20   19 1
    19   21   19 1
    20   22   21 1
    21   23   21 1
    22   24   21 1
    23   25   24 1
    24   26   24 1
    25   27   24 1
    26   28   27 1
    27   29   27 1
    28   30   29 1
    29   31    8 1
    30   32   29 1
    31   33   32 1
    32   34   32 1
    33   35    1 2
    34   36   35 1
    35   37   27 1
    36   38   37 2
    37   39   38 1
    38   40   38 1
    39   41   40 1
    40   42   36 1
    41   43   42 1
    42   44   36 1
    43   45   44 1
    44   46   44 1
    45   47   44 1
    46   48   31 1
    47   49   48 1
    48   50   48 1
    49   51   48 1
    50   52   42 1
    51   53   52 1
    52   54   52 1
    53   55   54 1
    54   56   54 1
    55   57   54 1
    56   58    6 1
    57   59   58 1
    58   60   59 1
    59   61   59 1
    60   62   59 1
    61   63   62 1
    62   64   62 1
    63   65   62 1
    64   66   65 1
    65   67    7 1
    66   68   67 1
    67   69   67 1
    68   70   65 1
    69   71   70 1
    70   72   70 1
    71   73   70 1
    72   74   75 1
    73   76   74 1
    74   77   74 1
    75   78    4 1
    76   19   31 1
    77   29   31 1
    78   32   35 1
    79   36   37 1
    80   40   42 1
    81   52   58 1
    82   65   67 1
    83   74   78 1
@<TRIPOS>SUBSTRUCTURE
     1 RES1 1

@<TRIPOS>CRYSIN
   7.8940   10.2120   33.4480  90.0000  90.0000  90.0000  19 1

