# MOL2 file generated by ConQuest
# Please check atom types

@<TRIPOS>MOLECULE
LUBKAU
    53    57     1
SMALL
NO_CHARGES
****
Generated from CSD

@<TRIPOS>ATOM
      1 O1         1.2169   10.6578   10.5618 O.3       1 RES1    0.0000
      2 O2         3.2717   20.4403   16.1864 O.3       1 RES1    0.0000
      3 N1         3.4864   20.6820   14.7626 N.3       1 RES1    0.0000
      4 C1         1.9191   14.2027   10.7669 C.ar      1 RES1    0.0000
      5 H1         1.7366   14.9730   10.2430 H         1 RES1    0.0000
      6 C2         1.4484   12.9784   10.3430 C.ar      1 RES1    0.0000
      7 H2         0.9467   12.9149    9.5391 H         1 RES1    0.0000
      8 C3         1.7066   11.8417   11.0884 C.ar      1 RES1    0.0000
      9 C4         2.4243   11.9495   12.2751 C.ar      1 RES1    0.0000
     10 H3         2.5897   11.1730   12.7972 H         1 RES1    0.0000
     11 C5         2.9058   13.1935   12.7076 C.ar      1 RES1    0.0000
     12 C6         3.6852   13.2330   14.0147 C.3       1 RES1    0.0000
     13 H4         4.3643   12.5121   14.0010 H         1 RES1    0.0000
     14 H5         3.0625   13.0434   14.7610 H         1 RES1    0.0000
     15 C7         4.3875   14.5628   14.2881 C.3       1 RES1    0.0000
     16 H6         4.6054   14.6259   15.2516 H         1 RES1    0.0000
     17 H7         5.2368   14.5950   13.7799 H         1 RES1    0.0000
     18 C8         3.5150   15.7465   13.8887 C.3       1 RES1    0.0000
     19 H8         2.6425   15.6797   14.3732 H         1 RES1    0.0000
     20 C9         3.2425   15.6976   12.3732 C.3       1 RES1    0.0000
     21 H9         4.1362   15.7662   11.9297 H         1 RES1    0.0000
     22 C10        2.6612   14.3436   11.9516 C.ar      1 RES1    0.0000
     23 C11        2.4271   16.9111   11.8805 C.3       1 RES1    0.0000
     24 H10        2.3903   16.8929   10.8909 H         1 RES1    0.0000
     25 H11        1.5002   16.8336   12.2194 H         1 RES1    0.0000
     26 C12        3.0083   18.2514   12.3301 C.3       1 RES1    0.0000
     27 H12        2.3810   18.9757   12.0823 H         1 RES1    0.0000
     28 H13        3.8609   18.4124   11.8518 H         1 RES1    0.0000
     29 C13        3.2638   18.3017   13.8479 C.3       1 RES1    0.0000
     30 C14        4.1529   17.0927   14.2125 C.3       1 RES1    0.0000
     31 H14        4.9624   17.1609   13.6288 H         1 RES1    0.0000
     32 C15        4.6308   17.4116   15.6329 C.3       1 RES1    0.0000
     33 H15        5.4306   16.8793   15.8699 H         1 RES1    0.0000
     34 H16        3.9174   17.2400   16.2982 H         1 RES1    0.0000
     35 C16        4.9649   18.9143   15.5466 C.3       1 RES1    0.0000
     36 H17        5.9471   19.0412   15.4074 H         1 RES1    0.0000
     37 C17        4.4774   19.7993   16.6808 C.3       1 RES1    0.0000
     38 H18        4.2790   19.2574   17.4849 H         1 RES1    0.0000
     39 H19        5.1608   20.4755   16.9134 H         1 RES1    0.0000
     40 C18        4.1699   19.4616   14.3122 C.3       1 RES1    0.0000
     41 H20        4.8122   19.6923   13.5821 H         1 RES1    0.0000
     42 C19        1.9170   18.3079   14.5924 C.3       1 RES1    0.0000
     43 H21        2.0732   18.1801   15.5522 H         1 RES1    0.0000
     44 H22        1.3537   17.5810   14.2533 H         1 RES1    0.0000
     45 H23        1.4668   19.1660   14.4464 H         1 RES1    0.0000
     46 C20        1.4900    9.4506   11.2732 C.3       1 RES1    0.0000
     47 H24        2.4589    9.3199   11.3348 H         1 RES1    0.0000
     48 H25        1.0876    8.6935   10.7990 H         1 RES1    0.0000
     49 H26        1.1108    9.5101   12.1758 H         1 RES1    0.0000
     50 C21        4.3449   21.8692   14.6567 C.3       1 RES1    0.0000
     51 H27        3.9211   22.6214   15.1208 H         1 RES1    0.0000
     52 H28        4.4728   22.0976   13.7129 H         1 RES1    0.0000
     53 H29        5.2146   21.6813   15.0678 H         1 RES1    0.0000
@<TRIPOS>BOND
     1    1    8 1
     2    2    3 1
     3    3   40 1
     4    4    5 1
     5    6    4 ar
     6    7    6 1
     7    8    6 ar
     8    9    8 ar
     9   10    9 1
    10   11    9 ar
    11   12   11 1
    12   13   12 1
    13   14   12 1
    14   15   12 1
    15   16   15 1
    16   17   15 1
    17   18   15 1
    18   19   18 1
    19   20   18 1
    20   21   20 1
    21   22    4 ar
    22   23   20 1
    23   24   23 1
    24   25   23 1
    25   26   23 1
    26   27   26 1
    27   28   26 1
    28   29   26 1
    29   30   18 1
    30   31   30 1
    31   32   30 1
    32   33   32 1
    33   34   32 1
    34   35   32 1
    35   36   35 1
    36   37    2 1
    37   38   37 1
    38   39   37 1
    39   40   29 1
    40   41   40 1
    41   42   29 1
    42   43   42 1
    43   44   42 1
    44   45   42 1
    45   46    1 1
    46   47   46 1
    47   48   46 1
    48   49   46 1
    49   50    3 1
    50   51   50 1
    51   52   50 1
    52   53   50 1
    53   11   22 ar
    54   20   22 1
    55   29   30 1
    56   35   37 1
    57   35   40 1
@<TRIPOS>SUBSTRUCTURE
     1 RES1 1

@<TRIPOS>CRYSIN
   9.2720   12.3540   15.5740  90.0000  90.0000  90.0000  19 1

