# MOL2 file generated by ConQuest
# Please check atom types

@<TRIPOS>MOLECULE
LUBPAZ
    65    69     1
SMALL
NO_CHARGES
****
Generated from CSD

@<TRIPOS>ATOM
      1 N1         8.7664   15.4370    3.9734 N.3       1 RES1    0.0000
      2 O1         8.8009   16.4933    5.0240 O.3       1 RES1    0.0000
      3 C1         8.9577   17.6815    4.2692 C.3       1 RES1    0.0000
      4 H1         8.6231   18.4015    4.8694 H         1 RES1    0.0000
      5 C2         8.1341   17.4866    3.0066 C.3       1 RES1    0.0000
      6 H2         7.3058   17.9936    3.0403 H         1 RES1    0.0000
      7 H3         8.6070   17.7164    2.2008 H         1 RES1    0.0000
      8 C3         7.7986   15.9876    2.9989 C.3       1 RES1    0.0000
      9 H4         6.8244   15.8619    3.3370 H         1 RES1    0.0000
     10 C4         7.9352   15.2740    1.6726 C.3       1 RES1    0.0000
     11 H5         7.8413   14.2862    1.8128 H         1 RES1    0.0000
     12 C5         6.9561   15.7246    0.6050 C.3       1 RES1    0.0000
     13 H6         6.7088   16.7589    0.7548 H         1 RES1    0.0000
     14 O2         7.6976   15.6420   -0.6009 O.3       1 RES1    0.0000
     15 C6         9.0847   15.5834   -0.3264 C.3       1 RES1    0.0000
     16 C7         9.6097   14.3042   -0.9036 C.3       1 RES1    0.0000
     17 H7         9.2079   13.5597   -0.4499 H         1 RES1    0.0000
     18 H8        10.5621   14.2703   -0.7939 H         1 RES1    0.0000
     19 H9         9.3936   14.2623   -1.8389 H         1 RES1    0.0000
     20 C8         9.7736   16.7911   -0.8198 C.3       1 RES1    0.0000
     21 H10        9.3671   17.5714   -0.4353 H         1 RES1    0.0000
     22 H11        9.7016   16.8322   -1.7769 H         1 RES1    0.0000
     23 H12       10.6995   16.7557   -0.5689 H         1 RES1    0.0000
     24 O3         9.2192   15.5606    1.1023 O.3       1 RES1    0.0000
     25 C9         5.6947   14.9131    0.4085 C.3       1 RES1    0.0000
     26 H13        5.2891   15.1784   -0.3684 H         1 RES1    0.0000
     27 C10        5.8464   13.3918    0.3855 C.3       1 RES1    0.0000
     28 H14        5.1820   12.9336   -0.3048 H         1 RES1    0.0000
     29 H15        6.8405   13.0945    0.3635 H         1 RES1    0.0000
     30 O4         5.3746   12.9911    1.6820 O.3       1 RES1    0.0000
     31 C11        4.3556   13.9271    2.0066 C.3       1 RES1    0.0000
     32 C12        3.0347   13.5320    1.3523 C.3       1 RES1    0.0000
     33 H16        3.1568   13.4609    0.4027 H         1 RES1    0.0000
     34 H17        2.3721   14.2002    1.5405 H         1 RES1    0.0000
     35 H18        2.7455   12.6867    1.7019 H         1 RES1    0.0000
     36 C13        4.2465   13.9990    3.5105 C.3       1 RES1    0.0000
     37 H19        3.9225   13.1614    3.8489 H         1 RES1    0.0000
     38 H20        3.6363   14.6989    3.7544 H         1 RES1    0.0000
     39 H21        5.1109   14.1827    3.8864 H         1 RES1    0.0000
     40 O5         4.8255   15.1641    1.5159 O.3       1 RES1    0.0000
     41 N2        10.3701   17.9887    4.0302 N.am      1 RES1    0.0000
     42 C14       10.9971   18.8703    4.8934 C.2       1 RES1    0.0000
     43 O6        10.4314   19.4260    5.8208 O.2       1 RES1    0.0000
     44 N3        12.3293   19.0663    4.6311 N.am      1 RES1    0.0000
     45 H22       12.7769   19.5932    5.1482 H         1 RES1    0.0000
     46 C15       13.1294   18.4676    3.6520 C.2       1 RES1    0.0000
     47 O7        14.3033   18.7507    3.5525 O.2       1 RES1    0.0000
     48 C16       12.3817   17.5419    2.8434 C.2       1 RES1    0.0000
     49 H23       12.9058   17.1062    2.1828 H         1 RES1    0.0000
     50 C17       11.0966   17.3452    3.0550 C.2       1 RES1    0.0000
     51 H24       10.5327   16.6999    2.5708 H         1 RES1    0.0000
     52 C18        8.2052   14.2722    4.6798 C.3       1 RES1    0.0000
     53 H25        8.0185   13.5677    3.9598 H         1 RES1    0.0000
     54 H26        7.2944   14.6112    5.1139 H         1 RES1    0.0000
     55 C19        9.1813   13.6918    5.6795 C.ar      1 RES1    0.0000
     56 C20        8.7842   13.4794    6.9580 C.ar      1 RES1    0.0000
     57 H27        7.8877   13.6840    7.1631 H         1 RES1    0.0000
     58 C21        9.6590   12.9382    7.8959 C.ar      1 RES1    0.0000
     59 H28        9.3159   12.9256    8.7917 H         1 RES1    0.0000
     60 C22       10.9298   12.6446    7.5521 C.ar      1 RES1    0.0000
     61 H29       11.5904   12.2836    8.2635 H         1 RES1    0.0000
     62 C23       11.3354   12.8227    6.2459 C.ar      1 RES1    0.0000
     63 H30       12.2452   12.5895    5.9633 H         1 RES1    0.0000
     64 C24       10.4730   13.3532    5.3249 C.ar      1 RES1    0.0000
     65 H31       10.6285   13.4721    4.3966 H         1 RES1    0.0000
@<TRIPOS>BOND
     1    1    2 1
     2    2    3 1
     3    3    4 1
     4    5    3 1
     5    6    5 1
     6    7    5 1
     7    8    1 1
     8    9    8 1
     9   10    8 1
    10   11   10 1
    11   12   10 1
    12   13   12 1
    13   14   12 1
    14   15   14 1
    15   16   15 1
    16   17   16 1
    17   18   16 1
    18   19   16 1
    19   20   15 1
    20   21   20 1
    21   22   20 1
    22   23   20 1
    23   24   10 1
    24   25   12 1
    25   26   25 1
    26   27   25 1
    27   28   27 1
    28   29   27 1
    29   30   27 1
    30   31   30 1
    31   32   31 1
    32   33   32 1
    33   34   32 1
    34   35   32 1
    35   36   31 1
    36   37   36 1
    37   38   36 1
    38   39   36 1
    39   40   25 1
    40   41    3 1
    41   42   41 1
    42   43   42 2
    43   44   42 1
    44   45   44 1
    45   46   44 1
    46   47   46 2
    47   48   46 1
    48   49   48 1
    49   50   41 1
    50   51   50 1
    51   52    1 1
    52   53   52 1
    53   54   52 1
    54   55   52 1
    55   56   55 ar
    56   57   56 1
    57   58   56 ar
    58   59   58 1
    59   60   58 ar
    60   61   60 1
    61   62   60 ar
    62   63   62 1
    63   64   55 ar
    64   65   64 1
    65    5    8 1
    66   15   24 1
    67   31   40 1
    68   48   50 2
    69   62   64 ar
@<TRIPOS>SUBSTRUCTURE
     1 RES1 1

@<TRIPOS>CRYSIN
   9.4770   15.9320   16.3020  90.0000  90.0000  90.0000  19 1

