# MOL2 file generated by ConQuest
# Please check atom types

@<TRIPOS>MOLECULE
LUCTEK
   104   112     2
SMALL
USER_CHARGES
****
Generated from CSD

@<TRIPOS>ATOM
      1 C1         8.0700   21.8653   31.4306 C.3       1 RES1    0.0000
      2 H1         7.8755   20.9097   31.3286 H         1 RES1    0.0000
      3 C2         8.6077   21.6978   34.2968 C.3       1 RES1    0.0000
      4 H2         8.8127   22.6292   34.5187 H         1 RES1    0.0000
      5 C3         9.5561   21.9612   31.9117 C.3       1 RES1    0.0000
      6 O1         9.1505   23.1891   26.9224 O.2       1 RES1   -1.0000
      7 C4         7.9714   22.4583   30.0720 C.2       1 RES1    0.0000
      8 N1         8.6498   22.9731   28.0461 N.pl3     1 RES1    1.0000
      9 C5         8.7387   20.8645   35.5630 C.3       1 RES1    0.0000
     10 H3         8.5850   19.9353   35.2906 H         1 RES1    0.0000
     11 C6         7.1762   21.6372   33.7458 C.3       1 RES1    0.0000
     12 H4         6.9254   20.7113   33.6015 H         1 RES1    0.0000
     13 H5         6.5651   22.0163   34.3969 H         1 RES1    0.0000
     14 C7        11.0679   21.1886   33.8514 C.3       1 RES1    0.0000
     15 H6        11.6730   20.8006   33.1995 H         1 RES1    0.0000
     16 H7        11.3558   22.0990   34.0206 H         1 RES1    0.0000
     17 N2         6.9228   23.0381   29.5486 N.2       1 RES1    0.0000
     18 C8         7.0561   22.4021   32.4362 C.3       1 RES1    0.0000
     19 H8         7.2178   23.3457   32.5922 H         1 RES1    0.0000
     20 H9         6.1586   22.3029   32.0812 H         1 RES1    0.0000
     21 O2         7.2887   23.3931   28.2552 O.3       1 RES1    0.0000
     22 O3        10.9226   19.9110   38.3638 O.3       1 RES1    0.0000
     23 H10       11.4164   19.2717   38.2242 H         1 RES1    0.0000
     24 C9        10.4235   21.2525   30.8590 C.3       1 RES1    0.0000
     25 H11       10.1189   20.3343   30.7791 H         1 RES1    0.0000
     26 H12       11.3377   21.2293   31.1811 H         1 RES1    0.0000
     27 C10       10.1491   20.8920   36.1934 C.3       1 RES1    0.0000
     28 C11        9.0515   22.4154   29.1600 C.2       1 RES1    0.0000
     29 C12       11.1500   20.3850   35.1570 C.3       1 RES1    0.0000
     30 H13       10.9722   19.4503   34.9699 H         1 RES1    0.0000
     31 H14       12.0474   20.4522   35.5194 H         1 RES1    0.0000
     32 C13        9.9943   23.4305   32.0633 C.3       1 RES1    0.0000
     33 H15        9.5183   23.8340   32.7932 H         1 RES1    0.0000
     34 H16        9.8005   23.9078   31.2537 H         1 RES1    0.0000
     35 H17       10.9379   23.4669   32.2373 H         1 RES1    0.0000
     36 C14        7.8129   21.1081   36.7666 C.3       1 RES1    0.0000
     37 H18        6.9421   20.7047   36.6249 H         1 RES1    0.0000
     38 H19        7.6989   22.0571   36.9328 H         1 RES1    0.0000
     39 C15       10.4165   21.8929   29.4519 C.3       1 RES1    0.0000
     40 H20       11.0615   22.6171   29.4171 H         1 RES1    0.0000
     41 H21       10.6654   21.2315   28.7884 H         1 RES1    0.0000
     42 C16       10.5505   22.2941   36.6890 C.3       1 RES1    0.0000
     43 H22        9.9480   22.5730   37.3818 H         1 RES1    0.0000
     44 H23       10.5074   22.9169   35.9599 H         1 RES1    0.0000
     45 H24       11.4458   22.2677   37.0354 H         1 RES1    0.0000
     46 C17        8.5590   20.4236   37.9379 C.3       1 RES1    0.0000
     47 H25        8.7038   21.0519   38.6625 H         1 RES1    0.0000
     48 H26        8.0487   19.6708   38.2734 H         1 RES1    0.0000
     49 C18        9.8974   19.9529   37.3591 C.3       1 RES1    0.0000
     50 H27        9.7768   19.0469   37.0033 H         1 RES1    0.0000
     51 C19        9.6421   21.2084   33.2673 C.3       1 RES1    0.0000
     52 H28        9.4142   20.2748   33.0755 H         1 RES1    0.0000
     53 C20        7.5943   26.5400   40.7622 C.3       2 RES2    0.0000
     54 H29        7.2652   27.4493   40.6061 H         2 RES2    0.0000
     55 C21        9.1076   26.6789   41.0823 C.3       2 RES2    0.0000
     56 H30        9.4822   25.7783   41.1770 H         2 RES2    0.0000
     57 C22        7.3607   25.7706   39.4475 C.3       2 RES2    0.0000
     58 N3         6.5633   24.9075   35.5267 N.pl3     2 RES2    1.0000
     59 C23        8.1303   26.5389   38.3194 C.3       2 RES2    0.0000
     60 H31        7.7572   27.4449   38.2884 H         2 RES2    0.0000
     61 C24        5.8457   25.7893   39.0812 C.3       2 RES2    0.0000
     62 H32        5.3451   25.3826   39.8065 H         2 RES2    0.0000
     63 H33        5.5552   26.7108   39.0046 H         2 RES2    0.0000
     64 O4         7.8538   25.2338   34.9620 O.3       2 RES2    0.0000
     65 C25        6.5729   25.3010   36.7698 C.2       2 RES2    0.0000
     66 N4         8.5803   25.8566   35.9547 N.2       2 RES2    0.0000
     67 C26        6.7968   25.9944   41.9718 C.3       2 RES2    0.0000
     68 H34        5.8498   26.0385   41.7672 H         2 RES2    0.0000
     69 H35        7.0269   25.0619   42.1029 H         2 RES2    0.0000
     70 C27        7.8145   25.9007   37.0131 C.2       2 RES2    0.0000
     71 C28        9.2747   27.3942   42.4001 C.3       2 RES2    0.0000
     72 H36        8.8885   28.2859   42.2761 H         2 RES2    0.0000
     73 C29        7.8505   24.3178   39.5309 C.3       2 RES2    0.0000
     74 H37        7.4178   23.8758   40.2662 H         2 RES2    0.0000
     75 H38        8.8005   24.3068   39.6653 H         2 RES2    0.0000
     76 H39        7.6381   23.8604   38.7139 H         2 RES2    0.0000
     77 C30        8.5491   26.7792   43.5972 C.3       2 RES2    0.0000
     78 O5         5.7368   24.3741   34.7860 O.2       2 RES2   -1.0000
     79 C31        9.6069   26.6844   38.5920 C.3       2 RES2    0.0000
     80 H40       10.0184   27.2024   37.8821 H         2 RES2    0.0000
     81 H41       10.0228   25.8081   38.6048 H         2 RES2    0.0000
     82 C32        7.0530   26.7516   43.2737 C.3       2 RES2    0.0000
     83 H42        6.5726   26.3206   43.9973 H         2 RES2    0.0000
     84 H43        6.7223   27.6599   43.1912 H         2 RES2    0.0000
     85 C33        5.5082   25.0530   37.7731 C.3       2 RES2    0.0000
     86 H44        5.4338   24.1007   37.9441 H         2 RES2    0.0000
     87 H45        4.6561   25.3661   37.4309 H         2 RES2    0.0000
     88 C34        9.8350   27.3777   39.9283 C.3       2 RES2    0.0000
     89 H46        9.5257   28.2948   39.8663 H         2 RES2    0.0000
     90 H47       10.7859   27.3975   40.1165 H         2 RES2    0.0000
     91 O6         8.6727   27.3953   46.0301 O.3       2 RES2    0.0000
     92 H48        9.1696   26.7880   46.2702 H         2 RES2    0.0000
     93 C35        8.9809   27.7558   44.6922 C.3       2 RES2    0.0000
     94 H49        8.5243   28.6034   44.5126 H         2 RES2    0.0000
     95 C36       10.7145   27.6180   42.9389 C.3       2 RES2    0.0000
     96 H50       11.2488   26.8122   42.8598 H         2 RES2    0.0000
     97 H51       11.1577   28.3411   42.4664 H         2 RES2    0.0000
     98 C37        9.0396   25.3716   43.9396 C.3       2 RES2    0.0000
     99 H52        9.9792   25.3991   44.1341 H         2 RES2    0.0000
    100 H53        8.8846   24.7885   43.1933 H         2 RES2    0.0000
    101 H54        8.5639   25.0442   44.7050 H         2 RES2    0.0000
    102 C38       10.4638   27.9850   44.4142 C.3       2 RES2    0.0000
    103 H55       11.0038   27.4262   44.9958 H         2 RES2    0.0000
    104 H56       10.6964   28.9120   44.5746 H         2 RES2    0.0000
@<TRIPOS>BOND
     1    1    2 1
     2    3    4 1
     3    5    1 1
     4    6    8 1
     5    7    1 1
     6    8   21 1
     7    9    3 1
     8   10    9 1
     9   11    3 1
    10   12   11 1
    11   13   11 1
    12   14   15 1
    13   16   14 1
    14   17    7 2
    15   18    1 1
    16   19   18 1
    17   20   18 1
    18   21   17 1
    19   22   23 1
    20   24    5 1
    21   25   24 1
    22   26   24 1
    23   27    9 1
    24   28    7 1
    25   29   14 1
    26   30   29 1
    27   31   29 1
    28   32    5 1
    29   33   32 1
    30   34   32 1
    31   35   32 1
    32   36    9 1
    33   37   36 1
    34   38   36 1
    35   39   24 1
    36   40   39 1
    37   41   39 1
    38   42   27 1
    39   43   42 1
    40   44   42 1
    41   45   42 1
    42   46   36 1
    43   47   46 1
    44   48   46 1
    45   49   22 1
    46   50   49 1
    47   51    3 1
    48   52   51 1
    49   53   54 1
    50   55   53 1
    51   56   55 1
    52   57   53 1
    53   58   64 1
    54   59   57 1
    55   60   59 1
    56   61   57 1
    57   62   61 1
    58   63   61 1
    59   64   66 1
    60   65   58 2
    61   66   70 2
    62   67   53 1
    63   68   67 1
    64   69   67 1
    65   70   59 1
    66   71   55 1
    67   72   71 1
    68   73   57 1
    69   74   73 1
    70   75   73 1
    71   76   73 1
    72   77   71 1
    73   78   58 1
    74   79   59 1
    75   80   79 1
    76   81   79 1
    77   82   67 1
    78   83   82 1
    79   84   82 1
    80   85   61 1
    81   86   85 1
    82   87   85 1
    83   88   55 1
    84   89   88 1
    85   90   88 1
    86   91   92 1
    87   93   77 1
    88   94   93 1
    89   95   71 1
    90   96   95 1
    91   97   95 1
    92   98   77 1
    93   99   98 1
    94  100   98 1
    95  101   98 1
    96  102   93 1
    97  103  102 1
    98  104  102 1
    99    5   51 1
   100    8   28 2
   101   11   18 1
   102   14   51 1
   103   27   29 1
   104   27   49 1
   105   28   39 1
   106   46   49 1
   107   65   70 1
   108   65   85 1
   109   77   82 1
   110   79   88 1
   111   91   93 1
   112   95  102 1
@<TRIPOS>SUBSTRUCTURE
     1 RES1 1
     2 RES2 53

@<TRIPOS>CRYSIN
   7.4693   11.0225   21.3832  90.0000  90.6600  90.0000   4 1

