# MOL2 file generated by ConQuest
# Please check atom types

@<TRIPOS>MOLECULE
LUCVUC
    73    78     1
SMALL
NO_CHARGES
****
Generated from CSD

@<TRIPOS>ATOM
      1 O1         3.7672    5.0433    0.3113 O.3       1 RES1    0.0000
      2 O2         2.5154    4.8965    2.2703 O.3       1 RES1    0.0000
      3 N1        -3.3861   14.1154    5.7451 N.pl3     1 RES1    0.0000
      4 N2        -3.9616   11.3076    6.0416 N.3       1 RES1    0.0000
      5 H1        -4.4590   11.9638    6.3728 H         1 RES1    0.0000
      6 C1        -2.9052   11.7517    5.4081 C.2       1 RES1    0.0000
      7 C2         0.0340    8.7008    4.1710 C.3       1 RES1    0.0000
      8 H2         0.3153    8.4133    5.0649 H         1 RES1    0.0000
      9 C3         3.8191    5.0759    1.7316 C.3       1 RES1    0.0000
     10 C4         0.8477    7.9385    3.1334 C.3       1 RES1    0.0000
     11 H3         0.6059    8.3271    2.2662 H         1 RES1    0.0000
     12 C5         0.3613   10.2014    4.0044 C.3       1 RES1    0.0000
     13 H4         0.1324   10.4324    3.0799 H         1 RES1    0.0000
     14 C6        -1.9849   10.7714    4.7149 C.3       1 RES1    0.0000
     15 H5        -2.1504   10.9101    3.7598 H         1 RES1    0.0000
     16 C7        -2.5669   13.1056    5.2716 C.2       1 RES1    0.0000
     17 C8        -1.3110   13.4664    4.6510 C.2       1 RES1    0.0000
     18 H6        -1.1805   14.3446    4.3741 H         1 RES1    0.0000
     19 C9         2.8418    7.2477    2.0653 C.3       1 RES1    0.0000
     20 H7         2.8004    7.7849    1.2478 H         1 RES1    0.0000
     21 C10        2.6837    9.6018    3.1438 C.3       1 RES1    0.0000
     22 H8         2.4823    9.9001    2.2417 H         1 RES1    0.0000
     23 H9         3.6297    9.7435    3.3011 H         1 RES1    0.0000
     24 C11        2.3711    8.1110    3.2617 C.3       1 RES1    0.0000
     25 C12       -0.4919   11.1322    4.9082 C.3       1 RES1    0.0000
     26 C13        4.2999    2.6772    0.1737 C.3       1 RES1    0.0000
     27 H10        5.1844    2.8983   -0.1857 H         1 RES1    0.0000
     28 C14        1.8011    6.1038    1.9744 C.3       1 RES1    0.0000
     29 H11        1.4333    6.0592    1.0676 H         1 RES1    0.0000
     30 C15       -0.3429   12.5833    4.4670 C.2       1 RES1    0.0000
     31 H12        0.4468   12.8539    4.0574 H         1 RES1    0.0000
     32 C16        4.1951    6.5161    2.1202 C.3       1 RES1    0.0000
     33 H13        4.5040    6.5122    3.0499 H         1 RES1    0.0000
     34 C17        1.8746   10.4363    4.1450 C.3       1 RES1    0.0000
     35 H14        2.0649   11.3770    4.0028 H         1 RES1    0.0000
     36 H15        2.1495   10.2084    5.0458 H         1 RES1    0.0000
     37 C18        4.7183    3.9916    2.2687 C.3       1 RES1    0.0000
     38 H16        4.6254    3.9509    3.2328 H         1 RES1    0.0000
     39 H17        5.6404    4.2156    2.0669 H         1 RES1    0.0000
     40 C19        3.3465    3.7814   -0.2091 C.3       1 RES1    0.0000
     41 H18        3.2905    3.8359   -1.1768 H         1 RES1    0.0000
     42 H19        2.4621    3.5733    0.1311 H         1 RES1    0.0000
     43 C20       -1.4581    8.4391    4.0197 C.3       1 RES1    0.0000
     44 H20       -1.6383    7.5054    4.2103 H         1 RES1    0.0000
     45 H21       -1.7192    8.6106    3.1017 H         1 RES1    0.0000
     46 C21       -2.2984    9.3123    4.9502 C.3       1 RES1    0.0000
     47 H22       -3.2408    9.1508    4.7864 H         1 RES1    0.0000
     48 H23       -2.1081    9.0824    5.8731 H         1 RES1    0.0000
     49 C22        2.9025    7.5668    4.5906 C.3       1 RES1    0.0000
     50 H24        2.4115    7.9603    5.3161 H         1 RES1    0.0000
     51 H25        3.8329    7.7869    4.6772 H         1 RES1    0.0000
     52 H26        2.7958    6.6133    4.6117 H         1 RES1    0.0000
     53 C23        5.2846    7.1436    1.2579 C.3       1 RES1    0.0000
     54 H27        6.0973    6.6410    1.3543 H         1 RES1    0.0000
     55 H28        5.4345    8.0495    1.5400 H         1 RES1    0.0000
     56 H29        5.0097    7.1356    0.3386 H         1 RES1    0.0000
     57 C24       -0.0873   11.0162    6.3848 C.3       1 RES1    0.0000
     58 H30       -0.1260   10.0964    6.6567 H         1 RES1    0.0000
     59 H31       -0.6905   11.5346    6.9243 H         1 RES1    0.0000
     60 H32        0.8063   11.3473    6.4984 H         1 RES1    0.0000
     61 C25        0.6831    6.4101    2.9726 C.3       1 RES1    0.0000
     62 H33        0.8182    5.9462    3.8144 H         1 RES1    0.0000
     63 H34       -0.1885    6.1801    2.6157 H         1 RES1    0.0000
     64 C26        4.3974    2.6326    1.6806 C.3       1 RES1    0.0000
     65 H35        5.0897    2.0022    1.9359 H         1 RES1    0.0000
     66 H36        3.5562    2.3164    2.0451 H         1 RES1    0.0000
     67 C27        3.8623    1.3351   -0.4240 C.3       1 RES1    0.0000
     68 H37        2.9788    1.1201   -0.1174 H         1 RES1    0.0000
     69 H38        4.4728    0.6473   -0.1474 H         1 RES1    0.0000
     70 H39        3.8614    1.3966   -1.3816 H         1 RES1    0.0000
     71 O3        -3.0404   15.3018    5.6323 O.2       1 RES1    0.0000
     72 O4        -4.4912   13.8292    6.3056 O.2       1 RES1    0.0000
     73 H40       -4.1280   10.4572    6.2472 H         1 RES1    0.0000
@<TRIPOS>BOND
     1    1    9 1
     2    2    9 1
     3    3   16 1
     4    4    5 1
     5    6    4 1
     6    7    8 1
     7    9   32 1
     8   10    7 1
     9   11   10 1
    10   12    7 1
    11   13   12 1
    12   14    6 1
    13   15   14 1
    14   16    6 2
    15   17   16 1
    16   18   17 1
    17   19   20 1
    18   21   22 1
    19   23   21 1
    20   24   10 1
    21   25   12 1
    22   26   27 1
    23   28    2 1
    24   29   28 1
    25   30   17 2
    26   31   30 1
    27   32   19 1
    28   33   32 1
    29   34   12 1
    30   35   34 1
    31   36   34 1
    32   37    9 1
    33   38   37 1
    34   39   37 1
    35   40    1 1
    36   41   40 1
    37   42   40 1
    38   43    7 1
    39   44   43 1
    40   45   43 1
    41   46   14 1
    42   47   46 1
    43   48   46 1
    44   49   24 1
    45   50   49 1
    46   51   49 1
    47   52   49 1
    48   53   32 1
    49   54   53 1
    50   55   53 1
    51   56   53 1
    52   57   25 1
    53   58   57 1
    54   59   57 1
    55   60   57 1
    56   61   10 1
    57   62   61 1
    58   63   61 1
    59   64   26 1
    60   65   64 1
    61   66   64 1
    62   67   26 1
    63   68   67 1
    64   69   67 1
    65   70   67 1
    66   71    3 2
    67   72    3 2
    68   73    4 1
    69   14   25 1
    70   19   24 1
    71   19   28 1
    72   21   24 1
    73   21   34 1
    74   25   30 1
    75   26   40 1
    76   28   61 1
    77   37   64 1
    78   43   46 1
@<TRIPOS>SUBSTRUCTURE
     1 RES1 1

@<TRIPOS>CRYSIN
   9.1938    9.9120   27.3041  90.0000  90.0000  90.0000  19 1

