# MOL2 file generated by ConQuest
# Please check atom types

@<TRIPOS>MOLECULE
LUCVIP
    50    54     2
SMALL
NO_CHARGES
****
Generated from CSD

@<TRIPOS>ATOM
      1 O1         1.2797    2.5100    6.3597 O.3       1 RES1    0.0000
      2 O2         6.0920    0.0887   10.6384 O.3       2 RES2    0.0000
      3 O3         2.5239   -0.2121    5.6093 O.3       1 RES1    0.0000
      4 O4         5.5419   -2.5787    9.4182 O.3       2 RES2    0.0000
      5 C1         6.0862    0.2551    7.1389 C.ar      2 RES2    0.0000
      6 O5         3.9557    0.0384    9.8697 O.3       2 RES2    0.0000
      7 C2         6.5546   -0.4573    6.0443 C.ar      2 RES2    0.0000
      8 C3         5.7502   -0.4222    8.3036 C.ar      2 RES2    0.0000
      9 C4         5.8672   -1.8175    8.3212 C.ar      2 RES2    0.0000
     10 C5         5.2752    0.3650    9.4993 C.3       2 RES2    0.0000
     11 O6        -0.1568    1.1801    5.2129 O.3       1 RES1    0.0000
     12 C6         3.8541    0.6677    2.3686 C.ar      1 RES1    0.0000
     13 N1         6.8475    0.2756    4.8120 N.pl3     2 RES2    0.0000
     14 C7         2.7102    0.5317    4.4749 C.ar      1 RES1    0.0000
     15 O7         6.6814    1.4792    4.7865 O.2       2 RES2    0.0000
     16 C8         6.7268   -1.8277    6.0790 C.ar      2 RES2    0.0000
     17 C9         6.3837   -2.4999    7.2401 C.ar      2 RES2    0.0000
     18 C10        3.1173    1.7951    2.0804 C.ar      1 RES1    0.0000
     19 C11        1.9543    1.6742    4.1701 C.ar      1 RES1    0.0000
     20 C12        4.0980   -1.0708   10.7728 C.3       2 RES2    0.0000
     21 C13        2.1842    2.3042    2.9579 C.ar      1 RES1    0.0000
     22 C14        0.8551    2.1835    5.0596 C.3       1 RES1    0.0000
     23 C15        3.6460    0.0345    3.5825 C.ar      1 RES1    0.0000
     24 O8         7.2444   -0.3634    3.8440 O.2       2 RES2    0.0000
     25 C16        5.3142   -0.6709   11.5704 C.3       2 RES2    0.0000
     26 C17        2.4518    0.4569    6.8861 C.3       1 RES1    0.0000
     27 N2         3.3256    2.4681    0.8016 N.pl3     1 RES1    0.0000
     28 C18        4.2504   -2.3688   10.0285 C.3       2 RES2    0.0000
     29 C19        1.2015    1.2738    7.0909 C.3       1 RES1    0.0000
     30 O9         2.7237    3.5159    0.5884 O.2       1 RES1    0.0000
     31 C20       -0.0559    0.6504    6.5405 C.3       1 RES1    0.0000
     32 O10        4.1037    1.9609   -0.0013 O.2       1 RES1    0.0000
     33 H1         6.0610    1.2843    7.0520 H         2 RES2    0.0000
     34 H2         5.2588    1.3744    9.1852 H         2 RES2    0.0000
     35 H3         4.4383    0.2880    1.7097 H         1 RES1    0.0000
     36 H4         7.0890   -2.2728    5.3413 H         2 RES2    0.0000
     37 H5         6.4384   -3.4544    7.2484 H         2 RES2    0.0000
     38 H6         3.3244   -1.1412   11.2989 H         2 RES2    0.0000
     39 H7         1.6429    3.1236    2.7902 H         1 RES1    0.0000
     40 H8         0.3658    2.9683    4.6843 H         1 RES1    0.0000
     41 H9         4.1269   -0.7594    3.7206 H         1 RES1    0.0000
     42 H10        5.8102   -1.4516   11.8661 H         2 RES2    0.0000
     43 H11        5.1216   -0.1241   12.3887 H         2 RES2    0.0000
     44 H12        2.4184   -0.2862    7.5542 H         1 RES1    0.0000
     45 H13        3.3662    1.1100    6.9834 H         1 RES1    0.0000
     46 H14        3.5022   -2.4090    9.2584 H         2 RES2    0.0000
     47 H15        4.0925   -3.1219   10.6104 H         2 RES2    0.0000
     48 H16        1.1314    1.5496    8.0602 H         1 RES1    0.0000
     49 H17       -0.0168   -0.4298    6.5182 H         1 RES1    0.0000
     50 H18       -0.8572    0.9339    7.0353 H         1 RES1    0.0000
@<TRIPOS>BOND
     1    1   22 1
     2    2   10 1
     3    3   14 1
     4    4    9 1
     5    5    7 ar
     6    6   10 1
     7    7   13 1
     8    8    5 ar
     9    9    8 ar
    10   10    8 1
    11   11   22 1
    12   12   18 ar
    13   13   15 2
    14   14   19 ar
    15   16    7 ar
    16   17    9 ar
    17   18   21 ar
    18   19   21 ar
    19   20    6 1
    20   21   39 1
    21   22   19 1
    22   23   12 ar
    23   24   13 2
    24   25    2 1
    25   26    3 1
    26   27   18 1
    27   28    4 1
    28   29    1 1
    29   30   27 2
    30   31   11 1
    31   32   27 2
    32   33    5 1
    33   34   10 1
    34   35   12 1
    35   36   16 1
    36   37   17 1
    37   38   20 1
    38   40   22 1
    39   41   23 1
    40   42   25 1
    41   43   25 1
    42   44   26 1
    43   45   26 1
    44   46   28 1
    45   47   28 1
    46   48   29 1
    47   49   31 1
    48   50   31 1
    49   14   23 ar
    50   16   17 ar
    51   20   25 1
    52   20   28 1
    53   26   29 1
    54   29   31 1
@<TRIPOS>SUBSTRUCTURE
     1 RES1 1
     2 RES2 2

@<TRIPOS>CRYSIN
  10.1123   10.3255   10.3999 108.3660 107.9070  93.4030   2 1

