# MOL2 file generated by ConQuest
# Please check atom types

@<TRIPOS>MOLECULE
LUCWEN
    66    69     1
SMALL
NO_CHARGES
****
Generated from CSD

@<TRIPOS>ATOM
      1 O1         2.3544    3.9538    8.0794 O.3       1 RES1    0.0000
      2 C1         3.3525    4.7179    7.5820 C.2       1 RES1    0.0000
      3 O2         3.6447    4.8317    6.4105 O.2       1 RES1    0.0000
      4 N1         3.9638    5.3817    8.5918 N.am      1 RES1    0.0000
      5 C2         3.7698    5.0782    9.9950 C.3       1 RES1    0.0000
      6 O3         4.2827    3.8065   10.3814 O.3       1 RES1    0.0000
      7 N2         5.7438    4.0139   10.5356 N.3       1 RES1    0.0000
      8 C3         5.7472    5.2902   11.2869 C.3       1 RES1    0.0000
      9 C4         4.6166    6.1302   10.7290 C.3       1 RES1    0.0000
     10 C5         5.0509    7.1220    9.6365 C.3       1 RES1    0.0000
     11 C6         5.0811    6.2853    8.3589 C.3       1 RES1    0.0000
     12 H1         4.9288    6.8397    7.5728 H         1 RES1    0.0000
     13 H2         5.9201    5.7955    8.2729 H         1 RES1    0.0000
     14 H3         4.4105    7.8404    9.5335 H         1 RES1    0.0000
     15 H4         5.9215    7.5203    9.8399 H         1 RES1    0.0000
     16 H5         4.1072    6.5776   11.4342 H         1 RES1    0.0000
     17 C7         5.6049    4.8696   12.7483 C.2       1 RES1    0.0000
     18 O4         5.3886    5.6353   13.6923 O.2       1 RES1    0.0000
     19 N3         5.8340    3.5487   12.8079 N.am      1 RES1    0.0000
     20 C8         6.1828    2.9641   11.5007 C.3       1 RES1    0.0000
     21 C9         7.7064    2.7288   11.3756 C.3       1 RES1    0.0000
     22 C10        8.6008    3.9604   11.6676 C.3       1 RES1    0.0000
     23 C11        9.8730    3.5242   12.3742 C.3       1 RES1    0.0000
     24 H6        10.4182    4.3051   12.5658 H         1 RES1    0.0000
     25 H7        10.3644    2.9195   11.8123 H         1 RES1    0.0000
     26 H8         9.6612    3.0869   13.1981 H         1 RES1    0.0000
     27 C12        8.9654    4.7815   10.4291 C.3       1 RES1    0.0000
     28 H9         9.3764    5.6115   10.6938 H         1 RES1    0.0000
     29 H10        9.5869    4.2906    9.8738 H         1 RES1    0.0000
     30 H11        8.1810    5.0024    9.9051 H         1 RES1    0.0000
     31 H12        8.1112    4.5472   12.2803 H         1 RES1    0.0000
     32 C13        8.0458    2.0650   10.0432 C.3       1 RES1    0.0000
     33 C14        7.2803    0.7653    9.8177 C.3       1 RES1    0.0000
     34 C15        5.7810    1.0029    9.9272 C.3       1 RES1    0.0000
     35 C16        5.4629    1.6310   11.2817 C.3       1 RES1    0.0000
     36 H13        4.5087    1.7727   11.3625 H         1 RES1    0.0000
     37 H14        5.7525    1.0197   11.9700 H         1 RES1    0.0000
     38 C17        4.9977   -0.2934    9.7317 C.3       1 RES1    0.0000
     39 H15        4.0559   -0.1026    9.7551 H         1 RES1    0.0000
     40 H16        5.2182   -0.6694    8.8765 H         1 RES1    0.0000
     41 H17        5.2282   -0.9237   10.4317 H         1 RES1    0.0000
     42 H18        5.5003    1.6388    9.2220 H         1 RES1    0.0000
     43 H19        7.4956    0.4128    8.9351 H         1 RES1    0.0000
     44 H20        7.5475    0.1071   10.4969 H         1 RES1    0.0000
     45 H21        8.9982    1.8642   10.0406 H         1 RES1    0.0000
     46 H22        7.8497    2.6953    9.3302 H         1 RES1    0.0000
     47 H23        7.9195    2.0639   12.0482 H         1 RES1    0.0000
     48 C18        5.9324    2.8481   14.0689 C.3       1 RES1    0.0000
     49 H24        6.7584    2.3673   14.1197 H         1 RES1    0.0000
     50 H25        5.2378    2.2055   14.1406 H         1 RES1    0.0000
     51 H26        5.8857    3.4572   14.8120 H         1 RES1    0.0000
     52 H27        6.6039    5.7398   11.1748 H         1 RES1    0.0000
     53 H28        2.8302    5.1284   10.2362 H         1 RES1    0.0000
     54 C19        1.6949    2.9463    7.2508 C.3       1 RES1    0.0000
     55 C20        0.7365    2.3004    8.2286 C.3       1 RES1    0.0000
     56 H29        0.2512    1.5864    7.7723 H         1 RES1    0.0000
     57 H30        0.1220    2.9686    8.5558 H         1 RES1    0.0000
     58 H31        1.2269    1.9043    8.9717 H         1 RES1    0.0000
     59 C21        2.7101    1.9389    6.7633 C.3       1 RES1    0.0000
     60 H32        2.2623    1.2450    6.2601 H         1 RES1    0.0000
     61 H33        3.1592    1.5395    7.5220 H         1 RES1    0.0000
     62 H34        3.3507    2.3918    6.1884 H         1 RES1    0.0000
     63 C22        0.9405    3.6034    6.1167 C.3       1 RES1    0.0000
     64 H35        0.4740    2.9307    5.6030 H         1 RES1    0.0000
     65 H36        0.3003    4.2304    6.4791 H         1 RES1    0.0000
     66 H37        1.5533    4.0753    5.5496 H         1 RES1    0.0000
@<TRIPOS>BOND
     1    1    2 1
     2    2    3 2
     3    4    2 1
     4    5    4 1
     5    6    5 1
     6    7    6 1
     7    8    7 1
     8    9    5 1
     9   10    9 1
    10   11    4 1
    11   12   11 1
    12   13   11 1
    13   14   10 1
    14   15   10 1
    15   16    9 1
    16   17    8 1
    17   18   17 2
    18   19   17 1
    19   20    7 1
    20   21   20 1
    21   22   21 1
    22   23   22 1
    23   24   23 1
    24   25   23 1
    25   26   23 1
    26   27   22 1
    27   28   27 1
    28   29   27 1
    29   30   27 1
    30   31   22 1
    31   32   21 1
    32   33   32 1
    33   34   33 1
    34   35   20 1
    35   36   35 1
    36   37   35 1
    37   38   34 1
    38   39   38 1
    39   40   38 1
    40   41   38 1
    41   42   34 1
    42   43   33 1
    43   44   33 1
    44   45   32 1
    45   46   32 1
    46   47   21 1
    47   48   19 1
    48   49   48 1
    49   50   48 1
    50   51   48 1
    51   52    8 1
    52   53    5 1
    53   54    1 1
    54   55   54 1
    55   56   55 1
    56   57   55 1
    57   58   55 1
    58   59   54 1
    59   60   59 1
    60   61   59 1
    61   62   59 1
    62   63   54 1
    63   64   63 1
    64   65   63 1
    65   66   63 1
    66    8    9 1
    67   10   11 1
    68   19   20 1
    69   34   35 1
@<TRIPOS>SUBSTRUCTURE
     1 RES1 1

@<TRIPOS>CRYSIN
  15.7520   11.1560   13.7190  90.0000 108.1500  90.0000   5 1

