# MOL2 file generated by ConQuest
# Please check atom types

@<TRIPOS>MOLECULE
LUDFAR
    21    21     1
SMALL
NO_CHARGES
****
Generated from CSD

@<TRIPOS>ATOM
      1 O1        -0.0457   17.7321    5.6499 O.3       1 RES1    0.0000
      2 N1        -0.2238   16.4161    5.1711 N.2       1 RES1    0.0000
      3 C1         0.4389   15.6327    5.9954 C.2       1 RES1    0.0000
      4 C2         1.0586   16.3844    7.0240 C.2       1 RES1    0.0000
      5 H1         1.5769   16.0763    7.7320 H         1 RES1    0.0000
      6 C3         0.7233   17.6294    6.7348 C.2       1 RES1    0.0000
      7 N2         1.0700   18.8806    7.3526 N.pl3     1 RES1    0.0000
      8 O2         1.8500   18.8201    8.2881 O.2       1 RES1    0.0000
      9 O3         0.5831   19.9029    6.9054 O.2       1 RES1    0.0000
     10 C4         0.4404   14.2158    5.7375 C.2       1 RES1    0.0000
     11 H2        -0.0041   13.9063    4.9812 H         1 RES1    0.0000
     12 C5         1.0323   13.3423    6.5082 C.2       1 RES1    0.0000
     13 H3         1.4884   13.6192    7.2704 H         1 RES1    0.0000
     14 O4         0.9734   12.0193    6.1822 O.3       1 RES1    0.0000
     15 C6         1.4660   11.0797    7.0143 C.2       1 RES1    0.0000
     16 H4         1.3660   10.2008    6.7270 H         1 RES1    0.0000
     17 C7         2.0641   11.2277    8.1686 C.2       1 RES1    0.0000
     18 H5         2.1984   12.0788    8.5185 H         1 RES1    0.0000
     19 C8         2.5121   10.0735    8.8907 C.2       1 RES1    0.0000
     20 H6         2.3509    9.2409    8.5090 H         1 RES1    0.0000
     21 O5         3.0835   10.0957    9.9572 O.2       1 RES1    0.0000
@<TRIPOS>BOND
     1    1    2 1
     2    2    3 2
     3    3    4 1
     4    4    5 1
     5    6    1 1
     6    7    6 1
     7    8    7 2
     8    9    7 2
     9   10    3 1
    10   11   10 1
    11   12   10 2
    12   13   12 1
    13   14   12 1
    14   15   14 1
    15   16   15 1
    16   17   15 2
    17   18   17 1
    18   19   17 1
    19   20   19 1
    20   21   19 2
    21    4    6 2
@<TRIPOS>SUBSTRUCTURE
     1 RES1 1

@<TRIPOS>CRYSIN
   3.9575   12.3228   19.0970  90.0000  95.8490  90.0000  14 1

