# MOL2 file generated by ConQuest
# Please check atom types

@<TRIPOS>MOLECULE
LUDGAS
    34    35     1
SMALL
NO_CHARGES
****
Generated from CSD

@<TRIPOS>ATOM
      1 O1         2.9897    1.2496    1.2247 O.2       1 RES1    0.0000
      2 O2         4.6077    2.0647    2.3199 O.2       1 RES1    0.0000
      3 O3        -0.3713    7.1532    1.9972 O.2       1 RES1    0.0000
      4 N1         3.5180    2.1745    1.8024 N.pl3     1 RES1    0.0000
      5 N2         3.1877   12.3865    1.7474 N.3       1 RES1    0.0000
      6 C1         2.8568    3.4767    1.8158 C.ar      1 RES1    0.0000
      7 C2         1.6233    3.6054    1.2046 C.ar      1 RES1    0.0000
      8 H1         1.2186    2.8790    0.7867 H         1 RES1    0.0000
      9 C3         1.0120    4.8379    1.2328 C.ar      1 RES1    0.0000
     10 H2         0.1770    4.9399    0.8373 H         1 RES1    0.0000
     11 C4         1.6131    5.9285    1.8374 C.ar      1 RES1    0.0000
     12 C5         2.8593    5.7617    2.4352 C.ar      1 RES1    0.0000
     13 H3         3.2774    6.4863    2.8412 H         1 RES1    0.0000
     14 C6         3.4773    4.5329    2.4292 C.ar      1 RES1    0.0000
     15 H4         4.3063    4.4196    2.8367 H         1 RES1    0.0000
     16 C7         0.8553    7.2171    1.9192 C.2       1 RES1    0.0000
     17 C8         1.5381    8.5233    1.9229 C.ar      1 RES1    0.0000
     18 C9         0.8537    9.6370    2.3958 C.ar      1 RES1    0.0000
     19 H5         0.0041    9.5214    2.7564 H         1 RES1    0.0000
     20 C10        1.3845   10.8895    2.3497 C.ar      1 RES1    0.0000
     21 H6         0.8979   11.6055    2.6925 H         1 RES1    0.0000
     22 C11        2.6583   11.1254    1.7905 C.ar      1 RES1    0.0000
     23 C12        3.3411   10.0041    1.3102 C.ar      1 RES1    0.0000
     24 H7         4.1810   10.1169    0.9265 H         1 RES1    0.0000
     25 C13        2.8067    8.7473    1.3882 C.ar      1 RES1    0.0000
     26 H8         3.3020    8.0241    1.0767 H         1 RES1    0.0000
     27 C14        2.3680   13.5311    2.0805 C.3       1 RES1    0.0000
     28 H9         1.6261   13.5826    1.4738 H         1 RES1    0.0000
     29 H10        2.8935   14.3312    2.0114 H         1 RES1    0.0000
     30 H11        2.0414   13.4410    2.9787 H         1 RES1    0.0000
     31 C15        4.4002   12.6545    1.0105 C.3       1 RES1    0.0000
     32 H12        5.0748   12.0188    1.2626 H         1 RES1    0.0000
     33 H13        4.7063   13.5421    1.2090 H         1 RES1    0.0000
     34 H14        4.2263   12.5796    0.0692 H         1 RES1    0.0000
@<TRIPOS>BOND
     1    1    4 2
     2    2    4 2
     3    3   16 2
     4    4    6 1
     5    5   22 1
     6    6    7 ar
     7    7    8 1
     8    9    7 ar
     9   10    9 1
    10   11    9 ar
    11   12   11 ar
    12   13   12 1
    13   14    6 ar
    14   15   14 1
    15   16   11 1
    16   17   16 1
    17   18   17 ar
    18   19   18 1
    19   20   18 ar
    20   21   20 1
    21   22   20 ar
    22   23   22 ar
    23   24   23 1
    24   25   17 ar
    25   26   25 1
    26   27    5 1
    27   28   27 1
    28   29   27 1
    29   30   27 1
    30   31    5 1
    31   32   31 1
    32   33   31 1
    33   34   31 1
    34   12   14 ar
    35   23   25 ar
@<TRIPOS>SUBSTRUCTURE
     1 RES1 1

@<TRIPOS>CRYSIN
   6.1527   28.9053    7.4404  90.0000  92.0360  90.0000 231 1

