# MOL2 file generated by ConQuest
# Please check atom types

@<TRIPOS>MOLECULE
LUDJOK
    31    33     1
SMALL
NO_CHARGES
****
Generated from CSD

@<TRIPOS>ATOM
      1 C1        -4.1155    6.3187    7.8059 C.3       1 RES1    0.0000
      2 C2        -4.1706    7.8362    8.0968 C.2       1 RES1    0.0000
      3 C3        -3.1565    8.6408    7.4020 C.2       1 RES1    0.0000
      4 H1        -2.9297    9.5253    7.7540 H         1 RES1    0.0000
      5 C4        -2.5387    8.1978    6.3048 C.2       1 RES1    0.0000
      6 H2        -1.8582    8.7698    5.8816 H         1 RES1    0.0000
      7 C5        -2.8368    6.8942    5.7046 C.ar      1 RES1    0.0000
      8 C6        -3.6833    6.0334    6.4064 C.ar      1 RES1    0.0000
      9 C7        -2.3637    6.5184    4.4574 C.ar      1 RES1    0.0000
     10 H3        -1.7658    7.0908    3.9774 H         1 RES1    0.0000
     11 C8        -2.7574    5.3001    3.9002 C.ar      1 RES1    0.0000
     12 H4        -2.3748    5.0143    3.0129 H         1 RES1    0.0000
     13 C9        -3.6607    4.4846    4.5435 C.ar      1 RES1    0.0000
     14 H5        -3.9710    3.6420    4.1236 H         1 RES1    0.0000
     15 C10       -4.1307    4.8694    5.8028 C.ar      1 RES1    0.0000
     16 C11       -2.6003    4.6042    8.7853 C.3       1 RES1    0.0000
     17 H6        -3.2099    4.0054    8.2690 H         1 RES1    0.0000
     18 C12       -2.5377    4.1416   10.2266 C.3       1 RES1    0.0000
     19 H7        -1.9672    4.7506   10.7410 H         1 RES1    0.0000
     20 H8        -2.1661    3.2353   10.2637 H         1 RES1    0.0000
     21 H9        -3.4415    4.1400   10.6087 H         1 RES1    0.0000
     22 C13       -1.2357    4.6070    8.1367 C.3       1 RES1    0.0000
     23 H10       -1.3168    4.9165    7.2110 H         1 RES1    0.0000
     24 H11       -0.8667    3.7010    8.1487 H         1 RES1    0.0000
     25 H12       -0.6417    5.2080    8.6300 H         1 RES1    0.0000
     26 C14       -5.3953    5.5995    8.0727 C.2       1 RES1    0.0000
     27 H13       -5.9531    5.9633    8.7503 H         1 RES1    0.0000
     28 N1        -5.8236    4.5409    7.4847 N.2       1 RES1    0.0000
     29 O1        -3.1521    5.9456    8.8232 O.3       1 RES1    0.0000
     30 O2        -4.9695    8.2865    8.8869 O.2       1 RES1    0.0000
     31 O3        -5.0535    4.0437    6.3850 O.3       1 RES1    0.0000
@<TRIPOS>BOND
     1    1    2 1
     2    2    3 1
     3    3    4 1
     4    5    3 2
     5    6    5 1
     6    7    5 1
     7    8    1 1
     8    9    7 ar
     9   10    9 1
    10   11    9 ar
    11   12   11 1
    12   13   11 ar
    13   14   13 1
    14   15    8 ar
    15   16   17 1
    16   18   16 1
    17   19   18 1
    18   20   18 1
    19   21   18 1
    20   22   16 1
    21   23   22 1
    22   24   22 1
    23   25   22 1
    24   26    1 1
    25   27   26 1
    26   28   26 2
    27   29    1 1
    28   30    2 2
    29   31   15 1
    30    7    8 ar
    31   13   15 ar
    32   16   29 1
    33   28   31 1
@<TRIPOS>SUBSTRUCTURE
     1 RES1 1

@<TRIPOS>CRYSIN
   8.2077    8.2999   10.0909  90.7490  98.1140 119.6160   2 1

