# MOL2 file generated by ConQuest
# Please check atom types

@<TRIPOS>MOLECULE
LUDMAZ
    48    48     1
SMALL
NO_CHARGES
****
Generated from CSD

@<TRIPOS>ATOM
      1 C1         6.4209    4.9206    2.4369 C.2       1 RES1    0.0000
      2 C2         5.9094    5.4330    3.7789 C.3       1 RES1    0.0000
      3 C3         6.8415    5.0168    4.9410 C.3       1 RES1    0.0000
      4 H1         7.7776    5.2975    4.7298 H         1 RES1    0.0000
      5 C4         6.8384    3.5376    5.3680 C.3       1 RES1    0.0000
      6 H2         5.9346    3.3261    5.7380 H         1 RES1    0.0000
      7 O1         5.7418    4.3835    1.5952 O.2       1 RES1    0.0000
      8 O2         7.7198    5.2047    2.2647 O.3       1 RES1    0.0000
      9 C5         8.2740    4.8259    0.9813 C.3       1 RES1    0.0000
     10 H3         8.1814    3.8588    0.8590 H         1 RES1    0.0000
     11 H4         9.2230    5.0700    0.9506 H         1 RES1    0.0000
     12 H5         7.7934    5.2943    0.2664 H         1 RES1    0.0000
     13 C6         5.9463    6.9951    3.6545 C.3       1 RES1    0.0000
     14 H6         5.4429    7.3868    4.4122 H         1 RES1    0.0000
     15 H7         6.8857    7.2991    3.7280 H         1 RES1    0.0000
     16 C7         5.3727    7.5141    2.3766 C.2       1 RES1    0.0000
     17 H8         4.4728    7.2875    2.1741 H         1 RES1    0.0000
     18 C8         6.0263    8.2652    1.5095 C.2       1 RES1    0.0000
     19 H9         6.9280    8.5116    1.6796 H         1 RES1    0.0000
     20 H10        5.5949    8.5583    0.7162 H         1 RES1    0.0000
     21 C9         4.4806    4.9567    4.0164 C.3       1 RES1    0.0000
     22 H11        3.8882    5.3519    3.3422 H         1 RES1    0.0000
     23 H12        4.1886    5.2331    4.9110 H         1 RES1    0.0000
     24 H13        4.4458    3.9796    3.9497 H         1 RES1    0.0000
     25 O3         6.3664    5.7581    6.1087 O.3       1 RES1    0.0000
     26 C10        7.1569    6.6884    6.6626 C.2       1 RES1    0.0000
     27 O4         8.2873    6.9372    6.3250 O.2       1 RES1    0.0000
     28 C11        6.4429    7.3975    7.7774 C.ar      1 RES1    0.0000
     29 C12        7.0862    8.4674    8.3857 C.ar      1 RES1    0.0000
     30 H14        7.9414    8.7422    8.0762 H         1 RES1    0.0000
     31 C13        6.4915    9.1317    9.4329 C.ar      1 RES1    0.0000
     32 H15        6.9274    9.8634    9.8539 H         1 RES1    0.0000
     33 C14        5.2453    8.7118    9.8603 C.ar      1 RES1    0.0000
     34 C15        4.5797    7.6860    9.2603 C.ar      1 RES1    0.0000
     35 H16        3.7150    7.4326    9.5619 H         1 RES1    0.0000
     36 C16        5.1767    7.0165    8.2054 C.ar      1 RES1    0.0000
     37 H17        4.7226    6.3006    7.7757 H         1 RES1    0.0000
     38 N1         4.6315    9.3711   11.0307 N.pl3     1 RES1    0.0000
     39 O5         3.4991    9.0283   11.3675 O.2       1 RES1    0.0000
     40 O6         5.2822   10.2171   11.6280 O.2       1 RES1    0.0000
     41 C17        7.1017    2.5871    4.1937 C.3       1 RES1    0.0000
     42 H18        6.3959    2.6941    3.5234 H         1 RES1    0.0000
     43 H19        7.1079    1.6624    4.5166 H         1 RES1    0.0000
     44 H20        7.9701    2.7983    3.7919 H         1 RES1    0.0000
     45 C18        7.8586    3.3080    6.4640 C.3       1 RES1    0.0000
     46 H21        7.8168    2.3739    6.7568 H         1 RES1    0.0000
     47 H22        7.6620    3.8974    7.2215 H         1 RES1    0.0000
     48 H23        8.7554    3.5030    6.1217 H         1 RES1    0.0000
@<TRIPOS>BOND
     1    1    2 1
     2    2    3 1
     3    3    4 1
     4    5    3 1
     5    6    5 1
     6    7    1 2
     7    8    1 1
     8    9    8 1
     9   10    9 1
    10   11    9 1
    11   12    9 1
    12   13    2 1
    13   14   13 1
    14   15   13 1
    15   16   13 1
    16   17   16 1
    17   18   16 2
    18   19   18 1
    19   20   18 1
    20   21    2 1
    21   22   21 1
    22   23   21 1
    23   24   21 1
    24   25    3 1
    25   26   25 1
    26   27   26 2
    27   28   26 1
    28   29   28 ar
    29   30   29 1
    30   31   29 ar
    31   32   31 1
    32   33   31 ar
    33   34   33 ar
    34   35   34 1
    35   36   28 ar
    36   37   36 1
    37   38   33 1
    38   39   38 2
    39   40   38 2
    40   41    5 1
    41   42   41 1
    42   43   41 1
    43   44   41 1
    44   45    5 1
    45   46   45 1
    46   47   45 1
    47   48   45 1
    48   34   36 ar
@<TRIPOS>SUBSTRUCTURE
     1 RES1 1

@<TRIPOS>CRYSIN
   6.1407    7.3149   21.3626  87.2050  86.6580  72.1790   2 1

