# MOL2 file generated by ConQuest
# Please check atom types

@<TRIPOS>MOLECULE
LUDREI
    51    53     1
SMALL
NO_CHARGES
****
Generated from CSD

@<TRIPOS>ATOM
      1 O1         4.4556   -2.2274   -3.2631 O.3       1 RES1    0.0000
      2 O2         6.3468   -0.9840    0.6322 O.3       1 RES1    0.0000
      3 H1         6.8082   -1.4557    1.1098 H         1 RES1    0.0000
      4 O3         4.3958   -2.4320    2.7840 O.3       1 RES1    0.0000
      5 O4         3.4076    2.5325    1.0581 O.3       1 RES1    0.0000
      6 N1         4.4282   -2.4944   -1.8761 N.2       1 RES1    0.0000
      7 N2         4.0034   -0.2552    3.3248 N.2       1 RES1    0.0000
      8 N3         3.7403    0.3457    0.5078 N.2       1 RES1    0.0000
      9 C1         5.1561   -1.6470    0.2487 C.3       1 RES1    0.0000
     10 H2         5.2222   -2.5880    0.5153 H         1 RES1    0.0000
     11 C2         3.9443   -1.0193    0.9587 C.3       1 RES1    0.0000
     12 H3         3.1516   -1.5357    0.7011 H         1 RES1    0.0000
     13 C3         4.1053   -1.1504    2.4530 C.2       1 RES1    0.0000
     14 C4         3.6130    1.0730    2.8878 C.3       1 RES1    0.0000
     15 H4         4.2791    1.7001    3.2378 H         1 RES1    0.0000
     16 C5         3.5975    1.2337    1.3947 C.2       1 RES1    0.0000
     17 C6         2.2521    1.4601    3.5096 C.3       1 RES1    0.0000
     18 H5         2.0305    2.3635    3.2031 H         1 RES1    0.0000
     19 C7         2.3442    1.4923    5.0413 C.3       1 RES1    0.0000
     20 H6         3.0124    2.1291    5.3089 H         1 RES1    0.0000
     21 H7         2.5847    0.6223    5.3658 H         1 RES1    0.0000
     22 H8         1.4946    1.7479    5.4079 H         1 RES1    0.0000
     23 C8         1.1436    0.5367    3.0607 C.3       1 RES1    0.0000
     24 H9         1.3117   -0.3489    3.3914 H         1 RES1    0.0000
     25 H10        1.1099    0.5200    2.1008 H         1 RES1    0.0000
     26 H11        0.3052    0.8523    3.4038 H         1 RES1    0.0000
     27 C9         4.5920   -2.6869    4.1834 C.3       1 RES1    0.0000
     28 H12        4.7229   -3.6270    4.3229 H         1 RES1    0.0000
     29 H13        3.8191   -2.3957    4.6722 H         1 RES1    0.0000
     30 H14        5.3650   -2.2068    4.4913 H         1 RES1    0.0000
     31 C10        3.3457    2.8369   -0.3409 C.3       1 RES1    0.0000
     32 H15        4.1686    2.5769   -0.7605 H         1 RES1    0.0000
     33 H16        3.2107    3.7803   -0.4583 H         1 RES1    0.0000
     34 H17        2.6164    2.3569   -0.7407 H         1 RES1    0.0000
     35 C11        5.0330   -1.5781   -1.2461 C.2       1 RES1    0.0000
     36 C12        5.6273   -0.5195   -2.1188 C.3       1 RES1    0.0000
     37 H18        6.5965   -0.5634   -2.1230 H         1 RES1    0.0000
     38 H19        5.3460    0.3678   -1.8456 H         1 RES1    0.0000
     39 C13        5.0422   -0.9003   -3.4823 C.3       1 RES1    0.0000
     40 H20        5.7722   -0.9779   -4.1321 H         1 RES1    0.0000
     41 C14        3.9984    0.0141   -4.0348 C.ar      1 RES1    0.0000
     42 C15        4.0920    0.4745   -5.3274 C.ar      1 RES1    0.0000
     43 H21        4.8115    0.2278   -5.8613 H         1 RES1    0.0000
     44 C16        3.0975    1.3157   -5.8316 C.ar      1 RES1    0.0000
     45 H22        3.1636    1.6390   -6.7011 H         1 RES1    0.0000
     46 C17        2.0298    1.6657   -5.0584 C.ar      1 RES1    0.0000
     47 H23        1.3764    2.2324   -5.4005 H         1 RES1    0.0000
     48 C18        1.9173    1.1868   -3.7818 C.ar      1 RES1    0.0000
     49 H24        1.1753    1.4034   -3.2651 H         1 RES1    0.0000
     50 C19        2.9005    0.3878   -3.2723 C.ar      1 RES1    0.0000
     51 H25        2.8337    0.0867   -2.3955 H         1 RES1    0.0000
@<TRIPOS>BOND
     1    1    6 1
     2    2    3 1
     3    4   13 1
     4    5   16 1
     5    6   35 2
     6    7   13 2
     7    8   11 1
     8    9    2 1
     9   10    9 1
    10   11    9 1
    11   12   11 1
    12   13   11 1
    13   14    7 1
    14   15   14 1
    15   16    8 2
    16   17   14 1
    17   18   17 1
    18   19   17 1
    19   20   19 1
    20   21   19 1
    21   22   19 1
    22   23   17 1
    23   24   23 1
    24   25   23 1
    25   26   23 1
    26   27    4 1
    27   28   27 1
    28   29   27 1
    29   30   27 1
    30   31    5 1
    31   32   31 1
    32   33   31 1
    33   34   31 1
    34   35    9 1
    35   36   35 1
    36   37   36 1
    37   38   36 1
    38   39    1 1
    39   40   39 1
    40   41   39 1
    41   42   41 ar
    42   43   42 1
    43   44   42 ar
    44   45   44 1
    45   46   44 ar
    46   47   46 1
    47   48   46 ar
    48   49   48 1
    49   50   41 ar
    50   51   50 1
    51   14   16 1
    52   36   39 1
    53   48   50 ar
@<TRIPOS>SUBSTRUCTURE
     1 RES1 1

@<TRIPOS>CRYSIN
   7.0333   11.1120   24.7730  90.0000  90.0000  90.0000  19 1

