# MOL2 file generated by ConQuest
# Please check atom types

@<TRIPOS>MOLECULE
LUDWUC
   171   174     1
SMALL
NO_CHARGES
****
Generated from CSD

@<TRIPOS>ATOM
      1 O1         4.8179    2.6694   10.2469 O.2       1 RES1    0.0000
      2 O2         6.2747    2.7944   11.5170 O.2       1 RES1    0.0000
      3 O3         4.6250    6.3342    7.1739 O.2       1 RES1    0.0000
      4 O4         5.8583    4.9089   13.1399 O.3       1 RES1    0.0000
      5 O5         4.9926    8.8450   10.4848 O.3       1 RES1    0.0000
      6 O6         4.4486   11.1395    7.8157 O.3       1 RES1    0.0000
      7 O7         3.5944    7.0524    3.1515 O.2       1 RES1    0.0000
      8 O8         3.7012   11.2325    3.0398 O.3       1 RES1    0.0000
      9 O9         3.2834   10.3582   -0.3728 O.3       1 RES1    0.0000
     10 O10        2.9939    4.1267    0.2359 O.2       1 RES1    0.0000
     11 O11        2.4288    6.4849   -3.1713 O.3       1 RES1    0.0000
     12 O12        1.9924    3.1728   -4.3917 O.3       1 RES1    0.0000
     13 N1         5.5759    3.3222   10.9072 N.pl3     1 RES1    0.0000
     14 N2         4.5733    8.5059    7.8387 N.am      1 RES1    0.0000
     15 N3         3.5276    8.8532    1.7832 N.am      1 RES1    0.0000
     16 N4         2.4889    4.0705   -1.9699 N.am      1 RES1    0.0000
     17 C1         5.4164    4.7667   10.8511 C.ar      1 RES1    0.0000
     18 C2         5.5709    5.5423   11.9977 C.ar      1 RES1    0.0000
     19 C3         5.4373    6.9139   11.8630 C.ar      1 RES1    0.0000
     20 C4         5.1346    7.5026   10.6397 C.ar      1 RES1    0.0000
     21 C5         4.9911    6.7107    9.4743 C.ar      1 RES1    0.0000
     22 C6         5.1233    5.3470    9.6352 C.ar      1 RES1    0.0000
     23 C7         4.7073    7.1814    8.0639 C.2       1 RES1    0.0000
     24 C8         5.9977    5.6472   14.3714 C.3       1 RES1    0.0000
     25 C9         6.2785    4.6634   15.4638 C.3       1 RES1    0.0000
     26 C10        6.4913    5.3112   16.8219 C.3       1 RES1    0.0000
     27 C11        6.6529    4.3158   17.9535 C.3       1 RES1    0.0000
     28 C12        6.9881    4.9281   19.2854 C.3       1 RES1    0.0000
     29 C13        7.2211    3.9345   20.3927 C.3       1 RES1    0.0000
     30 C14        7.7399    4.5908   21.6890 C.3       1 RES1    0.0000
     31 C15        8.0883    3.7242   22.6917 C.3       1 RES1    0.0000
     32 C16        5.0067    9.7199   11.6535 C.3       1 RES1    0.0000
     33 C17        4.6200   11.0999   11.2083 C.3       1 RES1    0.0000
     34 C18        4.4695   12.0360   12.4055 C.3       1 RES1    0.0000
     35 C19        3.8361   13.3643   11.9921 C.3       1 RES1    0.0000
     36 C20        3.1896   14.0676   13.1182 C.3       1 RES1    0.0000
     37 C21        2.1745   15.0599   12.6973 C.3       1 RES1    0.0000
     38 C22        1.6447   15.5969   13.8234 C.3       1 RES1    0.0000
     39 C23        0.6787   16.3160   13.4362 C.3       1 RES1    0.0000
     40 C24        4.3695   12.5579    7.8956 C.3       1 RES1    0.0000
     41 C25        4.3356    9.1261    6.5900 C.ar      1 RES1    0.0000
     42 C26        4.2726   10.5350    6.5974 C.ar      1 RES1    0.0000
     43 C27        4.0772   11.2441    5.4209 C.ar      1 RES1    0.0000
     44 C28        3.9128   10.5624    4.2181 C.ar      1 RES1    0.0000
     45 C29        3.9257    9.1575    4.1826 C.ar      1 RES1    0.0000
     46 C30        4.1456    8.4808    5.3891 C.ar      1 RES1    0.0000
     47 C31        3.6788    8.2647    2.9985 C.2       1 RES1    0.0000
     48 C32        3.7107   12.6483    3.0359 C.3       1 RES1    0.0000
     49 C33        3.2589    8.2045    0.5481 C.ar      1 RES1    0.0000
     50 C34        3.1401    9.0067   -0.5948 C.ar      1 RES1    0.0000
     51 C35        2.8586    8.4447   -1.8200 C.ar      1 RES1    0.0000
     52 C36        2.7324    7.0819   -1.9529 C.ar      1 RES1    0.0000
     53 C37        2.8763    6.2246   -0.8455 C.ar      1 RES1    0.0000
     54 C38        3.1401    6.8234    0.3797 C.ar      1 RES1    0.0000
     55 C39        3.2842   11.2469   -1.5077 C.3       1 RES1    0.0000
     56 C40        3.2272   12.7300   -0.8941 C.3       1 RES1    0.0000
     57 C41        2.6790   13.7976   -1.5769 C.3       1 RES1    0.0000
     58 C42        1.1541   13.6155   -1.7920 C.3       1 RES1    0.0000
     59 C43       -0.0314   14.2937   -1.2514 C.3       1 RES1    0.0000
     60 C44       -1.2830   14.2215   -2.1885 C.3       1 RES1    0.0000
     61 C45       -2.2418   15.0442   -1.2626 C.3       1 RES1    0.0000
     62 C46       -3.4184   14.6580   -2.0763 C.3       1 RES1    0.0000
     63 C47        2.2149    7.3255   -4.3303 C.3       1 RES1    0.0000
     64 C48        1.9551    6.3841   -5.4919 C.3       1 RES1    0.0000
     65 C49        1.6476    7.1161   -6.7938 C.3       1 RES1    0.0000
     66 C50        1.4652    6.1631   -7.9629 C.3       1 RES1    0.0000
     67 C51        1.1107    6.8740   -9.2667 C.3       1 RES1    0.0000
     68 C52        0.9270    5.9197  -10.4227 C.3       1 RES1    0.0000
     69 C53        0.6170    6.6413  -11.7414 C.3       1 RES1    0.0000
     70 C54        0.3922    5.6836  -12.8956 C.3       1 RES1    0.0000
     71 C55        2.7718    4.7324   -0.8212 C.2       1 RES1    0.0000
     72 C56        2.2975    2.6694   -2.1324 C.ar      1 RES1    0.0000
     73 C57        2.0141    2.2169   -3.4212 C.ar      1 RES1    0.0000
     74 C58        1.7835    0.8729   -3.6476 C.ar      1 RES1    0.0000
     75 C59        1.8287   -0.0188   -2.6169 C.ar      1 RES1    0.0000
     76 C60        2.1074    0.4145   -1.3019 C.ar      1 RES1    0.0000
     77 C61        2.3167    1.7770   -1.0793 C.ar      1 RES1    0.0000
     78 C62        1.4924    2.7696   -5.6883 C.3       1 RES1    0.0000
     79 C63        2.0977   -0.5244   -0.1104 C.3       1 RES1    0.0000
     80 H1         4.6392    9.0246    8.5222 H         1 RES1    0.0000
     81 H2         5.5513    7.4546   12.6113 H         1 RES1    0.0000
     82 H3         3.6036    9.7092    1.7583 H         1 RES1    0.0000
     83 H4         2.4178    4.5500   -2.6805 H         1 RES1    0.0000
     84 H5         5.0106    4.7981    8.8926 H         1 RES1    0.0000
     85 H6         5.1824    6.1358   14.5622 H         1 RES1    0.0000
     86 H7         6.7272    6.2833   14.2985 H         1 RES1    0.0000
     87 H8         7.0703    4.1544   15.2319 H         1 RES1    0.0000
     88 H9         5.5345    4.0444   15.5256 H         1 RES1    0.0000
     89 H10        7.2831    5.8688   16.7826 H         1 RES1    0.0000
     90 H11        5.7348    5.8877   17.0164 H         1 RES1    0.0000
     91 H12        5.8280    3.8121   18.0433 H         1 RES1    0.0000
     92 H13        7.3532    3.6865   17.7160 H         1 RES1    0.0000
     93 H14        6.2651    5.5172   19.5454 H         1 RES1    0.0000
     94 H15        7.7868    5.4701   19.1825 H         1 RES1    0.0000
     95 H16        7.8653    3.2720   20.0935 H         1 RES1    0.0000
     96 H17        6.3893    3.4730   20.5835 H         1 RES1    0.0000
     97 H18        8.5143    5.1309   21.4683 H         1 RES1    0.0000
     98 H19        7.0531    5.1874   22.0239 H         1 RES1    0.0000
     99 H20        8.4188    4.2234   23.4417 H         1 RES1    0.0000
    100 H21        8.7725    3.1307   22.3774 H         1 RES1    0.0000
    101 H22        7.3192    3.2155   22.9573 H         1 RES1    0.0000
    102 H23        5.8932    9.7343   12.0482 H         1 RES1    0.0000
    103 H24        4.3801    9.3952   12.3194 H         1 RES1    0.0000
    104 H25        3.7813   11.0594   10.7239 H         1 RES1    0.0000
    105 H26        5.2984   11.4488   10.6098 H         1 RES1    0.0000
    106 H27        5.3413   12.2024   12.7964 H         1 RES1    0.0000
    107 H28        3.9153   11.6089   13.0789 H         1 RES1    0.0000
    108 H29        4.5198   13.9358   11.6124 H         1 RES1    0.0000
    109 H30        3.1718   13.1978   11.3056 H         1 RES1    0.0000
    110 H31        3.8785   14.5230   13.6344 H         1 RES1    0.0000
    111 H32        2.7731   13.4145   13.6980 H         1 RES1    0.0000
    112 H33        2.5840   15.7539   12.1567 H         1 RES1    0.0000
    113 H34        1.4829   14.6266   12.1717 H         1 RES1    0.0000
    114 H35        1.3263   14.8998   14.4276 H         1 RES1    0.0000
    115 H36        2.2977   16.1338   14.3004 H         1 RES1    0.0000
    116 H37        0.2073   16.6677   14.1956 H         1 RES1    0.0000
    117 H38        0.0765   15.7821   12.9087 H         1 RES1    0.0000
    118 H39        1.0142   17.0382   12.9031 H         1 RES1    0.0000
    119 H40        4.5125   12.8367    8.8028 H         1 RES1    0.0000
    120 H41        3.5021   12.8461    7.6038 H         1 RES1    0.0000
    121 H42        5.0416   12.9466    7.3326 H         1 RES1    0.0000
    122 H43        4.0558   12.1742    5.4358 H         1 RES1    0.0000
    123 H44        4.1630    7.5519    5.3778 H         1 RES1    0.0000
    124 H45        3.5620   12.9655    2.1418 H         1 RES1    0.0000
    125 H46        4.5608   12.9623    3.3502 H         1 RES1    0.0000
    126 H47        3.0153   12.9749    3.6120 H         1 RES1    0.0000
    127 H48        2.7517    8.9932   -2.5645 H         1 RES1    0.0000
    128 H49        3.2412    6.2771    1.1261 H         1 RES1    0.0000
    129 H50        2.5137   11.0814   -2.0726 H         1 RES1    0.0000
    130 H51        4.0899   11.1254   -2.0352 H         1 RES1    0.0000
    131 H52        2.7511   12.6640   -0.0524 H         1 RES1    0.0000
    132 H53        4.1401   12.9780   -0.6790 H         1 RES1    0.0000
    133 H54        3.1177   13.8855   -2.4373 H         1 RES1    0.0000
    134 H55        2.8378   14.6140   -1.0756 H         1 RES1    0.0000
    135 H56        1.0493   13.6877   -2.7535 H         1 RES1    0.0000
    136 H57        1.0054   12.6797   -1.5862 H         1 RES1    0.0000
    137 H58        0.1881   15.2232   -1.0924 H         1 RES1    0.0000
    138 H59       -0.2544   13.8918   -0.3966 H         1 RES1    0.0000
    139 H60       -1.1315   14.6517   -3.0434 H         1 RES1    0.0000
    140 H61       -1.5912   13.3109   -2.3251 H         1 RES1    0.0000
    141 H62       -2.2745   14.7114   -0.3517 H         1 RES1    0.0000
    142 H63       -2.0593   15.9988   -1.2738 H         1 RES1    0.0000
    143 H64       -3.9823   15.4273   -2.2110 H         1 RES1    0.0000
    144 H65       -3.9193   13.9797   -1.6162 H         1 RES1    0.0000
    145 H66       -3.1311   14.3220   -2.9274 H         1 RES1    0.0000
    146 H67        2.9975    7.8722   -4.5043 H         1 RES1    0.0000
    147 H68        1.4540    7.9099   -4.1919 H         1 RES1    0.0000
    148 H69        1.2079    5.8060   -5.2693 H         1 RES1    0.0000
    149 H70        2.7356    5.8217   -5.6229 H         1 RES1    0.0000
    150 H71        0.8382    7.6399   -6.6797 H         1 RES1    0.0000
    151 H72        2.3718    7.7278   -6.9921 H         1 RES1    0.0000
    152 H73        0.7611    5.5297   -7.7478 H         1 RES1    0.0000
    153 H74        2.2846    5.6616   -8.0901 H         1 RES1    0.0000
    154 H75        0.2923    7.3792   -9.1395 H         1 RES1    0.0000
    155 H76        1.8154    7.5048   -9.4856 H         1 RES1    0.0000
    156 H77        0.2015    5.3099  -10.2169 H         1 RES1    0.0000
    157 H78        1.7343    5.3947  -10.5312 H         1 RES1    0.0000
    158 H79       -0.1766    7.1877  -11.6236 H         1 RES1    0.0000
    159 H80        1.3533    7.2317  -11.9584 H         1 RES1    0.0000
    160 H81        0.1839    6.1797  -13.6887 H         1 RES1    0.0000
    161 H82       -0.3372    5.0932  -12.6861 H         1 RES1    0.0000
    162 H83        1.1886    5.1655  -13.0415 H         1 RES1    0.0000
    163 H84        1.5959    0.5746   -4.5080 H         1 RES1    0.0000
    164 H85        1.6737   -0.9200   -2.7796 H         1 RES1    0.0000
    165 H86        2.4710    2.0850   -0.2170 H         1 RES1    0.0000
    166 H87        1.5546    3.5075   -6.3000 H         1 RES1    0.0000
    167 H88        0.5756    2.4964   -5.6079 H         1 RES1    0.0000
    168 H89        2.0156    2.0348   -6.0194 H         1 RES1    0.0000
    169 H90        1.9314   -1.4193   -0.4078 H         1 RES1    0.0000
    170 H91        1.4070   -0.2575    0.5013 H         1 RES1    0.0000
    171 H92        2.9481   -0.4867    0.3330 H         1 RES1    0.0000
@<TRIPOS>BOND
     1    1   13 2
     2    2   13 2
     3    3   23 2
     4    4   18 1
     5    5   20 1
     6    6   40 1
     7    7   47 2
     8    8   44 1
     9    9   50 1
    10   10   71 2
    11   11   52 1
    12   12   73 1
    13   13   17 1
    14   14   23 1
    15   15   47 1
    16   16   71 1
    17   17   18 ar
    18   18   19 ar
    19   19   20 ar
    20   20   21 ar
    21   21   22 ar
    22   22   17 ar
    23   23   21 1
    24   24    4 1
    25   25   24 1
    26   26   25 1
    27   27   26 1
    28   28   27 1
    29   29   28 1
    30   30   29 1
    31   31   30 1
    32   32    5 1
    33   33   32 1
    34   34   33 1
    35   35   34 1
    36   36   35 1
    37   37   36 1
    38   38   37 1
    39   39   38 1
    40   40  119 1
    41   41   14 1
    42   42    6 1
    43   43   42 ar
    44   44   43 ar
    45   45   44 ar
    46   46   41 ar
    47   47   45 1
    48   48    8 1
    49   49   15 1
    50   50   49 ar
    51   51   50 ar
    52   52   51 ar
    53   53   52 ar
    54   54   49 ar
    55   55    9 1
    56   56   55 1
    57   57   56 1
    58   58   57 1
    59   59   58 1
    60   60   59 1
    61   61   60 1
    62   62   61 1
    63   63   11 1
    64   64   63 1
    65   65   64 1
    66   66   65 1
    67   67   66 1
    68   68   67 1
    69   69   68 1
    70   70   69 1
    71   71   53 1
    72   72   16 1
    73   73   72 ar
    74   74   73 ar
    75   75   74 ar
    76   76   75 ar
    77   77   72 ar
    78   78   12 1
    79   79   76 1
    80   80   14 1
    81   81   19 1
    82   82   15 1
    83   83   16 1
    84   84   22 1
    85   85   24 1
    86   86   24 1
    87   87   25 1
    88   88   25 1
    89   89   26 1
    90   90   26 1
    91   91   27 1
    92   92   27 1
    93   93   28 1
    94   94   28 1
    95   95   29 1
    96   96   29 1
    97   97   30 1
    98   98   30 1
    99   99   31 1
   100  100   31 1
   101  101   31 1
   102  102   32 1
   103  103   32 1
   104  104   33 1
   105  105   33 1
   106  106   34 1
   107  107   34 1
   108  108   35 1
   109  109   35 1
   110  110   36 1
   111  111   36 1
   112  112   37 1
   113  113   37 1
   114  114   38 1
   115  115   38 1
   116  116   39 1
   117  117   39 1
   118  118   39 1
   119  120   40 1
   120  121   40 1
   121  122   43 1
   122  123   46 1
   123  124   48 1
   124  125   48 1
   125  126   48 1
   126  127   51 1
   127  128   54 1
   128  129   55 1
   129  130   55 1
   130  131   56 1
   131  132   56 1
   132  133   57 1
   133  134   57 1
   134  135   58 1
   135  136   58 1
   136  137   59 1
   137  138   59 1
   138  139   60 1
   139  140   60 1
   140  141   61 1
   141  142   61 1
   142  143   62 1
   143  144   62 1
   144  145   62 1
   145  146   63 1
   146  147   63 1
   147  148   64 1
   148  149   64 1
   149  150   65 1
   150  151   65 1
   151  152   66 1
   152  153   66 1
   153  154   67 1
   154  155   67 1
   155  156   68 1
   156  157   68 1
   157  158   69 1
   158  159   69 1
   159  160   70 1
   160  161   70 1
   161  162   70 1
   162  163   74 1
   163  164   75 1
   164  165   77 1
   165  166   78 1
   166  167   78 1
   167  168   78 1
   168  169   79 1
   169  170   79 1
   170  171   79 1
   171   41   42 ar
   172   45   46 ar
   173   53   54 ar
   174   76   77 ar
@<TRIPOS>SUBSTRUCTURE
     1 RES1 1

@<TRIPOS>CRYSIN
  11.0070   31.4010   18.9970  90.0000 100.0500  90.0000  14 1

