# MOL2 file generated by ConQuest
# Please check atom types

@<TRIPOS>MOLECULE
LUDXEN
   147   150     1
SMALL
NO_CHARGES
****
Generated from CSD

@<TRIPOS>ATOM
      1 O1        -6.5161   13.6474   -5.8737 O.3       1 RES1    0.0000
      2 O2        -2.7280   10.7010   -5.4807 O.2       1 RES1    0.0000
      3 O3        -6.0142   11.6519   -3.0947 O.3       1 RES1    0.0000
      4 O4        -4.1607    8.7060    0.2587 O.3       1 RES1    0.0000
      5 O5        -0.2048    8.8782   -2.3987 O.2       1 RES1    0.0000
      6 O6        -1.4557    7.0633    1.1798 O.3       1 RES1    0.0000
      7 O7         0.4238    5.6427    2.6712 O.3       1 RES1    0.0000
      8 O8         4.6596    4.9174    0.3898 O.2       1 RES1    0.0000
      9 O9         2.9690    3.4917    3.9726 O.3       1 RES1    0.0000
     10 O10        6.8378    0.6941    4.4582 O.3       1 RES1    0.0000
     11 O11        8.3756    0.6218    2.4496 O.2       1 RES1    0.0000
     12 O12        7.9816    1.8257    0.7161 O.2       1 RES1    0.0000
     13 N1        -4.4810   12.1239   -5.2347 N.am      1 RES1    0.0000
     14 H1        -5.1874   12.3062   -4.7360 H         1 RES1    0.0000
     15 N2        -1.9972    8.3220   -1.1271 N.am      1 RES1    0.0000
     16 H2        -2.1884    8.0037   -0.3923 H         1 RES1    0.0000
     17 N3         2.8475    5.0983    1.7506 N.am      1 RES1    0.0000
     18 H3         2.4611    4.8022    2.4599 H         1 RES1    0.0000
     19 N4         7.7119    1.4536    1.8569 N.pl3     1 RES1    0.0000
     20 C1        -5.5122   13.6146   -6.8092 C.ar      1 RES1    0.0000
     21 C2        -5.5197   14.3058   -8.0031 C.ar      1 RES1    0.0000
     22 H4        -6.2546   14.8683   -8.2173 H         1 RES1    0.0000
     23 C3        -4.4546   14.1808   -8.8955 C.ar      1 RES1    0.0000
     24 H5        -4.4739   14.6527   -9.7194 H         1 RES1    0.0000
     25 C4        -3.3690   13.3777   -8.5916 C.ar      1 RES1    0.0000
     26 C5        -3.3613   12.6958   -7.3758 C.ar      1 RES1    0.0000
     27 H6        -2.6141   12.1517   -7.1570 H         1 RES1    0.0000
     28 C6        -4.4105   12.7874   -6.4791 C.ar      1 RES1    0.0000
     29 C7        -3.6637   11.1237   -4.8053 C.2       1 RES1    0.0000
     30 C8        -3.9304   10.5648   -3.4431 C.ar      1 RES1    0.0000
     31 C9        -5.0424   10.7971   -2.6324 C.ar      1 RES1    0.0000
     32 C10       -5.1650   10.1651   -1.3946 C.ar      1 RES1    0.0000
     33 H7        -5.9414   10.3002   -0.8624 H         1 RES1    0.0000
     34 C11       -4.1510    9.3416   -0.9472 C.ar      1 RES1    0.0000
     35 C12       -2.9967    9.1251   -1.7117 C.ar      1 RES1    0.0000
     36 C13       -2.9238    9.7173   -2.9543 C.ar      1 RES1    0.0000
     37 H8        -2.1657    9.5452   -3.4990 H         1 RES1    0.0000
     38 C14       -0.6734    8.2998   -1.4257 C.2       1 RES1    0.0000
     39 C15        0.2030    7.4892   -0.5150 C.ar      1 RES1    0.0000
     40 C16       -0.1719    6.9044    0.7016 C.ar      1 RES1    0.0000
     41 C17        0.7633    6.2031    1.4604 C.ar      1 RES1    0.0000
     42 C18        2.0521    5.9616    0.9762 C.ar      1 RES1    0.0000
     43 C19        2.4376    6.5584   -0.2266 C.ar      1 RES1    0.0000
     44 H9         3.3214    6.4446   -0.5549 H         1 RES1    0.0000
     45 C20        1.5231    7.3143   -0.9352 C.ar      1 RES1    0.0000
     46 H10        1.8050    7.7316   -1.7424 H         1 RES1    0.0000
     47 C21        4.0558    4.5764    1.4031 C.2       1 RES1    0.0000
     48 C22        4.6515    3.5272    2.3026 C.ar      1 RES1    0.0000
     49 C23        4.1716    3.0414    3.5364 C.ar      1 RES1    0.0000
     50 C24        4.9111    2.1143    4.2578 C.ar      1 RES1    0.0000
     51 H11        4.5921    1.8311    5.1071 H         1 RES1    0.0000
     52 C25        6.0994    1.5878    3.7800 C.ar      1 RES1    0.0000
     53 C26        6.5340    2.0116    2.5076 C.ar      1 RES1    0.0000
     54 C27        5.8228    2.9683    1.8191 C.ar      1 RES1    0.0000
     55 H12        6.1493    3.2588    0.9755 H         1 RES1    0.0000
     56 C28       -7.6931   14.3696   -6.2151 C.3       1 RES1    0.0000
     57 H13       -8.3340   14.3178   -5.4747 H         1 RES1    0.0000
     58 H14       -8.0928   13.9810   -7.0227 H         1 RES1    0.0000
     59 H15       -7.4638   15.3069   -6.3830 H         1 RES1    0.0000
     60 C29       -2.2261   13.2195   -9.5572 C.3       1 RES1    0.0000
     61 H16       -2.3629   13.8117  -10.3238 H         1 RES1    0.0000
     62 H17       -2.1847   12.2896   -9.8643 H         1 RES1    0.0000
     63 H18       -1.3863   13.4526   -9.1115 H         1 RES1    0.0000
     64 C30       -7.1146   11.9777   -2.2167 C.3       1 RES1    0.0000
     65 H19       -6.7759   12.3858   -1.3819 H         1 RES1    0.0000
     66 H20       -7.6210   11.1589   -1.9828 H         1 RES1    0.0000
     67 C31       -8.0027   12.9493   -2.9505 C.3       1 RES1    0.0000
     68 H21       -8.4260   12.4857   -3.7181 H         1 RES1    0.0000
     69 H22       -7.4481   13.6867   -3.3117 H         1 RES1    0.0000
     70 C32       -9.0930   13.5331   -2.0552 C.3       1 RES1    0.0000
     71 H23       -9.6509   12.7929   -1.7106 H         1 RES1    0.0000
     72 H24       -8.6632   13.9717   -1.2794 H         1 RES1    0.0000
     73 C33       -9.9966   14.5445   -2.7483 C.3       1 RES1    0.0000
     74 H25       -9.4309   15.2468   -3.1562 H         1 RES1    0.0000
     75 H26      -10.5663   14.9784   -2.0640 H         1 RES1    0.0000
     76 C34      -10.8958   13.9560   -3.8305 C.3       1 RES1    0.0000
     77 H27      -10.3302   13.5072   -4.5063 H         1 RES1    0.0000
     78 H28      -11.4804   13.2694   -3.4248 H         1 RES1    0.0000
     79 C35      -11.7651   14.9951   -4.5246 C.3       1 RES1    0.0000
     80 H29      -11.1800   15.7085   -4.8809 H         1 RES1    0.0000
     81 H30      -12.3621   15.4078   -3.8524 H         1 RES1    0.0000
     82 C36      -12.6227   14.4482   -5.6691 C.3       1 RES1    0.0000
     83 H31      -13.1699   13.6969   -5.3262 H         1 RES1    0.0000
     84 H32      -13.2441   15.1579   -5.9695 H         1 RES1    0.0000
     85 C37      -11.8245   13.9653   -6.8566 C.3       1 RES1    0.0000
     86 H33      -12.4351   13.6599   -7.5599 H         1 RES1    0.0000
     87 H34      -11.2467   13.2232   -6.5809 H         1 RES1    0.0000
     88 H35      -11.2741   14.6999   -7.1994 H         1 RES1    0.0000
     89 C38       -5.2593    8.9687    1.1487 C.3       1 RES1    0.0000
     90 H36       -6.0987    8.6005    0.7740 H         1 RES1    0.0000
     91 H37       -5.3726    9.9449    1.2724 H         1 RES1    0.0000
     92 C39       -4.9412    8.3072    2.4655 C.3       1 RES1    0.0000
     93 H38       -4.7667    7.3458    2.3079 H         1 RES1    0.0000
     94 H39       -5.7299    8.3784    3.0607 H         1 RES1    0.0000
     95 C40       -3.7352    8.9215    3.1668 C.3       1 RES1    0.0000
     96 H40       -2.9320    8.7809    2.6048 H         1 RES1    0.0000
     97 H41       -3.8756    9.8977    3.2551 H         1 RES1    0.0000
     98 C41       -3.4853    8.3358    4.5402 C.3       1 RES1    0.0000
     99 H42       -3.2976    7.3680    4.4462 H         1 RES1    0.0000
    100 H43       -4.3059    8.4321    5.0859 H         1 RES1    0.0000
    101 C42       -2.3247    8.9965    5.2746 C.3       1 RES1    0.0000
    102 H44       -1.5136    8.9336    4.7113 H         1 RES1    0.0000
    103 H45       -2.5310    9.9569    5.3969 H         1 RES1    0.0000
    104 C43       -2.0275    8.3803    6.6325 C.3       1 RES1    0.0000
    105 H46       -1.7955    7.4263    6.5032 H         1 RES1    0.0000
    106 H47       -1.2340    8.8309    7.0156 H         1 RES1    0.0000
    107 C44       -3.1632    8.4663    7.6327 C.3       1 RES1    0.0000
    108 H48       -2.8689    8.0629    8.4859 H         1 RES1    0.0000
    109 H49       -3.9272    7.9352    7.2949 H         1 RES1    0.0000
    110 C45       -3.6299    9.8931    7.8950 C.3       1 RES1    0.0000
    111 H50       -4.3355    9.8857    8.5743 H         1 RES1    0.0000
    112 H51       -3.9800   10.2799    7.0651 H         1 RES1    0.0000
    113 H52       -2.8761   10.4307    8.2138 H         1 RES1    0.0000
    114 C46       -2.1749    5.8533    1.4625 C.3       1 RES1    0.0000
    115 H53       -3.0668    5.9024    1.0603 H         1 RES1    0.0000
    116 H54       -2.2572    5.7414    2.4316 H         1 RES1    0.0000
    117 H55       -1.6888    5.0890    1.0850 H         1 RES1    0.0000
    118 C47        0.0529    6.5852    3.7047 C.3       1 RES1    0.0000
    119 H56       -0.5852    6.1642    4.3189 H         1 RES1    0.0000
    120 H57       -0.3593    7.3745    3.2940 H         1 RES1    0.0000
    121 H58        0.8527    6.8563    4.2023 H         1 RES1    0.0000
    122 C48        2.4300    2.9230    5.1902 C.3       1 RES1    0.0000
    123 H59        3.0039    3.1663    5.9589 H         1 RES1    0.0000
    124 H60        2.4082    1.9357    5.1212 H         1 RES1    0.0000
    125 C49        1.0338    3.4522    5.4047 C.3       1 RES1    0.0000
    126 H61        1.0633    4.4515    5.3934 H         1 RES1    0.0000
    127 C50        0.5586    2.9905    6.7852 C.3       1 RES1    0.0000
    128 H62        1.1949    3.2921    7.4680 H         1 RES1    0.0000
    129 H63        0.5034    2.0125    6.8000 H         1 RES1    0.0000
    130 H64       -0.3241    3.3717    6.9697 H         1 RES1    0.0000
    131 C51        0.0730    2.9794    4.3228 C.3       1 RES1    0.0000
    132 H65        0.4227    3.2302    3.4424 H         1 RES1    0.0000
    133 H66       -0.8026    3.3976    4.4568 H         1 RES1    0.0000
    134 H67       -0.0199    2.0051    4.3720 H         1 RES1    0.0000
    135 C52        6.4310    0.2841    5.7701 C.3       1 RES1    0.0000
    136 H68        5.5485   -0.1628    5.7327 H         1 RES1    0.0000
    137 H69        6.3601    1.0696    6.3689 H         1 RES1    0.0000
    138 C53        7.4808   -0.6736    6.2854 C.3       1 RES1    0.0000
    139 H70        7.5121   -1.4647    5.6761 H         1 RES1    0.0000
    140 C54        8.8606   -0.0278    6.3067 C.3       1 RES1    0.0000
    141 H71        9.0871    0.2896    5.4075 H         1 RES1    0.0000
    142 H72        9.5253   -0.6875    6.5951 H         1 RES1    0.0000
    143 H73        8.8572    0.7282    6.9308 H         1 RES1    0.0000
    144 C55        7.0771   -1.1557    7.6776 C.3       1 RES1    0.0000
    145 H74        6.1714   -1.5295    7.6447 H         1 RES1    0.0000
    146 H75        7.0963   -0.4006    8.3021 H         1 RES1    0.0000
    147 H76        7.7046   -1.8450    7.9805 H         1 RES1    0.0000
@<TRIPOS>BOND
     1    1   20 1
     2    2   29 2
     3    3   31 1
     4    4   34 1
     5    5   38 2
     6    6   40 1
     7    7   41 1
     8    8   47 2
     9    9   49 1
    10   10   52 1
    11   11   19 2
    12   12   19 2
    13   13   14 1
    14   15   16 1
    15   17   18 1
    16   19   53 1
    17   20   21 ar
    18   21   22 1
    19   23   21 ar
    20   24   23 1
    21   25   23 ar
    22   26   25 ar
    23   27   26 1
    24   28   13 1
    25   29   13 1
    26   30   29 1
    27   31   30 ar
    28   32   31 ar
    29   33   32 1
    30   34   32 ar
    31   35   15 1
    32   36   30 ar
    33   37   36 1
    34   38   15 1
    35   39   38 1
    36   40   39 ar
    37   41   40 ar
    38   42   17 1
    39   43   42 ar
    40   44   43 1
    41   45   39 ar
    42   46   45 1
    43   47   17 1
    44   48   47 1
    45   49   48 ar
    46   50   49 ar
    47   51   50 1
    48   52   50 ar
    49   53   52 ar
    50   54   48 ar
    51   55   54 1
    52   56    1 1
    53   57   56 1
    54   58   56 1
    55   59   56 1
    56   60   25 1
    57   61   60 1
    58   62   60 1
    59   63   60 1
    60   64    3 1
    61   65   64 1
    62   66   64 1
    63   67   64 1
    64   68   67 1
    65   69   67 1
    66   70   67 1
    67   71   70 1
    68   72   70 1
    69   73   70 1
    70   74   73 1
    71   75   73 1
    72   76   73 1
    73   77   76 1
    74   78   76 1
    75   79   76 1
    76   80   79 1
    77   81   79 1
    78   82   79 1
    79   83   82 1
    80   84   82 1
    81   85   82 1
    82   86   85 1
    83   87   85 1
    84   88   85 1
    85   89    4 1
    86   90   89 1
    87   91   89 1
    88   92   89 1
    89   93   92 1
    90   94   92 1
    91   95   92 1
    92   96   95 1
    93   97   95 1
    94   98   95 1
    95   99   98 1
    96  100   98 1
    97  101   98 1
    98  102  101 1
    99  103  101 1
   100  104  101 1
   101  105  104 1
   102  106  104 1
   103  107  104 1
   104  108  107 1
   105  109  107 1
   106  110  107 1
   107  111  110 1
   108  112  110 1
   109  113  110 1
   110  114    6 1
   111  115  114 1
   112  116  114 1
   113  117  114 1
   114  118    7 1
   115  119  118 1
   116  120  118 1
   117  121  118 1
   118  122    9 1
   119  123  122 1
   120  124  122 1
   121  125  122 1
   122  126  125 1
   123  127  125 1
   124  128  127 1
   125  129  127 1
   126  130  127 1
   127  131  125 1
   128  132  131 1
   129  133  131 1
   130  134  131 1
   131  135   10 1
   132  136  135 1
   133  137  135 1
   134  138  135 1
   135  139  138 1
   136  140  138 1
   137  141  140 1
   138  142  140 1
   139  143  140 1
   140  144  138 1
   141  145  144 1
   142  146  144 1
   143  147  144 1
   144   20   28 ar
   145   26   28 ar
   146   34   35 ar
   147   35   36 ar
   148   41   42 ar
   149   43   45 ar
   150   53   54 ar
@<TRIPOS>SUBSTRUCTURE
     1 RES1 1

@<TRIPOS>CRYSIN
  16.1157    9.2528   35.6301  90.0000  97.2750  90.0000 231 1

