# MOL2 file generated by ConQuest
# Please check atom types

@<TRIPOS>MOLECULE
LUDYIU
    47    51     1
SMALL
NO_CHARGES
****
Generated from CSD

@<TRIPOS>ATOM
      1 O1         1.8680    3.1950    0.4615 O.3       1 RES1    0.0000
      2 O2         3.2756    1.6608    1.3806 O.2       1 RES1    0.0000
      3 O3         0.1000    8.1799    8.1836 O.2       1 RES1    0.0000
      4 O4         0.4362    9.8550    6.8609 O.2       1 RES1    0.0000
      5 N1         3.4173    6.1665   -0.9055 N.ar      1 RES1    0.0000
      6 N2         0.4110    8.6515    7.0937 N.pl3     1 RES1    0.0000
      7 C1         3.5516    4.1913    1.3355 C.3       1 RES1    0.0000
      8 H1         4.4215    4.3530    0.8688 H         1 RES1    0.0000
      9 C2         2.9850    2.7910    1.1432 C.2       1 RES1    0.0000
     10 C3         2.3040    4.6212    0.5287 C.3       1 RES1    0.0000
     11 C4         1.4151    5.4119    1.4691 C.3       1 RES1    0.0000
     12 H2         0.4646    5.1694    1.3394 H         1 RES1    0.0000
     13 H3         1.5204    6.3844    1.3157 H         1 RES1    0.0000
     14 C5         1.8853    5.0314    2.8840 C.3       1 RES1    0.0000
     15 H4         1.5077    4.1331    3.1118 H         1 RES1    0.0000
     16 C6         3.4261    4.8867    2.7054 C.3       1 RES1    0.0000
     17 H5         3.7776    5.8146    2.5771 H         1 RES1    0.0000
     18 C7         2.4929    5.1996   -0.8423 C.ar      1 RES1    0.0000
     19 C8         1.7356    4.7884   -1.9322 C.ar      1 RES1    0.0000
     20 H6         1.0797    4.1064   -1.8406 H         1 RES1    0.0000
     21 C9         1.9599    5.3965   -3.1540 C.ar      1 RES1    0.0000
     22 H7         1.4606    5.1379   -3.9193 H         1 RES1    0.0000
     23 C10        2.9190    6.3841   -3.2447 C.ar      1 RES1    0.0000
     24 H8         3.1004    6.8120   -4.0738 H         1 RES1    0.0000
     25 C11        3.6102    6.7353   -2.1003 C.ar      1 RES1    0.0000
     26 H9         4.2616    7.4231   -2.1664 H         1 RES1    0.0000
     27 C12        1.4984    6.0020    3.9761 C.ar      1 RES1    0.0000
     28 C13        1.4934    7.3841    3.7671 C.ar      1 RES1    0.0000
     29 H10        1.7455    7.7305    2.9196 H         1 RES1    0.0000
     30 C14        1.1276    8.2534    4.7764 C.ar      1 RES1    0.0000
     31 H11        1.1128    9.1908    4.6252 H         1 RES1    0.0000
     32 C15        0.7834    7.7308    6.0120 C.ar      1 RES1    0.0000
     33 C16        0.8064    6.3766    6.2636 C.ar      1 RES1    0.0000
     34 H12        0.5856    6.0381    7.1230 H         1 RES1    0.0000
     35 C17        1.1583    5.5197    5.2336 C.ar      1 RES1    0.0000
     36 H13        1.1672    4.5826    5.3909 H         1 RES1    0.0000
     37 C18        4.1646    4.3201    3.9004 C.ar      1 RES1    0.0000
     38 C19        4.7413    5.2087    4.8053 C.ar      1 RES1    0.0000
     39 H14        4.6876    6.1426    4.6405 H         1 RES1    0.0000
     40 C20        5.3923    4.7550    5.9424 C.ar      1 RES1    0.0000
     41 H15        5.7702    5.3772    6.5535 H         1 RES1    0.0000
     42 C21        5.4928    3.3998    6.1883 C.ar      1 RES1    0.0000
     43 H16        5.9467    3.0859    6.9614 H         1 RES1    0.0000
     44 C22        4.9286    2.5021    5.3006 C.ar      1 RES1    0.0000
     45 H17        4.9985    1.5697    5.4647 H         1 RES1    0.0000
     46 C23        4.2601    2.9553    4.1684 C.ar      1 RES1    0.0000
     47 H18        3.8648    2.3290    3.5726 H         1 RES1    0.0000
@<TRIPOS>BOND
     1    1    9 1
     2    2    9 2
     3    3    6 2
     4    4    6 2
     5    5   18 ar
     6    6   32 1
     7    7    8 1
     8    9    7 1
     9   10    1 1
    10   11   10 1
    11   12   11 1
    12   13   11 1
    13   14   11 1
    14   15   14 1
    15   16    7 1
    16   17   16 1
    17   18   10 1
    18   19   18 ar
    19   20   19 1
    20   21   19 ar
    21   22   21 1
    22   23   21 ar
    23   24   23 1
    24   25    5 ar
    25   26   25 1
    26   27   14 1
    27   28   27 ar
    28   29   28 1
    29   30   28 ar
    30   31   30 1
    31   32   30 ar
    32   33   32 ar
    33   34   33 1
    34   35   27 ar
    35   36   35 1
    36   37   16 1
    37   38   37 ar
    38   39   38 1
    39   40   38 ar
    40   41   40 1
    41   42   40 ar
    42   43   42 1
    43   44   42 ar
    44   45   44 1
    45   46   37 ar
    46   47   46 1
    47    7   10 1
    48   14   16 1
    49   23   25 ar
    50   33   35 ar
    51   44   46 ar
@<TRIPOS>SUBSTRUCTURE
     1 RES1 1

@<TRIPOS>CRYSIN
  10.8247   12.1491   14.0090  90.0000  96.3560  90.0000  14 1

