# MOL2 file generated by ConQuest
# Please check atom types

@<TRIPOS>MOLECULE
LUFMEF
    32    34     1
SMALL
NO_CHARGES
****
Generated from CSD

@<TRIPOS>ATOM
      1 O1         6.8560    4.9411   11.0481 O.2       1 RES1    0.0000
      2 O2        11.5652    6.5611    8.5741 O.3       1 RES1    0.0000
      3 O3         4.9571    0.8295    5.7749 O.2       1 RES1    0.0000
      4 O4         5.7405    1.9162    4.1904 O.2       1 RES1    0.0000
      5 N1         5.6264    1.7281    5.3682 N.pl3     1 RES1    0.0000
      6 C1         8.2550    5.1542    9.0713 C.2       1 RES1    0.0000
      7 C2         7.8274    5.4043   10.4847 C.2       1 RES1    0.0000
      8 C3         8.8922    6.2679   11.1504 C.3       1 RES1    0.0000
      9 H1         9.4141    5.7476   11.7810 H         1 RES1    0.0000
     10 H2         8.4885    7.0153   11.6171 H         1 RES1    0.0000
     11 C4         9.7610    6.7542    9.9974 C.3       1 RES1    0.0000
     12 H3         9.5082    7.6718    9.7648 H         1 RES1    0.0000
     13 C5         9.3885    5.8366    8.8738 C.2       1 RES1    0.0000
     14 C6        10.5565    5.7476    7.9330 C.3       1 RES1    0.0000
     15 H4        10.3169    6.1318    7.0639 H         1 RES1    0.0000
     16 C7        11.2778    6.6291    9.9726 C.3       1 RES1    0.0000
     17 H5        11.7002    7.4006   10.3808 H         1 RES1    0.0000
     18 H6        11.5712    5.8256   10.4305 H         1 RES1    0.0000
     19 C8        11.0480    4.3217    7.7545 C.3       1 RES1    0.0000
     20 H7        11.7939    4.3147    7.1488 H         1 RES1    0.0000
     21 H8        10.3411    3.7813    7.3960 H         1 RES1    0.0000
     22 H9        11.3223    3.9685    8.6031 H         1 RES1    0.0000
     23 C9         7.5625    4.2696    8.1247 C.ar      1 RES1    0.0000
     24 C10        6.6958    3.2620    8.5548 C.ar      1 RES1    0.0000
     25 H10        6.5441    3.1500    9.4663 H         1 RES1    0.0000
     26 C11        6.0558    2.4255    7.6535 C.ar      1 RES1    0.0000
     27 H11        5.4813    1.7571    7.9491 H         1 RES1    0.0000
     28 C12        6.2919    2.6096    6.3119 C.ar      1 RES1    0.0000
     29 C13        7.1224    3.5952    5.8422 C.ar      1 RES1    0.0000
     30 H12        7.2643    3.7023    4.9292 H         1 RES1    0.0000
     31 C14        7.7423    4.4217    6.7479 C.ar      1 RES1    0.0000
     32 H13        8.2967    5.1002    6.4362 H         1 RES1    0.0000
@<TRIPOS>BOND
     1    1    7 2
     2    2   14 1
     3    3    5 2
     4    4    5 2
     5    5   28 1
     6    6    7 1
     7    7    8 1
     8    8    9 1
     9   10    8 1
    10   11    8 1
    11   12   11 1
    12   13    6 2
    13   14   13 1
    14   15   14 1
    15   16    2 1
    16   17   16 1
    17   18   16 1
    18   19   14 1
    19   20   19 1
    20   21   19 1
    21   22   19 1
    22   23    6 1
    23   24   23 ar
    24   25   24 1
    25   26   24 ar
    26   27   26 1
    27   28   26 ar
    28   29   28 ar
    29   30   29 1
    30   31   23 ar
    31   32   31 1
    32   11   13 1
    33   11   16 1
    34   29   31 ar
@<TRIPOS>SUBSTRUCTURE
     1 RES1 1

@<TRIPOS>CRYSIN
  17.0920   10.0062   15.5480  90.0000 109.7750  90.0000  15 1

