# MOL2 file generated by ConQuest
# Please check atom types

@<TRIPOS>MOLECULE
LUFSAG
    75    52     3
SMALL
NO_CHARGES
****
Generated from CSD

@<TRIPOS>ATOM
      1 O1        10.2881    8.5269    4.1932 O.2       1 RES1    0.0000
      2 O2        10.4659    6.4267    4.6823 O.2       1 RES1    0.0000
      3 N1         8.3702    6.2631   -3.7629 N.3       1 RES1    0.0000
      4 N2        10.2188    7.3334    3.8867 N.pl3     1 RES1    0.0000
      5 C1         8.6491    6.6555   -2.5006 C.2       1 RES1    0.0000
      6 H1         8.6100    7.5872   -2.3172 H         1 RES1    0.0000
      7 C2         8.9787    5.8401   -1.4786 C.2       1 RES1    0.0000
      8 H2         9.0514    4.9095   -1.6569 H         1 RES1    0.0000
      9 C3         9.2293    6.2974   -0.1177 C.ar      1 RES1    0.0000
     10 C4         9.1901    7.6400    0.3190 C.ar      1 RES1    0.0000
     11 H3         8.9448    8.3211   -0.2966 H         1 RES1    0.0000
     12 C5         9.5018    7.9895    1.6294 C.ar      1 RES1    0.0000
     13 H4         9.4767    8.8983    1.9042 H         1 RES1    0.0000
     14 C6         9.8502    6.9883    2.5319 C.ar      1 RES1    0.0000
     15 C7         9.8599    5.6559    2.1388 C.ar      1 RES1    0.0000
     16 H5        10.0796    4.9742    2.7627 H         1 RES1    0.0000
     17 C8         9.5470    5.3335    0.8359 C.ar      1 RES1    0.0000
     18 H6         9.5492    4.4193    0.5787 H         1 RES1    0.0000
     19 C9         8.0874    7.2277   -4.7881 C.3       1 RES1    0.0000
     20 H7         8.0329    8.1209   -4.3895 H         1 RES1    0.0000
     21 H8         7.2336    7.0090   -5.2155 H         1 RES1    0.0000
     22 H9         8.8027    7.2113   -5.4581 H         1 RES1    0.0000
     23 C10        8.4874    4.8772   -4.1722 C.3       1 RES1    0.0000
     24 H10        8.6745    4.3202   -3.3882 H         1 RES1    0.0000
     25 H11        9.2193    4.7888   -4.8181 H         1 RES1    0.0000
     26 H12        7.6482    4.5866   -4.5864 H         1 RES1    0.0000
     27 O3         2.8576    6.2773   -4.2574 O.2       2 RES2    0.0000
     28 O4         4.9068    5.5446   -4.4327 O.2       2 RES2    0.0000
     29 N3         3.9600    5.9968   -3.7568 N.pl3     2 RES2    0.0000
     30 N4         5.8438    7.0070    3.9045 N.3       2 RES2    0.0000
     31 C11        5.7077    6.7068    2.5850 C.2       2 RES2    0.0000
     32 H13        6.4314    6.2499    2.1719 H         2 RES2    0.0000
     33 C12        4.6403    6.9978    1.8045 C.2       2 RES2    0.0000
     34 H14        3.9009    7.4241    2.2212 H         2 RES2    0.0000
     35 C13        4.5284    6.7126    0.3854 C.ar      2 RES2    0.0000
     36 C14        3.3337    7.0797   -0.2821 C.ar      2 RES2    0.0000
     37 H15        2.6278    7.4746    0.2161 H         2 RES2    0.0000
     38 C15        5.3610    5.8355   -1.7517 C.ar      2 RES2    0.0000
     39 H16        6.0387    5.4087   -2.2632 H         2 RES2    0.0000
     40 C16        5.5191    6.0681   -0.3854 C.ar      2 RES2    0.0000
     41 H17        6.3202    5.7847    0.0396 H         2 RES2    0.0000
     42 C17        4.7485    7.6390    4.6404 C.3       2 RES2    0.0000
     43 H18        4.1159    8.0378    4.0077 H         2 RES2    0.0000
     44 H19        5.1090    8.3385    5.2251 H         2 RES2    0.0000
     45 H20        4.2875    6.9653    5.1831 H         2 RES2    0.0000
     46 C18        6.8809    6.3573    4.7101 C.3       2 RES2    0.0000
     47 H21        7.5704    5.9876    4.1182 H         2 RES2    0.0000
     48 H22        6.4808    5.6343    5.2360 H         2 RES2    0.0000
     49 H23        7.2863    7.0157    5.3128 H         2 RES2    0.0000
     50 O5         2.4479    6.6586   -4.0485 Du        3 SUP3    0.0000
     51 O6         4.2986    5.6082   -4.5672 Du        3 SUP3    0.0000
     52 C19        4.8300    7.1264    2.6894 Du        3 SUP3    0.0000
     53 H24        3.9785    7.5099    2.5165 Du        3 SUP3    0.0000
     54 C20        5.4334    6.5158    1.6425 Du        3 SUP3    0.0000
     55 H25        6.2694    6.1015    1.8214 Du        3 SUP3    0.0000
     56 C21        4.9425    6.4228    0.2653 Du        3 SUP3    0.0000
     57 C22        3.6799    6.9918   -0.0912 Du        3 SUP3    0.0000
     58 H26        3.1452    7.4288    0.5643 Du        3 SUP3    0.0000
     59 C23        5.2096    5.7618   -2.0291 Du        3 SUP3    0.0000
     60 H27        5.7357    5.3308   -2.6930 Du        3 SUP3    0.0000
     61 C24        5.6879    5.8037   -0.7324 Du        3 SUP3    0.0000
     62 H28        6.5234    5.4115   -0.5223 Du        3 SUP3    0.0000
     63 C25        4.3939    7.6215    5.0354 Du        3 SUP3    0.0000
     64 H29        3.5901    8.0421    4.6669 Du        3 SUP3    0.0000
     65 H30        4.8476    8.2512    5.6346 Du        3 SUP3    0.0000
     66 H31        4.1421    6.8179    5.5373 Du        3 SUP3    0.0000
     67 C26        6.5460    6.6066    4.3331 Du        3 SUP3    0.0000
     68 H32        7.0504    6.3625    3.5287 Du        3 SUP3    0.0000
     69 H33        6.3493    5.7991    4.8518 Du        3 SUP3    0.0000
     70 H34        7.0773    7.2242    4.8770 Du        3 SUP3    0.0000
     71 N5         5.2950    7.2521    3.9453 Du        3 SUP3    0.0000
     72 N6         3.5639    6.2117   -3.7964 Du        3 SUP3    0.0000
     73 C27        3.1814    6.8902   -1.5536 C.ar      2 RES2    0.0000
     74 H35        2.3797    7.1991   -1.9594 H         2 RES2    0.0000
     75 C28        4.1181    6.2646   -2.3554 C.ar      2 RES2    0.0000
@<TRIPOS>BOND
     1    1    4 2
     2    2    4 2
     3    3    5 1
     4    4   14 1
     5    5    6 1
     6    7    5 2
     7    8    7 1
     8    9    7 1
     9   10    9 ar
    10   11   10 1
    11   12   10 ar
    12   13   12 1
    13   14   12 ar
    14   15   14 ar
    15   16   15 1
    16   17    9 ar
    17   18   17 1
    18   19    3 1
    19   20   19 1
    20   21   19 1
    21   22   19 1
    22   23    3 1
    23   24   23 1
    24   25   23 1
    25   26   23 1
    26   27   29 2
    27   28   29 2
    28   29   75 1
    29   30   31 1
    30   31   32 1
    31   33   31 2
    32   34   33 1
    33   35   33 1
    34   36   35 ar
    35   37   36 1
    36   38   39 1
    37   40   35 ar
    38   41   40 1
    39   42   30 1
    40   43   42 1
    41   44   42 1
    42   45   42 1
    43   46   30 1
    44   47   46 1
    45   48   46 1
    46   49   46 1
    47   73   36 ar
    48   74   73 1
    49   75   38 ar
    50   15   17 ar
    51   38   40 ar
    52   73   75 ar
@<TRIPOS>SUBSTRUCTURE
     1 RES1 1
     2 RES2 27
     3 SUP3 50

@<TRIPOS>CRYSIN
   9.2340    9.2540   12.7060  73.1990  76.0440  70.4940   2 1

