# MOL2 file generated by ConQuest
# Please check atom types

@<TRIPOS>MOLECULE
LUFTIQ
    68    71     1
SMALL
NO_CHARGES
****
Generated from CSD

@<TRIPOS>ATOM
      1 O1         5.1167    3.2188    4.8680 O.3       1 RES1    0.0000
      2 O2        -0.2745    3.7954    1.4940 O.2       1 RES1    0.0000
      3 O3        -1.0378    1.6960    1.6119 O.3       1 RES1    0.0000
      4 O4         3.9003    4.0516   -5.5421 O.2       1 RES1    0.0000
      5 O5         3.4182    2.6007   -3.9005 O.3       1 RES1    0.0000
      6 O6        -0.4728   -0.1422   -4.1360 O.2       1 RES1    0.0000
      7 O7        -1.3936   -0.5823   -6.0304 O.2       1 RES1    0.0000
      8 N1         4.7477    3.9049    2.6898 N.ar      1 RES1    0.0000
      9 N2        -0.5817    0.0134   -5.3396 N.pl3     1 RES1    0.0000
     10 C1         4.4051    3.1375    3.7144 C.ar      1 RES1    0.0000
     11 C2         3.3419    2.2549    3.6888 C.ar      1 RES1    0.0000
     12 C3         2.5965    2.1772    2.5419 C.ar      1 RES1    0.0000
     13 C4         2.9002    2.9736    1.4328 C.ar      1 RES1    0.0000
     14 C5         2.1014    2.9359    0.1413 C.3       1 RES1    0.0000
     15 C6         2.9386    2.4819   -1.0713 C.3       1 RES1    0.0000
     16 C7         3.8041    3.5724   -1.7076 C.3       1 RES1    0.0000
     17 C8         4.4549    3.1356   -3.0135 C.3       1 RES1    0.0000
     18 C9         5.5175    2.0782   -2.8367 C.3       1 RES1    0.0000
     19 C10        6.6044    2.5442   -1.8633 C.3       1 RES1    0.0000
     20 C11        5.9930    3.0551   -0.5651 C.3       1 RES1    0.0000
     21 C12        4.9264    4.1207   -0.8132 C.3       1 RES1    0.0000
     22 C13        4.4148    4.7739    0.4772 C.3       1 RES1    0.0000
     23 C14        3.9966    3.8307    1.5674 C.ar      1 RES1    0.0000
     24 C15        6.2356    4.1049    4.8946 C.3       1 RES1    0.0000
     25 C16        0.8390    2.0768    0.2414 C.3       1 RES1    0.0000
     26 C17       -0.1907    2.6300    1.1903 C.2       1 RES1    0.0000
     27 C18       -2.0828    2.1476    2.5252 C.3       1 RES1    0.0000
     28 C19       -3.0857    1.0595    2.6531 C.3       1 RES1    0.0000
     29 C20        3.2506    3.1442   -5.1060 C.2       1 RES1    0.0000
     30 C21        2.1420    2.4759   -5.8524 C.ar      1 RES1    0.0000
     31 C22        1.3171    1.5495   -5.2462 C.ar      1 RES1    0.0000
     32 C23        0.3133    0.9695   -5.9993 C.ar      1 RES1    0.0000
     33 C24        0.1063    1.2703   -7.3286 C.ar      1 RES1    0.0000
     34 C25        0.9239    2.2079   -7.9160 C.ar      1 RES1    0.0000
     35 C26        1.9340    2.8157   -7.1862 C.ar      1 RES1    0.0000
     36 C27        7.6247    1.4420   -1.6219 C.3       1 RES1    0.0000
     37 H1         3.1344    1.7181    4.4441 H         1 RES1    0.0000
     38 H2         1.8639    1.5746    2.4996 H         1 RES1    0.0000
     39 H3         1.8171    3.8247   -0.0356 H         1 RES1    0.0000
     40 H4         3.5120    1.7798   -0.7865 H         1 RES1    0.0000
     41 H5         2.3422    2.1536   -1.7343 H         1 RES1    0.0000
     42 H6         3.2287    4.3001   -1.9134 H         1 RES1    0.0000
     43 H7         4.8478    3.8952   -3.4274 H         1 RES1    0.0000
     44 H8         5.1152    1.2881   -2.4974 H         1 RES1    0.0000
     45 H9         5.9144    1.8944   -3.6799 H         1 RES1    0.0000
     46 H10        7.0614    3.2725   -2.2693 H         1 RES1    0.0000
     47 H11        5.5956    2.3249   -0.1057 H         1 RES1    0.0000
     48 H12        6.6816    3.4300   -0.0289 H         1 RES1    0.0000
     49 H13        5.3503    4.8104   -1.3104 H         1 RES1    0.0000
     50 H14        5.1080    5.3255    0.8187 H         1 RES1    0.0000
     51 H15        3.6636    5.3115    0.2536 H         1 RES1    0.0000
     52 H16        6.8873    3.8114    4.2684 H         1 RES1    0.0000
     53 H17        5.9500    4.9818    4.6677 H         1 RES1    0.0000
     54 H18        6.6138    4.1098    5.7657 H         1 RES1    0.0000
     55 H19        0.4491    2.0135   -0.6230 H         1 RES1    0.0000
     56 H20        1.0882    1.2098    0.5395 H         1 RES1    0.0000
     57 H21       -1.7061    2.3395    3.3762 H         1 RES1    0.0000
     58 H22       -2.4974    2.9288    2.1792 H         1 RES1    0.0000
     59 H23       -2.6776    0.2948    3.0414 H         1 RES1    0.0000
     60 H24       -3.8016    1.3519    3.2060 H         1 RES1    0.0000
     61 H25       -3.4224    0.8355    1.7932 H         1 RES1    0.0000
     62 H26        1.4360    1.3157   -4.3329 H         1 RES1    0.0000
     63 H27       -0.5819    0.8427   -7.8248 H         1 RES1    0.0000
     64 H28        0.7951    2.4399   -8.8282 H         1 RES1    0.0000
     65 H29        2.4871    3.4694   -7.5978 H         1 RES1    0.0000
     66 H30        7.1946    0.6934   -1.2248 H         1 RES1    0.0000
     67 H31        8.0100    1.1803   -2.4507 H         1 RES1    0.0000
     68 H32        8.3055    1.7601   -1.0423 H         1 RES1    0.0000
@<TRIPOS>BOND
     1    1   10 1
     2    2   26 2
     3    3   26 1
     4    4   29 2
     5    5   17 1
     6    6    9 2
     7    7    9 2
     8    8   10 ar
     9    9   32 1
    10   10   11 ar
    11   11   12 ar
    12   12   13 ar
    13   13   14 1
    14   14   15 1
    15   15   16 1
    16   16   17 1
    17   17   18 1
    18   18   19 1
    19   19   20 1
    20   20   21 1
    21   21   16 1
    22   22   21 1
    23   23    8 ar
    24   24    1 1
    25   25   14 1
    26   26   25 1
    27   27    3 1
    28   28   27 1
    29   29    5 1
    30   30   29 1
    31   31   30 ar
    32   32   31 ar
    33   33   32 ar
    34   34   33 ar
    35   35   30 ar
    36   36   19 1
    37   37   11 1
    38   38   12 1
    39   39   14 1
    40   40   15 1
    41   41   15 1
    42   42   16 1
    43   43   17 1
    44   44   18 1
    45   45   18 1
    46   46   19 1
    47   47   20 1
    48   48   20 1
    49   49   21 1
    50   50   22 1
    51   51   22 1
    52   52   24 1
    53   53   24 1
    54   54   24 1
    55   55   25 1
    56   56   25 1
    57   57   27 1
    58   58   27 1
    59   59   28 1
    60   60   28 1
    61   61   28 1
    62   62   31 1
    63   63   33 1
    64   64   34 1
    65   65   35 1
    66   66   36 1
    67   67   36 1
    68   68   36 1
    69   13   23 ar
    70   22   23 1
    71   34   35 ar
@<TRIPOS>SUBSTRUCTURE
     1 RES1 1

@<TRIPOS>CRYSIN
  10.5537   10.9345   11.9132  69.1270  83.6910  77.4910   2 1

