# MOL2 file generated by ConQuest
# Please check atom types

@<TRIPOS>MOLECULE
LUFVAJ
    57    58     1
SMALL
NO_CHARGES
****
Generated from CSD

@<TRIPOS>ATOM
      1 C1         0.0883    6.2329    1.7024 C.3       1 RES1    0.0000
      2 H1        -0.6828    6.4786    1.2029 H         1 RES1    0.0000
      3 C2         1.2152    5.9332    0.6996 C.3       1 RES1    0.0000
      4 H2         2.0483    5.7061    1.1913 H         1 RES1    0.0000
      5 C3         1.5566    7.2036   -0.0719 C.3       1 RES1    0.0000
      6 H3         0.9020    7.4570   -0.5840 H         1 RES1    0.0000
      7 H4         1.8917    8.0088    0.5212 H         1 RES1    0.0000
      8 C4         0.7849    4.8391   -0.2743 C.3       1 RES1    0.0000
      9 H5        -0.0940    5.0708   -0.7027 H         1 RES1    0.0000
     10 H6         0.6389    3.9716    0.2001 H         1 RES1    0.0000
     11 H7         1.4532    4.6830   -0.9865 H         1 RES1    0.0000
     12 C5        -0.2449    5.0603    2.6138 C.ar      1 RES1    0.0000
     13 C6         0.6746    4.0954    2.9888 C.ar      1 RES1    0.0000
     14 H8         1.7163    4.1759    2.6850 H         1 RES1    0.0000
     15 C7         0.3132    3.0842    3.8686 C.ar      1 RES1    0.0000
     16 H9         0.9646    2.5205    4.1508 H         1 RES1    0.0000
     17 C8        -0.9546    3.0350    4.3851 C.ar      1 RES1    0.0000
     18 H10       -1.1463    2.3117    5.0489 H         1 RES1    0.0000
     19 C9        -1.8829    3.9761    4.0275 C.ar      1 RES1    0.0000
     20 H11       -2.8813    4.0268    4.5370 H         1 RES1    0.0000
     21 C10       -1.5227    4.9811    3.1256 C.ar      1 RES1    0.0000
     22 H12       -2.2675    5.6524    2.9572 H         1 RES1    0.0000
     23 C11        1.2878    7.4464    3.6108 C.ar      1 RES1    0.0000
     24 C12        2.5337    8.0005    3.4544 C.ar      1 RES1    0.0000
     25 H13        2.8500    8.3668    2.5268 H         1 RES1    0.0000
     26 C13        3.4063    8.0771    4.5331 C.ar      1 RES1    0.0000
     27 H14        4.3095    8.5159    4.4067 H         1 RES1    0.0000
     28 C14        3.0285    7.5733    5.7648 C.ar      1 RES1    0.0000
     29 C15        1.7795    7.0260    5.9323 C.ar      1 RES1    0.0000
     30 H15        1.3592    6.7262    6.8078 H         1 RES1    0.0000
     31 C16        0.9051    6.9578    4.8560 C.ar      1 RES1    0.0000
     32 H16        0.0063    6.5771    4.9954 H         1 RES1    0.0000
     33 C17        3.5622    7.4078    8.0875 C.3       1 RES1    0.0000
     34 H17        2.8500    7.9492    8.2853 H         1 RES1    0.0000
     35 H18        4.2656    7.5912    8.6343 H         1 RES1    0.0000
     36 H19        3.3323    6.5323    8.1340 H         1 RES1    0.0000
     37 C18       -0.2944    8.6027    2.1454 C.2       1 RES1    0.0000
     38 C19       -0.2430   11.0080    2.6333 C.3       1 RES1    0.0000
     39 C20        0.3808   11.7373    3.8111 C.3       1 RES1    0.0000
     40 H20       -0.0438   11.3943    4.6603 H         1 RES1    0.0000
     41 H21        0.2192   12.7216    3.6831 H         1 RES1    0.0000
     42 H22        1.3780   11.5285    3.8088 H         1 RES1    0.0000
     43 C21       -1.7025   11.2809    2.5191 C.3       1 RES1    0.0000
     44 H23       -2.1297   10.7679    1.8334 H         1 RES1    0.0000
     45 H24       -1.8979   12.2011    2.3243 H         1 RES1    0.0000
     46 H25       -2.1861   11.0960    3.3248 H         1 RES1    0.0000
     47 C22        0.4898   11.3093    1.3502 C.3       1 RES1    0.0000
     48 H26        1.4281   11.1109    1.4123 H         1 RES1    0.0000
     49 H27        0.4071   12.2340    1.1121 H         1 RES1    0.0000
     50 H28        0.1378   10.7828    0.6235 H         1 RES1    0.0000
     51 N1         0.3445    7.4492    2.5163 N.am      1 RES1    0.0000
     52 N2         2.7072    6.9966   -1.0016 N.pl3     1 RES1    0.0000
     53 O1         3.6599    6.3056   -0.6401 O.2       1 RES1    0.0000
     54 O2         2.6609    7.5560   -2.0861 O.2       1 RES1    0.0000
     55 O3         3.9712    7.7122    6.7566 O.3       1 RES1    0.0000
     56 O4        -1.0291    8.6993    1.1736 O.2       1 RES1    0.0000
     57 O5        -0.0088    9.5936    2.9970 O.3       1 RES1    0.0000
@<TRIPOS>BOND
     1    1    2 1
     2    3    1 1
     3    4    3 1
     4    5    3 1
     5    6    5 1
     6    7    5 1
     7    8    3 1
     8    9    8 1
     9   10    8 1
    10   11    8 1
    11   12    1 1
    12   13   12 ar
    13   14   13 1
    14   15   13 ar
    15   16   15 1
    16   17   15 ar
    17   18   17 1
    18   19   17 ar
    19   20   19 1
    20   21   12 ar
    21   22   21 1
    22   23   24 ar
    23   24   25 1
    24   26   24 ar
    25   27   26 1
    26   28   26 ar
    27   29   28 ar
    28   30   29 1
    29   31   23 ar
    30   32   31 1
    31   33   34 1
    32   35   33 1
    33   36   33 1
    34   37   51 1
    35   38   39 1
    36   39   40 1
    37   41   39 1
    38   42   39 1
    39   43   38 1
    40   44   43 1
    41   45   43 1
    42   46   43 1
    43   47   38 1
    44   48   47 1
    45   49   47 1
    46   50   47 1
    47   51    1 1
    48   52    5 1
    49   53   52 2
    50   54   52 2
    51   55   28 1
    52   56   37 2
    53   57   37 1
    54   19   21 ar
    55   23   51 1
    56   29   31 ar
    57   33   55 1
    58   38   57 1
@<TRIPOS>SUBSTRUCTURE
     1 RES1 1

@<TRIPOS>CRYSIN
   6.2638   14.9140   23.2667  90.0000  90.0000  90.0000  19 1

