# MOL2 file generated by ConQuest
# Please check atom types

@<TRIPOS>MOLECULE
LUFXIV
    38    39     1
SMALL
NO_CHARGES
****
Generated from CSD

@<TRIPOS>ATOM
      1 O1         2.1305    0.5642   13.2049 O.2       1 RES1    0.0000
      2 O2         0.4529   -0.4360   12.3261 O.2       1 RES1    0.0000
      3 N1         1.4370    0.2544   12.2491 N.pl3     1 RES1    0.0000
      4 N2         2.6949    2.0316    7.1555 N.pl3     1 RES1    0.0000
      5 N3         3.7667    2.8162    6.8808 N.2       1 RES1    0.0000
      6 N4         3.7266    3.0887    5.6175 N.2       1 RES1    0.0000
      7 C1         2.4263    1.5962    8.4799 C.ar      1 RES1    0.0000
      8 C2         1.3746    0.8317    8.6163 C.ar      1 RES1    0.0000
      9 H1         0.8534    0.5929    7.8847 H         1 RES1    0.0000
     10 C3         1.0810    0.4145    9.8266 C.ar      1 RES1    0.0000
     11 H2         0.3347   -0.1277    9.9453 H         1 RES1    0.0000
     12 C4         1.8444    0.7530   10.9302 C.ar      1 RES1    0.0000
     13 C5         2.9633    1.5407   10.7925 C.ar      1 RES1    0.0000
     14 H3         3.4929    1.7638   11.5236 H         1 RES1    0.0000
     15 C6         3.2650    1.9865    9.5240 C.ar      1 RES1    0.0000
     16 H4         4.0042    2.5295    9.3683 H         1 RES1    0.0000
     17 C7         1.9752    1.8183    6.0203 C.2       1 RES1    0.0000
     18 H5         1.1939    1.3215    5.9328 H         1 RES1    0.0000
     19 C8         2.6388    2.4805    5.0463 C.2       1 RES1    0.0000
     20 C9         2.3157    2.6139    3.5986 C.3       1 RES1    0.0000
     21 H6         2.1991    3.5537    3.3917 H         1 RES1    0.0000
     22 H7         1.4716    2.1685    3.4267 H         1 RES1    0.0000
     23 C10        3.3612    2.0411    2.6712 C.3       1 RES1    0.0000
     24 H8         3.4552    1.0927    2.8515 H         1 RES1    0.0000
     25 H9         4.2140    2.4634    2.8603 H         1 RES1    0.0000
     26 C11        3.0342    2.2321    1.2025 C.3       1 RES1    0.0000
     27 H10        2.1813    1.8064    1.0207 H         1 RES1    0.0000
     28 H11        2.9277    3.1807    1.0329 H         1 RES1    0.0000
     29 C12        4.0474    1.6906    0.2392 C.3       1 RES1    0.0000
     30 H12        4.9132    2.0684    0.4595 H         1 RES1    0.0000
     31 H13        4.1081    0.7305    0.3630 H         1 RES1    0.0000
     32 C13        3.7619    1.9649   -1.2053 C.3       1 RES1    0.0000
     33 H14        2.9167    1.5488   -1.4363 H         1 RES1    0.0000
     34 H15        3.6576    2.9225   -1.3223 H         1 RES1    0.0000
     35 C14        4.8068    1.4812   -2.1588 C.3       1 RES1    0.0000
     36 H16        5.6622    1.8327   -1.9010 H         1 RES1    0.0000
     37 H17        4.5931    1.7787   -3.0462 H         1 RES1    0.0000
     38 H18        4.8365    0.5218   -2.1413 H         1 RES1    0.0000
@<TRIPOS>BOND
     1    1    3 2
     2    2    3 2
     3    3   12 1
     4    4    5 1
     5    5    6 2
     6    6   19 1
     7    7    4 1
     8    8    7 ar
     9    9    8 1
    10   10    8 ar
    11   11   10 1
    12   12   10 ar
    13   13   12 ar
    14   14   13 1
    15   15    7 ar
    16   16   15 1
    17   17    4 1
    18   18   17 1
    19   19   17 2
    20   20   19 1
    21   21   20 1
    22   22   20 1
    23   23   20 1
    24   24   23 1
    25   25   23 1
    26   26   23 1
    27   27   26 1
    28   28   26 1
    29   29   26 1
    30   30   29 1
    31   31   29 1
    32   32   29 1
    33   33   32 1
    34   34   32 1
    35   35   32 1
    36   36   35 1
    37   37   35 1
    38   38   35 1
    39   13   15 ar
@<TRIPOS>SUBSTRUCTURE
     1 RES1 1

@<TRIPOS>CRYSIN
   5.3679    7.5499   17.5534  92.3600  90.3590  98.8640   2 1

