# MOL2 file generated by ConQuest
# Please check atom types

@<TRIPOS>MOLECULE
LUGHEA
    94    96     2
SMALL
NO_CHARGES
****
Generated from CSD

@<TRIPOS>ATOM
      1 C1        20.5797    3.5066   16.5290 C.3       1 RES1    0.0000
      2 H1        21.1473    2.7023   16.6368 H         1 RES1    0.0000
      3 H2        19.8055    3.2538   15.9664 H         1 RES1    0.0000
      4 C2        20.0644    3.9329   17.9056 C.3       1 RES1    0.0000
      5 C3        19.9887    6.3909   16.9291 C.3       1 RES1    0.0000
      6 C4        20.4921    5.7818   15.6116 C.3       1 RES1    0.0000
      7 H3        19.7106    5.5213   15.0612 H         1 RES1    0.0000
      8 H4        20.9972    6.4726   15.1130 H         1 RES1    0.0000
      9 C5        21.3808    4.5723   15.8052 C.3       1 RES1    0.0000
     10 H5        22.1767    4.8243   16.3534 H         1 RES1    0.0000
     11 C6        23.0075    4.3871   13.9608 C.2       1 RES1    0.0000
     12 C7        23.2345    3.8706   12.5677 C.ar      1 RES1    0.0000
     13 C8        24.5607    3.7967   12.1240 C.ar      1 RES1    0.0000
     14 H6        25.2677    4.0293   12.7115 H         1 RES1    0.0000
     15 C9        24.8477    3.3837   10.8239 C.ar      1 RES1    0.0000
     16 C10       23.8132    3.0197    9.9748 C.ar      1 RES1    0.0000
     17 H7        24.0117    2.7077    9.1001 H         1 RES1    0.0000
     18 C11       22.4824    3.1060   10.3954 C.ar      1 RES1    0.0000
     19 C12       22.2205    3.5190   11.7003 C.ar      1 RES1    0.0000
     20 H8        21.3189    3.5595   12.0014 H         1 RES1    0.0000
     21 C13       21.1801    3.9461   18.9616 C.3       1 RES1    0.0000
     22 H9        20.8134    4.2378   19.8216 H         1 RES1    0.0000
     23 H10       21.8856    4.5653   18.6818 H         1 RES1    0.0000
     24 H11       21.5517    3.0445   19.0536 H         1 RES1    0.0000
     25 C14       18.9557    2.9862   18.3612 C.3       1 RES1    0.0000
     26 H12       18.2431    2.9706   17.6883 H         1 RES1    0.0000
     27 H13       18.5924    3.2973   19.2151 H         1 RES1    0.0000
     28 H14       19.3215    2.0839   18.4715 H         1 RES1    0.0000
     29 C15       21.0956    7.1610   17.6526 C.3       1 RES1    0.0000
     30 H15       21.8428    6.5558   17.8467 H         1 RES1    0.0000
     31 H16       20.7430    7.5266   18.4928 H         1 RES1    0.0000
     32 H17       21.4108    7.8945   17.0818 H         1 RES1    0.0000
     33 C16       18.8292    7.3337   16.6304 C.3       1 RES1    0.0000
     34 H18       18.5005    7.7241   17.4688 H         1 RES1    0.0000
     35 H19       18.1053    6.8343   16.1980 H         1 RES1    0.0000
     36 H20       19.1346    8.0485   16.0334 H         1 RES1    0.0000
     37 C17       26.2104    3.3642   10.3240 C.1       1 RES1    0.0000
     38 C18       27.2805    3.3736    9.8739 C.1       1 RES1    0.0000
     39 H21       28.1566    3.3806    9.5055 H         1 RES1    0.0000
     40 C19       21.4185    2.7451    9.4887 C.1       1 RES1    0.0000
     41 C20       20.5699    2.4394    8.7369 C.1       1 RES1    0.0000
     42 H22       19.8821    2.1928    8.1279 H         1 RES1    0.0000
     43 N1        21.8170    4.0737   14.5096 N.am      1 RES1    0.0000
     44 H23       21.4996    3.3915   14.2689 H         1 RES1    0.0000
     45 N2        19.4768    5.3019   17.8096 N.3       1 RES1    0.0000
     46 O1        23.8264    5.0841   14.5230 O.2       1 RES1    0.0000
     47 O2        18.7826    5.6714   18.8250 O.2       1 RES1    0.0000
     48 C21       30.7811    7.1719    4.0381 C.3       2 RES2    0.0000
     49 H24       30.8004    7.3741    5.0072 H         2 RES2    0.0000
     50 H25       29.9212    7.5040    3.6785 H         2 RES2    0.0000
     51 C22       31.9306    7.9311    3.3502 C.3       2 RES2    0.0000
     52 C23       31.9443    5.9693    1.5707 C.3       2 RES2    0.0000
     53 C24       30.7879    5.3750    2.3655 C.3       2 RES2    0.0000
     54 H26       29.9365    5.7235    1.9992 H         2 RES2    0.0000
     55 H27       30.7882    4.3934    2.2430 H         2 RES2    0.0000
     56 C25       30.8393    5.6815    3.8534 C.3       2 RES2    0.0000
     57 H28       31.7072    5.3470    4.2209 H         2 RES2    0.0000
     58 C26       29.9577    4.1087    5.5232 C.2       2 RES2    0.0000
     59 C27       28.7938    3.2592    5.9654 C.ar      2 RES2    0.0000
     60 C28       29.1146    2.0084    6.4682 C.ar      2 RES2    0.0000
     61 H29       30.0284    1.7517    6.5280 H         2 RES2    0.0000
     62 C29       28.1238    1.1162    6.8894 C.ar      2 RES2    0.0000
     63 C30       26.7931    1.5409    6.8416 C.ar      2 RES2    0.0000
     64 H30       26.1071    0.9607    7.1527 H         2 RES2    0.0000
     65 C31       26.4524    2.7910    6.3506 C.ar      2 RES2    0.0000
     66 C32       27.4683    3.6637    5.8995 C.ar      2 RES2    0.0000
     67 H31       27.2468    4.5201    5.5527 H         2 RES2    0.0000
     68 C33       33.2515    7.7732    4.1112 C.3       2 RES2    0.0000
     69 H32       33.9620    8.2562    3.6388 H         2 RES2    0.0000
     70 H33       33.4841    6.8234    4.1661 H         2 RES2    0.0000
     71 H34       33.1532    8.1395    5.0133 H         2 RES2    0.0000
     72 C34       31.5669    9.4090    3.2457 C.3       2 RES2    0.0000
     73 H35       32.2954    9.8936    2.8007 H         2 RES2    0.0000
     74 H36       31.4315    9.7754    4.1447 H         2 RES2    0.0000
     75 H37       30.7422    9.5062    2.7246 H         2 RES2    0.0000
     76 C35       33.2577    5.2241    1.8289 C.3       2 RES2    0.0000
     77 H38       33.9742    5.6348    1.3013 H         2 RES2    0.0000
     78 H39       33.1563    4.2852    1.5665 H         2 RES2    0.0000
     79 H40       33.4810    5.2754    2.7825 H         2 RES2    0.0000
     80 C36       31.6058    5.9281    0.0838 C.3       2 RES2    0.0000
     81 H41       30.7637    6.4057   -0.0731 H         2 RES2    0.0000
     82 H42       31.5112    4.9954   -0.2042 H         2 RES2    0.0000
     83 H43       32.3261    6.3551   -0.4267 H         2 RES2    0.0000
     84 C37       28.4958   -0.1828    7.3636 C.1       2 RES2    0.0000
     85 C38       28.8732   -1.2352    7.7424 C.1       2 RES2    0.0000
     86 H44       29.1768   -2.0823    8.0487 H         2 RES2    0.0000
     87 C39       25.0772    3.2165    6.2973 C.1       2 RES2    0.0000
     88 C40       23.9587    3.5603    6.2677 C.1       2 RES2    0.0000
     89 H45       23.0498    3.8403    6.2445 H         2 RES2    0.0000
     90 N3        29.7447    4.9869    4.5321 N.am      2 RES2    0.0000
     91 H46       28.9623    5.1261    4.1569 H         2 RES2    0.0000
     92 N4        32.1098    7.4052    1.9489 N.3       2 RES2    0.0000
     93 O3        31.0694    3.9344    6.0187 O.2       2 RES2    0.0000
     94 O4        32.8812    8.1006    1.1812 O.2       2 RES2    0.0000
@<TRIPOS>BOND
     1    1    2 1
     2    3    1 1
     3    4    1 1
     4    5    6 1
     5    6    7 1
     6    8    6 1
     7    9    1 1
     8   10    9 1
     9   11   12 1
    10   12   13 ar
    11   13   14 1
    12   15   13 ar
    13   16   15 ar
    14   17   16 1
    15   18   16 ar
    16   19   12 ar
    17   20   19 1
    18   21    4 1
    19   22   21 1
    20   23   21 1
    21   24   21 1
    22   25    4 1
    23   26   25 1
    24   27   25 1
    25   28   25 1
    26   29    5 1
    27   30   29 1
    28   31   29 1
    29   32   29 1
    30   33    5 1
    31   34   33 1
    32   35   33 1
    33   36   33 1
    34   37   15 1
    35   38   37 3
    36   39   38 1
    37   40   18 1
    38   41   40 3
    39   42   41 1
    40   43    9 1
    41   44   43 1
    42   45    4 1
    43   46   11 2
    44   47   45 1
    45   48   49 1
    46   50   48 1
    47   51   48 1
    48   52   53 1
    49   53   54 1
    50   55   53 1
    51   56   48 1
    52   57   56 1
    53   58   59 1
    54   59   60 ar
    55   60   61 1
    56   62   60 ar
    57   63   62 ar
    58   64   63 1
    59   65   63 ar
    60   66   59 ar
    61   67   66 1
    62   68   51 1
    63   69   68 1
    64   70   68 1
    65   71   68 1
    66   72   51 1
    67   73   72 1
    68   74   72 1
    69   75   72 1
    70   76   52 1
    71   77   76 1
    72   78   76 1
    73   79   76 1
    74   80   52 1
    75   81   80 1
    76   82   80 1
    77   83   80 1
    78   84   62 1
    79   85   84 3
    80   86   85 1
    81   87   65 1
    82   88   87 3
    83   89   88 1
    84   90   56 1
    85   91   90 1
    86   92   51 1
    87   93   58 2
    88   94   92 1
    89    5   45 1
    90    6    9 1
    91   11   43 1
    92   18   19 ar
    93   52   92 1
    94   53   56 1
    95   58   90 1
    96   65   66 ar
@<TRIPOS>SUBSTRUCTURE
     1 RES1 1
     2 RES2 48

@<TRIPOS>CRYSIN
  30.6350    7.7786   30.4760  90.0000  90.0000  90.0000  60 1

