# MOL2 file generated by ConQuest
# Please check atom types

@<TRIPOS>MOLECULE
LUGKOP
    70    69     1
SMALL
NO_CHARGES
****
Generated from CSD

@<TRIPOS>ATOM
      1 C1         1.2005   12.2558    8.6055 C.2       1 RES1    0.0000
      2 C2         1.7224   12.6915    7.2894 C.3       1 RES1    0.0000
      3 H1         1.3101   13.5222    7.0410 H         1 RES1    0.0000
      4 H2         1.5210   12.0235    6.6284 H         1 RES1    0.0000
      5 H3         2.6730   12.8091    7.3435 H         1 RES1    0.0000
      6 C3         1.6722   10.9993    9.2305 C.2       1 RES1    0.0000
      7 C4         1.1691   10.5786   10.5726 C.3       1 RES1    0.0000
      8 H4         1.5703    9.7412   10.8170 H         1 RES1    0.0000
      9 H5         0.2150   10.4789   10.5405 H         1 RES1    0.0000
     10 H6         1.3988   11.2451   11.2236 H         1 RES1    0.0000
     11 C5         3.9464    8.5165    8.1948 C.2       1 RES1    0.0000
     12 C6         4.3124    9.1429    6.8788 C.3       1 RES1    0.0000
     13 H7         4.7159   10.0098    7.0470 H         1 RES1    0.0000
     14 H8         3.5029    9.2886    6.3640 H         1 RES1    0.0000
     15 C7         5.2750    8.3042    6.0555 C.3       1 RES1    0.0000
     16 H9         6.0770    8.1345    6.5723 H         1 RES1    0.0000
     17 H10        4.8634    7.4494    5.8552 H         1 RES1    0.0000
     18 C8         5.6523    8.9890    4.7635 C.3       1 RES1    0.0000
     19 H11        6.1425    9.8006    4.9678 H         1 RES1    0.0000
     20 H12        4.8425    9.2435    4.2927 H         1 RES1    0.0000
     21 C9         6.5044    8.1127    3.8460 C.3       1 RES1    0.0000
     22 H13        6.8542    8.6635    3.1289 H         1 RES1    0.0000
     23 H14        7.2598    7.7777    4.3548 H         1 RES1    0.0000
     24 C10        5.7772    6.9375    3.2371 C.3       1 RES1    0.0000
     25 H15        5.4686    6.3584    3.9522 H         1 RES1    0.0000
     26 H16        4.9954    7.2649    2.7663 H         1 RES1    0.0000
     27 C11        6.6173    6.1270    2.2816 C.3       1 RES1    0.0000
     28 H17        6.9211    6.7073    1.5665 H         1 RES1    0.0000
     29 H18        7.4023    5.8072    2.7543 H         1 RES1    0.0000
     30 C12        5.9068    4.9457    1.6726 C.3       1 RES1    0.0000
     31 H19        5.1257    5.2661    1.1959 H         1 RES1    0.0000
     32 H20        5.5975    4.3678    2.3877 H         1 RES1    0.0000
     33 C13        6.7522    4.1319    0.7271 C.3       1 RES1    0.0000
     34 H21        7.0720    4.7147    0.0200 H         1 RES1    0.0000
     35 H22        7.5277    3.8036    1.2079 H         1 RES1    0.0000
     36 C14        6.0544    2.9706    0.1062 C.3       1 RES1    0.0000
     37 H23        5.2804    3.2956   -0.3806 H         1 RES1    0.0000
     38 H24        5.7343    2.3861    0.8093 H         1 RES1    0.0000
     39 C15        6.9273    2.1565   -0.8493 C.3       1 RES1    0.0000
     40 H25        7.2611    2.7448   -1.5444 H         1 RES1    0.0000
     41 H26        7.6921    1.8176   -0.3586 H         1 RES1    0.0000
     42 C16        6.2179    0.9927   -1.5024 C.3       1 RES1    0.0000
     43 H27        5.4493    1.3283   -1.9911 H         1 RES1    0.0000
     44 H28        5.8895    0.3978   -0.8113 H         1 RES1    0.0000
     45 C17        7.0886    0.1987   -2.4538 C.3       1 RES1    0.0000
     46 H29        7.4247    0.7970   -3.1389 H         1 RES1    0.0000
     47 H30        7.8523   -0.1424   -1.9611 H         1 RES1    0.0000
     48 C18        6.4012   -0.9447   -3.1169 C.3       1 RES1    0.0000
     49 H31        5.6451   -0.6001   -3.6177 H         1 RES1    0.0000
     50 H32        6.0520   -1.5342   -2.4298 H         1 RES1    0.0000
     51 C19        7.2603   -1.7594   -4.0524 C.3       1 RES1    0.0000
     52 H33        7.5718   -1.1800   -4.7655 H         1 RES1    0.0000
     53 H34        8.0407   -2.0662   -3.5656 H         1 RES1    0.0000
     54 C20        6.5846   -2.9514   -4.6673 C.3       1 RES1    0.0000
     55 H35        5.8050   -2.6452   -5.1581 H         1 RES1    0.0000
     56 H36        6.2718   -3.5295   -3.9542 H         1 RES1    0.0000
     57 C21        7.4464   -3.7685   -5.6028 C.3       1 RES1    0.0000
     58 H37        7.7550   -3.1921   -6.3199 H         1 RES1    0.0000
     59 H38        8.2281   -4.0728   -5.1160 H         1 RES1    0.0000
     60 C22        6.7737   -4.9455   -6.1997 C.3       1 RES1    0.0000
     61 H39        6.0104   -4.6561   -6.7045 H         1 RES1    0.0000
     62 H40        6.4890   -5.5392   -5.5006 H         1 RES1    0.0000
     63 H41        7.3861   -5.4040   -6.7786 H         1 RES1    0.0000
     64 N1         0.3246   12.9071    9.2685 N.2       1 RES1    0.0000
     65 N2         2.5113   10.3622    8.5011 N.2       1 RES1    0.0000
     66 N3         3.0222    9.1802    8.9546 N.am      1 RES1    0.0000
     67 H42        2.7660    8.8563    9.7092 H         1 RES1    0.0000
     68 O1        -0.0516   14.0766    8.6155 O.3       1 RES1    0.0000
     69 H43       -0.6308   14.3684    9.1143 H         1 RES1    0.0000
     70 O2         4.4293    7.4922    8.5993 O.2       1 RES1    0.0000
@<TRIPOS>BOND
     1    1    2 1
     2    2    3 1
     3    4    2 1
     4    5    2 1
     5    6    1 1
     6    7    6 1
     7    8    7 1
     8    9    7 1
     9   10    7 1
    10   11   12 1
    11   12   13 1
    12   14   12 1
    13   15   12 1
    14   16   15 1
    15   17   15 1
    16   18   15 1
    17   19   18 1
    18   20   18 1
    19   21   18 1
    20   22   21 1
    21   23   21 1
    22   24   21 1
    23   25   24 1
    24   26   24 1
    25   27   24 1
    26   28   27 1
    27   29   27 1
    28   30   27 1
    29   31   30 1
    30   32   30 1
    31   33   30 1
    32   34   33 1
    33   35   33 1
    34   36   33 1
    35   37   36 1
    36   38   36 1
    37   39   36 1
    38   40   39 1
    39   41   39 1
    40   42   39 1
    41   43   42 1
    42   44   42 1
    43   45   42 1
    44   46   45 1
    45   47   45 1
    46   48   45 1
    47   49   48 1
    48   50   48 1
    49   51   48 1
    50   52   51 1
    51   53   51 1
    52   54   51 1
    53   55   54 1
    54   56   54 1
    55   57   54 1
    56   58   57 1
    57   59   57 1
    58   60   57 1
    59   61   60 1
    60   62   60 1
    61   63   60 1
    62   64    1 2
    63   65    6 2
    64   66   11 1
    65   67   66 1
    66   68   64 1
    67   69   68 1
    68   70   11 2
    69   65   66 1
@<TRIPOS>SUBSTRUCTURE
     1 RES1 1

@<TRIPOS>CRYSIN
   4.8730   12.2260   20.2810  81.0800  87.8600  83.7200   2 1

