# MOL2 file generated by ConQuest
# Please check atom types

@<TRIPOS>MOLECULE
LUHFAV
    66    69     1
SMALL
NO_CHARGES
****
Generated from CSD

@<TRIPOS>ATOM
      1 C1         4.2579    8.5400   13.0385 C.ar      1 RES1    0.0000
      2 C2         3.9968    7.3099   13.7246 C.ar      1 RES1    0.0000
      3 C3         3.5160    7.2060   15.0699 C.ar      1 RES1    0.0000
      4 C4         3.2941    5.9650   15.6232 C.ar      1 RES1    0.0000
      5 H1         2.9893    5.9085   16.5221 H         1 RES1    0.0000
      6 C5         3.5035    4.7856   14.9013 C.ar      1 RES1    0.0000
      7 H2         3.3382    3.9425   15.3049 H         1 RES1    0.0000
      8 C6         3.9440    4.8527   13.6221 C.ar      1 RES1    0.0000
      9 H3         4.0770    4.0491   13.1332 H         1 RES1    0.0000
     10 C7         4.2083    6.0926   13.0022 C.ar      1 RES1    0.0000
     11 C8         4.6452    6.1326   11.6658 C.ar      1 RES1    0.0000
     12 H4         4.7826    5.3191   11.1947 H         1 RES1    0.0000
     13 C9         4.8747    7.3195   11.0384 C.ar      1 RES1    0.0000
     14 H5         5.1688    7.3292   10.1346 H         1 RES1    0.0000
     15 C10        4.6793    8.5179   11.7193 C.ar      1 RES1    0.0000
     16 H6         4.8390    9.3393   11.2683 H         1 RES1    0.0000
     17 C11        4.1302    9.8444   13.6412 C.1       1 RES1    0.0000
     18 C12        4.0801   10.9773   14.0169 C.1       1 RES1    0.0000
     19 C13        4.1015   12.3342   14.4309 C.2       1 RES1    0.0000
     20 C14        4.7119   13.3938   13.5335 C.3       1 RES1    0.0000
     21 C15        6.1850   13.1335   13.2577 C.3       1 RES1    0.0000
     22 H7         6.5404   13.8438   12.6817 H         1 RES1    0.0000
     23 H8         6.2854   12.2677   12.8093 H         1 RES1    0.0000
     24 H9         6.6784   13.1220   14.1050 H         1 RES1    0.0000
     25 C16        3.9474   13.5835   12.2334 C.3       1 RES1    0.0000
     26 H10        3.0033   13.7570   12.4314 H         1 RES1    0.0000
     27 H11        4.0222   12.7717   11.6879 H         1 RES1    0.0000
     28 H12        4.3228   14.3433   11.7419 H         1 RES1    0.0000
     29 N1         4.5500   14.5700   14.4007 N.3       1 RES1    0.0000
     30 O1         4.9181   15.7380   14.0522 O.2       1 RES1    0.0000
     31 C17        3.8460   14.3190   15.6757 C.3       1 RES1    0.0000
     32 C18        2.5257   15.0963   15.6966 C.3       1 RES1    0.0000
     33 H13        2.7123   16.0549   15.7687 H         1 RES1    0.0000
     34 H14        1.9888   14.8077   16.4632 H         1 RES1    0.0000
     35 H15        2.0306   14.9219   14.8682 H         1 RES1    0.0000
     36 C19        4.7294   14.7011   16.8597 C.3       1 RES1    0.0000
     37 H16        4.8280   15.6757   16.8926 H         1 RES1    0.0000
     38 H17        5.6117   14.2869   16.7552 H         1 RES1    0.0000
     39 H18        4.3169   14.3859   17.6901 H         1 RES1    0.0000
     40 C20        3.6493   12.8431   15.5636 C.2       1 RES1    0.0000
     41 H19        3.2378   12.3195   16.2423 H         1 RES1    0.0000
     42 C21        3.1427    8.3378   15.9012 C.1       1 RES1    0.0000
     43 C22        2.7283    9.0987   16.7179 C.1       1 RES1    0.0000
     44 C23        2.0491    9.9398   17.6644 C.2       1 RES1    0.0000
     45 C24        0.5519   10.0960   17.5611 C.3       1 RES1    0.0000
     46 C25       -0.1899    8.7690   17.6141 C.3       1 RES1    0.0000
     47 H20       -1.1539    8.9312   17.5429 H         1 RES1    0.0000
     48 H21        0.0032    8.3206   18.4631 H         1 RES1    0.0000
     49 H22        0.1020    8.2018   16.8705 H         1 RES1    0.0000
     50 C26        0.1210   10.9116   16.3508 C.3       1 RES1    0.0000
     51 H23       -0.8567   10.9703   16.3282 H         1 RES1    0.0000
     52 H24        0.4412   10.4769   15.5332 H         1 RES1    0.0000
     53 H25        0.5011   11.8124   16.4117 H         1 RES1    0.0000
     54 N2         0.2964   10.8637   18.7949 N.3       1 RES1    0.0000
     55 O2        -0.8727   11.2331   19.1357 O.2       1 RES1    0.0000
     56 C27        1.5104   11.2634   19.5477 C.3       1 RES1    0.0000
     57 C28        1.4301   10.7229   20.9707 C.3       1 RES1    0.0000
     58 H26        1.3578    9.7459   20.9465 H         1 RES1    0.0000
     59 H27        0.6427   11.0966   21.4176 H         1 RES1    0.0000
     60 H28        2.2374   10.9779   21.4642 H         1 RES1    0.0000
     61 C29        1.6298   12.7897   19.5548 C.3       1 RES1    0.0000
     62 H29        1.6564   13.1189   18.6324 H         1 RES1    0.0000
     63 H30        2.4532   13.0504   20.0189 H         1 RES1    0.0000
     64 H31        0.8573   13.1753   20.0189 H         1 RES1    0.0000
     65 C30        2.5566   10.5876   18.7119 C.2       1 RES1    0.0000
     66 H32        3.4852   10.6185   18.9097 H         1 RES1    0.0000
@<TRIPOS>BOND
     1    1    2 ar
     2    2    3 ar
     3    3    4 ar
     4    4    5 1
     5    6    4 ar
     6    7    6 1
     7    8    6 ar
     8    9    8 1
     9   10    2 ar
    10   11   10 ar
    11   12   11 1
    12   13   11 ar
    13   14   13 1
    14   15    1 ar
    15   16   15 1
    16   17    1 1
    17   18   17 3
    18   19   18 1
    19   20   19 1
    20   21   20 1
    21   22   21 1
    22   23   21 1
    23   24   21 1
    24   25   20 1
    25   26   25 1
    26   27   25 1
    27   28   25 1
    28   29   20 1
    29   30   29 1
    30   31   29 1
    31   32   31 1
    32   33   32 1
    33   34   32 1
    34   35   32 1
    35   36   31 1
    36   37   36 1
    37   38   36 1
    38   39   36 1
    39   40   19 2
    40   41   40 1
    41   42    3 1
    42   43   42 3
    43   44   43 1
    44   45   44 1
    45   46   45 1
    46   47   46 1
    47   48   46 1
    48   49   46 1
    49   50   45 1
    50   51   50 1
    51   52   50 1
    52   53   50 1
    53   54   45 1
    54   55   54 1
    55   56   54 1
    56   57   56 1
    57   58   57 1
    58   59   57 1
    59   60   57 1
    60   61   56 1
    61   62   61 1
    62   63   61 1
    63   64   61 1
    64   65   44 2
    65   66   65 1
    66    8   10 ar
    67   13   15 ar
    68   31   40 1
    69   56   65 1
@<TRIPOS>SUBSTRUCTURE
     1 RES1 1

@<TRIPOS>CRYSIN
   6.8850   15.2280   24.5780  90.0000  93.2300  90.0000 231 1

