# MOL2 file generated by ConQuest
# Please check atom types

@<TRIPOS>MOLECULE
LUHPAF
    14    14     1
SMALL
NO_CHARGES
****
Generated from CSD

@<TRIPOS>ATOM
      1 N1         2.5309    1.7182    2.8579 N.am      1 RES1    0.0000
      2 O1         4.0160    0.5980    1.4210 O.2       1 RES1    0.0000
      3 N2         3.4191    2.1955    3.7898 N.pl3     1 RES1    0.0000
      4 O2         4.5357    1.7268    3.8278 O.2       1 RES1    0.0000
      5 O3         2.9816    3.0409    4.5482 O.2       1 RES1    0.0000
      6 N3         1.8700    1.1804    0.8412 N.am      1 RES1    0.0000
      7 H1         1.8500    0.7333    0.1587 H         1 RES1    0.0000
      8 C1         2.9364    1.0999    1.6359 C.2       1 RES1    0.0000
      9 C2         1.2268    2.3681    2.7315 C.3       1 RES1    0.0000
     10 H2         0.6912    2.1567    3.4973 H         1 RES1    0.0000
     11 H3         1.3797    3.2926    2.6187 H         1 RES1    0.0000
     12 C3         0.6758    1.6952    1.4857 C.3       1 RES1    0.0000
     13 H4         0.1163    0.9921    1.7572 H         1 RES1    0.0000
     14 H5         0.2393    2.3149    0.9296 H         1 RES1    0.0000
@<TRIPOS>BOND
     1    1    3 1
     2    2    8 2
     3    3    4 2
     4    5    3 2
     5    6    7 1
     6    8    1 1
     7    9    1 1
     8   10    9 1
     9   11    9 1
    10   12    6 1
    11   13   12 1
    12   14   12 1
    13    6    8 1
    14    9   12 1
@<TRIPOS>SUBSTRUCTURE
     1 RES1 1

@<TRIPOS>CRYSIN
   6.3818   14.3780    5.9620  90.0000 108.0600  90.0000  14 1

