# MOL2 file generated by ConQuest
# Please check atom types

@<TRIPOS>MOLECULE
LUHWEQ
    42    46     1
SMALL
NO_CHARGES
****
Generated from CSD

@<TRIPOS>ATOM
      1 O1        11.0769   10.9106    0.1356 O.2       1 RES1    0.0000
      2 O2         9.9181    8.8031   -1.3426 O.2       1 RES1    0.0000
      3 O3         8.1993    9.6583   -2.3060 O.2       1 RES1    0.0000
      4 N1         7.5004   10.5058    0.1600 N.2       1 RES1    0.0000
      5 N2         7.1632   11.2661    1.1930 N.3       1 RES1    0.0000
      6 N3         8.0420   12.8069    2.8556 N.2       1 RES1    0.0000
      7 N4        10.2369   12.6007    2.2631 N.2       1 RES1    0.0000
      8 N5         9.4480   11.7974    1.4794 N.am      1 RES1    0.0000
      9 N6         8.9534    9.5330   -1.3507 N.pl3     1 RES1    0.0000
     10 C1         9.9140   11.0004    0.4394 C.2       1 RES1    0.0000
     11 C2         8.7429   10.3806   -0.1762 C.2       1 RES1    0.0000
     12 C3         8.1401   11.9580    1.8655 C.2       1 RES1    0.0000
     13 C4         9.3520   13.1724    3.0597 C.2       1 RES1    0.0000
     14 C5         9.7546   14.1338    4.1008 C.3       1 RES1    0.0000
     15 C6         5.6937   11.3749    1.5513 C.3       1 RES1    0.0000
     16 C7         5.4914   10.9359    3.0063 C.3       1 RES1    0.0000
     17 C8         4.0057   11.0877    3.3715 C.3       1 RES1    0.0000
     18 C9         3.5826   12.5387    3.1907 C.3       1 RES1    0.0000
     19 C10        3.7706   12.9549    1.7345 C.3       1 RES1    0.0000
     20 C11        5.2544   12.8334    1.3565 C.3       1 RES1    0.0000
     21 C12        2.9388   12.0555    0.8197 C.3       1 RES1    0.0000
     22 C13        3.3864   10.6020    1.0098 C.3       1 RES1    0.0000
     23 C14        4.8742   10.4691    0.6307 C.3       1 RES1    0.0000
     24 C15        3.1657   10.1921    2.4614 C.3       1 RES1    0.0000
     25 H1        10.6886   14.2439    4.0695 H         1 RES1    0.0000
     26 H2         9.3193   14.9776    3.9420 H         1 RES1    0.0000
     27 H3         9.4828   13.8011    4.9622 H         1 RES1    0.0000
     28 H4         6.0085   11.4736    3.5825 H         1 RES1    0.0000
     29 H5         5.7632   10.0188    3.1188 H         1 RES1    0.0000
     30 H6         3.8626   10.8284    4.2782 H         1 RES1    0.0000
     31 H7         4.1078   13.0927    3.7565 H         1 RES1    0.0000
     32 H8         2.6568   12.6373    3.4318 H         1 RES1    0.0000
     33 H9         3.4743   13.8644    1.6232 H         1 RES1    0.0000
     34 H10        5.3749   13.0801    0.4290 H         1 RES1    0.0000
     35 H11        5.7837   13.4090    1.9014 H         1 RES1    0.0000
     36 H12        3.0656   12.3085   -0.0928 H         1 RES1    0.0000
     37 H13        2.0028   12.1440    1.0203 H         1 RES1    0.0000
     38 H14        2.8612   10.0315    0.4406 H         1 RES1    0.0000
     39 H15        5.1501    9.5508    0.7188 H         1 RES1    0.0000
     40 H16        4.9866   10.7272   -0.2783 H         1 RES1    0.0000
     41 H17        2.2276   10.2592    2.6898 H         1 RES1    0.0000
     42 H18        3.4130    9.2724    2.5739 H         1 RES1    0.0000
@<TRIPOS>BOND
     1    1   10 2
     2    2    9 2
     3    3    9 2
     4    4    5 1
     5    5   12 1
     6    6   12 2
     7    7    8 1
     8    8   10 1
     9    9   11 1
    10   10   11 1
    11   11    4 2
    12   12    8 1
    13   13    6 1
    14   14   13 1
    15   15    5 1
    16   16   15 1
    17   17   16 1
    18   18   17 1
    19   19   18 1
    20   20   15 1
    21   21   19 1
    22   22   21 1
    23   23   15 1
    24   24   17 1
    25   25   14 1
    26   26   14 1
    27   27   14 1
    28   28   16 1
    29   29   16 1
    30   30   17 1
    31   31   18 1
    32   32   18 1
    33   33   19 1
    34   34   20 1
    35   35   20 1
    36   36   21 1
    37   37   21 1
    38   38   22 1
    39   39   23 1
    40   40   23 1
    41   41   24 1
    42   42   24 1
    43    7   13 2
    44   19   20 1
    45   22   23 1
    46   22   24 1
@<TRIPOS>SUBSTRUCTURE
     1 RES1 1

@<TRIPOS>CRYSIN
  20.4370   12.6500   11.5940  90.0000  90.0000  90.0000  61 1

