# MOL2 file generated by ConQuest
# Please check atom types

@<TRIPOS>MOLECULE
LUJPUD
    54    58     2
SMALL
NO_CHARGES
****
Generated from CSD

@<TRIPOS>ATOM
      1 O1         6.8340    9.5107   -0.8780 O.3       1 RES1    0.0000
      2 O2         4.8067    9.5249    4.2322 O.3       1 RES1    0.0000
      3 N1         6.0830    6.9300    0.4432 N.pl3     1 RES1    0.0000
      4 O3         6.2863    6.8808   -0.7534 O.2       1 RES1    0.0000
      5 O4         5.9637    5.9373    1.1348 O.2       1 RES1    0.0000
      6 C1         6.6849   11.6044    0.0579 C.ar      1 RES1    0.0000
      7 C2         5.9790    8.2351    1.0731 C.ar      1 RES1    0.0000
      8 C3         5.4926    8.3195    2.3643 C.ar      1 RES1    0.0000
      9 H1         5.2592    7.5293    2.8371 H         1 RES1    0.0000
     10 C4         6.3361    9.3972    0.3966 C.ar      1 RES1    0.0000
     11 C5         6.2145   10.6321    1.0264 C.ar      1 RES1    0.0000
     12 C6         7.0380   10.8711   -1.0656 C.ar      1 RES1    0.0000
     13 C7         5.3437    9.5641    2.9734 C.ar      1 RES1    0.0000
     14 C8         5.7101   10.7266    2.3175 C.ar      1 RES1    0.0000
     15 H2         5.6181   11.5721    2.7409 H         1 RES1    0.0000
     16 C9         6.8276   12.9880    0.0313 C.ar      1 RES1    0.0000
     17 H3         6.6041   13.5160    0.7882 H         1 RES1    0.0000
     18 C10        7.5187   11.4300   -2.2248 C.ar      1 RES1    0.0000
     19 H4         7.7548   10.9004   -2.9772 H         1 RES1    0.0000
     20 C11        7.6391   12.8090   -2.2354 C.ar      1 RES1    0.0000
     21 H5         7.9585   13.2426   -3.0182 H         1 RES1    0.0000
     22 C12        7.3008   13.5703   -1.1217 C.ar      1 RES1    0.0000
     23 H6         7.3994   14.5139   -1.1589 H         1 RES1    0.0000
     24 C13        4.3952   10.7628    4.8007 C.3       1 RES1    0.0000
     25 H7         5.1842   11.3070    5.0063 H         1 RES1    0.0000
     26 H8         3.8928   10.5927    5.6247 H         1 RES1    0.0000
     27 H9         3.8251   11.2422    4.1630 H         1 RES1    0.0000
     28 O5         7.3000    6.2547    4.8238 O.3       2 RES2    0.0000
     29 O6         5.5049    6.4416   10.0071 O.3       2 RES2    0.0000
     30 O7         7.8924    8.8865    5.1778 O.2       2 RES2    0.0000
     31 O8         6.9231    9.9671    6.7548 O.2       2 RES2    0.0000
     32 N2         7.2269    8.9251    6.1927 N.pl3     2 RES2    0.0000
     33 C14        6.5379    5.2760    6.7595 C.ar      2 RES2    0.0000
     34 C15        6.8889    6.4693    6.1127 C.ar      2 RES2    0.0000
     35 C16        6.7934    7.6693    6.7908 C.ar      2 RES2    0.0000
     36 C17        7.2306    4.8828    4.6342 C.ar      2 RES2    0.0000
     37 C18        6.7779    4.2346    5.7793 C.ar      2 RES2    0.0000
     38 C19        5.9739    6.5075    8.7285 C.ar      2 RES2    0.0000
     39 C20        6.0845    5.2886    8.0671 C.ar      2 RES2    0.0000
     40 H10        5.8523    4.4782    8.5056 H         2 RES2    0.0000
     41 C21        6.3250    7.6918    8.0991 C.ar      2 RES2    0.0000
     42 H11        6.2448    8.5180    8.5608 H         2 RES2    0.0000
     43 C22        7.5750    4.2357    3.4699 C.ar      2 RES2    0.0000
     44 H12        7.8656    4.7093    2.6998 H         2 RES2    0.0000
     45 C23        6.6833    2.8416    5.7642 C.ar      2 RES2    0.0000
     46 H13        6.3804    2.3655    6.5289 H         2 RES2    0.0000
     47 C24        7.4748    2.8580    3.4850 C.ar      2 RES2    0.0000
     48 H14        7.7092    2.3671    2.7069 H         2 RES2    0.0000
     49 C25        5.4324    7.6456   10.7629 C.3       2 RES2    0.0000
     50 H15        6.3178    8.0651   10.7951 H         2 RES2    0.0000
     51 H16        5.1345    7.4428   11.6738 H         2 RES2    0.0000
     52 H17        4.7962    8.2590   10.3395 H         2 RES2    0.0000
     53 C26        7.0396    2.1746    4.6139 C.ar      2 RES2    0.0000
     54 H18        6.9865    1.2262    4.5917 H         2 RES2    0.0000
@<TRIPOS>BOND
     1    1   10 1
     2    2   13 1
     3    3    4 2
     4    5    3 2
     5    6   11 1
     6    7    3 1
     7    8    7 ar
     8    9    8 1
     9   10    7 ar
    10   11   10 ar
    11   12    1 1
    12   13    8 ar
    13   14   11 ar
    14   15   14 1
    15   16    6 ar
    16   17   16 1
    17   18   12 ar
    18   19   18 1
    19   20   18 ar
    20   21   20 1
    21   22   16 ar
    22   23   22 1
    23   24    2 1
    24   25   24 1
    25   26   24 1
    26   27   24 1
    27   28   34 1
    28   29   38 1
    29   30   32 2
    30   31   32 2
    31   32   35 1
    32   33   34 ar
    33   34   35 ar
    34   35   41 ar
    35   36   28 1
    36   37   33 1
    37   38   39 ar
    38   39   33 ar
    39   40   39 1
    40   41   38 ar
    41   42   41 1
    42   43   36 ar
    43   44   43 1
    44   45   37 ar
    45   46   45 1
    46   47   43 ar
    47   48   47 1
    48   49   29 1
    49   50   49 1
    50   51   49 1
    51   52   49 1
    52   53   45 ar
    53   54   53 1
    54    6   12 ar
    55   13   14 ar
    56   20   22 ar
    57   36   37 ar
    58   47   53 ar
@<TRIPOS>SUBSTRUCTURE
     1 RES1 1
     2 RES2 28

@<TRIPOS>CRYSIN
   7.3355   10.3916   14.2893  82.6180  86.1760  84.0500   2 1

