# MOL2 file generated by ConQuest
# Please check atom types

@<TRIPOS>MOLECULE
LULYEW01
    31    32     1
SMALL
NO_CHARGES
****
Generated from CSD

@<TRIPOS>ATOM
      1 O1        -0.4567    0.2019    5.8798 O.2       1 RES1    0.0000
      2 C1         1.4720    1.5208    5.4327 C.2       1 RES1    0.0000
      3 C2         0.6502    0.6686    6.2829 C.2       1 RES1    0.0000
      4 C3         1.1739    0.3877    7.5851 C.2       1 RES1    0.0000
      5 H1         0.6728   -0.1625    8.1747 H         1 RES1    0.0000
      6 C4         2.3627    0.8837    8.0007 C.2       1 RES1    0.0000
      7 H2         2.6824    0.6783    8.8714 H         1 RES1    0.0000
      8 C5         3.1341    1.7081    7.1437 C.2       1 RES1    0.0000
      9 C6         2.7032    2.0179    5.8866 C.2       1 RES1    0.0000
     10 H3         3.2335    2.5665    5.3219 H         1 RES1    0.0000
     11 C7         1.0403    1.8875    4.1338 C.2       1 RES1    0.0000
     12 H4         1.6171    2.4321    3.6106 H         1 RES1    0.0000
     13 N1        -0.0909    1.5275    3.6130 N.3       1 RES1    0.0000
     14 H5        -0.5995    0.9752    4.0714 H         1 RES1    0.0000
     15 C8        -0.5713    1.9822    2.3160 C.3       1 RES1    0.0000
     16 H6        -0.9586    1.2140    1.8241 H         1 RES1    0.0000
     17 H7         0.1917    2.3277    1.7884 H         1 RES1    0.0000
     18 C9        -1.6237    3.0744    2.4516 C.ar      1 RES1    0.0000
     19 C10       -1.5522    4.0119    3.4744 C.ar      1 RES1    0.0000
     20 H8        -0.8479    3.9632    4.1099 H         1 RES1    0.0000
     21 C11       -2.4997    5.0201    3.5749 C.ar      1 RES1    0.0000
     22 H9        -2.4449    5.6548    4.2801 H         1 RES1    0.0000
     23 C12       -3.5264    5.1037    2.6469 C.ar      1 RES1    0.0000
     24 H10       -4.1770    5.7932    2.7136 H         1 RES1    0.0000
     25 C13       -3.5957    4.1745    1.6210 C.ar      1 RES1    0.0000
     26 H11       -4.2927    4.2320    0.9779 H         1 RES1    0.0000
     27 C14       -2.6571    3.1623    1.5270 C.ar      1 RES1    0.0000
     28 H12       -2.7193    2.5244    0.8256 H         1 RES1    0.0000
     29 N2         4.3828    2.2471    7.6213 N.pl3     1 RES1    0.0000
     30 O2         4.7817    1.9063    8.7426 O.2       1 RES1    0.0000
     31 O3         5.0046    3.0323    6.9018 O.2       1 RES1    0.0000
@<TRIPOS>BOND
     1    1    3 2
     2    2    3 1
     3    3    4 1
     4    4    5 1
     5    6    4 2
     6    7    6 1
     7    8    6 1
     8    9    2 1
     9   10    9 1
    10   11    2 2
    11   12   11 1
    12   13   11 1
    13   14   13 1
    14   15   13 1
    15   16   15 1
    16   17   15 1
    17   18   15 1
    18   19   18 ar
    19   20   19 1
    20   21   19 ar
    21   22   21 1
    22   23   21 ar
    23   24   23 1
    24   25   23 ar
    25   26   25 1
    26   27   18 ar
    27   28   27 1
    28   29    8 1
    29   30   29 2
    30   31   29 2
    31    8    9 2
    32   25   27 ar
@<TRIPOS>SUBSTRUCTURE
     1 RES1 1

@<TRIPOS>CRYSIN
   6.3306   20.0666    9.8174  90.0000 106.7130  90.0000  14 1

