# MOL2 file generated by ConQuest
# Please check atom types

@<TRIPOS>MOLECULE
LUMXOG
    42    44     2
SMALL
USER_CHARGES
****
Generated from CSD

@<TRIPOS>ATOM
      1 O1         5.3320    1.3518    9.0852 O.2       1 RES1   -1.0000
      2 N1         4.8067    2.4986    8.9504 N.pl3     1 RES1    1.0000
      3 C1         3.4730    2.6173    8.5543 C.ar      1 RES1    0.0000
      4 N2         3.7516    5.0291    8.6464 N.ar      1 RES1    0.0000
      5 C2         2.9848    3.9363    8.3929 C.ar      1 RES1    0.0000
      6 C3         0.8627    2.9834    7.8075 C.ar      1 RES1    0.0000
      7 H1        -0.0508    3.0882    7.5669 H         1 RES1    0.0000
      8 C4         2.6773    1.4769    8.3330 C.ar      1 RES1    0.0000
      9 H2         3.0322    0.6016    8.4343 H         1 RES1    0.0000
     10 N3         5.5704    3.5344    9.2018 N.ar      1 RES1    0.0000
     11 N4         5.8059    5.7869    9.3667 N.pl3     1 RES1    0.0000
     12 H3         5.5250    6.6185    9.2976 H         1 RES1    0.0000
     13 H4         6.6258    5.6199    9.6399 H         1 RES1    0.0000
     14 C5         1.6267    4.1075    7.9853 C.ar      1 RES1    0.0000
     15 C6         1.3717    1.6777    7.9661 C.ar      1 RES1    0.0000
     16 H5         0.8051    0.9300    7.8180 H         1 RES1    0.0000
     17 C7         1.0990    5.4996    7.7944 C.3       1 RES1    0.0000
     18 H6         0.1415    5.4605    7.5871 H         1 RES1    0.0000
     19 H7         1.5759    5.9314    7.0554 H         1 RES1    0.0000
     20 H8         1.2343    6.0155    8.6155 H         1 RES1    0.0000
     21 C8         4.9847    4.7762    9.0566 C.ar      1 RES1    0.0000
     22 O2        13.7937    0.3409    2.4543 O.2       2 RES2   -1.0000
     23 N5        14.1037   -1.8306    2.4014 N.ar      2 RES2    0.0000
     24 N6        13.3125   -0.8067    2.2118 N.pl3     2 RES2    1.0000
     25 C9        11.5340   -2.2578    1.5460 C.ar      2 RES2    0.0000
     26 N7        12.3320   -3.3422    1.7521 N.ar      2 RES2    0.0000
     27 C10       11.9906   -0.9381    1.7791 C.ar      2 RES2    0.0000
     28 C11        9.4088   -1.3175    0.9318 C.ar      2 RES2    0.0000
     29 H9         8.5138   -1.4304    0.6337 H         2 RES2    0.0000
     30 C12       13.5615   -3.0734    2.1691 C.ar      2 RES2    0.0000
     31 C13       10.1945   -2.4357    1.1036 C.ar      2 RES2    0.0000
     32 N8        14.4261   -4.0793    2.3894 N.3       2 RES2    0.0000
     33 H10       14.1754   -4.9121    2.2569 H         2 RES2    0.0000
     34 H11       15.2429   -3.9045    2.6664 H         2 RES2    0.0000
     35 C14        9.8802   -0.0118    1.1810 C.ar      2 RES2    0.0000
     36 H12        9.3011    0.7307    1.0566 H         2 RES2    0.0000
     37 C15        9.6896   -3.8241    0.8364 C.3       2 RES2    0.0000
     38 H13        8.7220   -3.7953    0.6834 H         2 RES2    0.0000
     39 H14        9.8814   -4.3954    1.6084 H         2 RES2    0.0000
     40 H15       10.1358   -4.1865    0.0430 H         2 RES2    0.0000
     41 C16       11.1717    0.1949    1.6019 C.ar      2 RES2    0.0000
     42 H16       11.5016    1.0702    1.7682 H         2 RES2    0.0000
@<TRIPOS>BOND
     1    1    2 1
     2    2    3 ar
     3    3    5 ar
     4    4    5 ar
     5    5   14 ar
     6    6    7 1
     7    8    3 ar
     8    9    8 1
     9   10    2 ar
    10   11   12 1
    11   13   11 1
    12   14    6 ar
    13   15    6 ar
    14   16   15 1
    15   17   14 1
    16   18   17 1
    17   19   17 1
    18   20   17 1
    19   21    4 ar
    20   22   24 1
    21   23   24 ar
    22   24   27 ar
    23   25   26 ar
    24   26   30 ar
    25   27   25 ar
    26   28   29 1
    27   30   23 ar
    28   31   25 ar
    29   32   30 1
    30   33   32 1
    31   34   32 1
    32   35   28 ar
    33   36   35 1
    34   37   31 1
    35   38   37 1
    36   39   37 1
    37   40   37 1
    38   41   27 ar
    39   42   41 1
    40    8   15 ar
    41   10   21 ar
    42   11   21 1
    43   28   31 ar
    44   35   41 ar
@<TRIPOS>SUBSTRUCTURE
     1 RES1 1
     2 RES2 22

@<TRIPOS>CRYSIN
  15.6700    7.3810   13.4910  90.0000  95.6230  90.0000  14 1

