# MOL2 file generated by ConQuest
# Please check atom types

@<TRIPOS>MOLECULE
LUMYAT
   352   368     8
SMALL
NO_CHARGES
****
Generated from CSD

@<TRIPOS>ATOM
      1 O1        -1.3471    6.4670    7.7429 O.3       1 RES1    0.0000
      2 H1        -0.9023    7.4393    7.7422 H         1 RES1    0.0000
      3 N1        -0.7798    6.1517    6.4670 N.2       1 RES1    0.0000
      4 N2        -0.0944    2.2266    5.8926 N.3       1 RES1    0.0000
      5 H2         0.6407    1.3808    6.0723 H         1 RES1    0.0000
      6 C1         0.5887    3.2605    5.1140 C.3       1 RES1    0.0000
      7 H3         1.3648    3.5954    5.6491 H         1 RES1    0.0000
      8 C2        -0.3301    4.4170    4.8427 C.3       1 RES1    0.0000
      9 H4        -1.0878    4.0735    4.2886 H         1 RES1    0.0000
     10 C3        -0.9040    4.8830    6.1596 C.2       1 RES1    0.0000
     11 C4        -1.5088    3.8129    7.0325 C.3       1 RES1    0.0000
     12 H5        -1.7173    4.1874    7.9243 H         1 RES1    0.0000
     13 H6        -2.3499    3.4866    6.6283 H         1 RES1    0.0000
     14 C5        -0.5787    2.7237    7.1691 C.3       1 RES1    0.0000
     15 H7         0.2188    3.0966    7.6435 H         1 RES1    0.0000
     16 C6         1.1314    2.6253    3.8312 C.ar      1 RES1    0.0000
     17 C7         0.3211    2.1576    2.8198 C.ar      1 RES1    0.0000
     18 H8        -0.6213    2.2387    2.8900 H         1 RES1    0.0000
     19 C8         0.8942    1.5569    1.6756 C.ar      1 RES1    0.0000
     20 H9         0.3330    1.2704    0.9659 H         1 RES1    0.0000
     21 C9         2.2385    1.3843    1.5769 C.ar      1 RES1    0.0000
     22 H10        2.6197    0.9735    0.8103 H         1 RES1    0.0000
     23 C10        3.0402    1.8193    2.6206 C.ar      1 RES1    0.0000
     24 H11        3.9791    1.6777    2.5712 H         1 RES1    0.0000
     25 C11        2.5147    2.4493    3.7250 C.ar      1 RES1    0.0000
     26 H12        3.0881    2.7651    4.4119 H         1 RES1    0.0000
     27 C12        0.3929    5.5493    4.0058 C.3       1 RES1    0.0000
     28 H13        0.5833    5.1765    3.1102 H         1 RES1    0.0000
     29 H14       -0.2579    6.2829    3.8806 H         1 RES1    0.0000
     30 C13        1.6588    6.1603    4.5106 C.3       1 RES1    0.0000
     31 H15        1.9682    6.8404    3.8768 H         1 RES1    0.0000
     32 H16        2.3410    5.4647    4.6055 H         1 RES1    0.0000
     33 H17        1.4953    6.5780    5.3816 H         1 RES1    0.0000
     34 C14       -1.1222    1.6242    8.0591 C.ar      1 RES1    0.0000
     35 C15       -1.1696    0.2917    7.6909 C.ar      1 RES1    0.0000
     36 H18       -0.8591    0.0293    6.8313 H         1 RES1    0.0000
     37 C16       -1.6610   -0.6645    8.5619 C.ar      1 RES1    0.0000
     38 H19       -1.6606   -1.5776    8.2982 H         1 RES1    0.0000
     39 C17       -2.1484   -0.3193    9.8011 C.ar      1 RES1    0.0000
     40 H20       -2.4884   -0.9804   10.3931 H         1 RES1    0.0000
     41 C18       -2.1343    1.0097   10.1597 C.ar      1 RES1    0.0000
     42 H21       -2.4834    1.2704   11.0041 H         1 RES1    0.0000
     43 C19       -1.6241    1.9574    9.3172 C.ar      1 RES1    0.0000
     44 H22       -1.6096    2.8653    9.5961 H         1 RES1    0.0000
     45 O2        -0.3164    8.8076    5.7895 O.3       2 RES2    0.0000
     46 H23       -0.0165    7.8363    5.9964 H         2 RES2    0.0000
     47 N3        -0.8507    9.1519    7.0708 N.2       2 RES2    0.0000
     48 N4        -0.6643   13.1327    7.9405 N.3       2 RES2    0.0000
     49 H24       -0.0449   13.7912    8.2944 H         2 RES2    0.0000
     50 C20       -0.8577   12.1485    9.0280 C.3       2 RES2    0.0000
     51 H25        0.0411   11.8442    9.3437 H         2 RES2    0.0000
     52 C21       -1.6429   10.9139    8.5086 C.3       2 RES2    0.0000
     53 H26       -2.5627   11.2315    8.2792 H         2 RES2    0.0000
     54 C22       -1.0202   10.4099    7.2237 C.2       2 RES2    0.0000
     55 C23       -0.6729   11.4541    6.1905 C.3       2 RES2    0.0000
     56 H27       -1.5048   11.8097    5.7877 H         2 RES2    0.0000
     57 H28       -0.1351   11.0399    5.4708 H         2 RES2    0.0000
     58 C24        0.1150   12.5961    6.8222 C.3       2 RES2    0.0000
     59 H29        0.9830   12.2395    7.1710 H         2 RES2    0.0000
     60 C25       -1.5612   12.8293   10.1724 C.ar      2 RES2    0.0000
     61 C26       -2.8640   13.3286   10.0212 C.ar      2 RES2    0.0000
     62 H30       -3.2905   13.2734    9.1749 H         2 RES2    0.0000
     63 C27       -3.5423   13.9051   11.0876 C.ar      2 RES2    0.0000
     64 H31       -4.4364   14.2037   10.9719 H         2 RES2    0.0000
     65 C28       -2.9235   14.0484   12.3135 C.ar      2 RES2    0.0000
     66 H32       -3.3789   14.4661   13.0346 H         2 RES2    0.0000
     67 C29       -1.6249   13.5703   12.4786 C.ar      2 RES2    0.0000
     68 H33       -1.1976   13.6497   13.3230 H         2 RES2    0.0000
     69 C30       -0.9435   12.9782   11.4140 C.ar      2 RES2    0.0000
     70 H34       -0.0520   12.6745   11.5355 H         2 RES2    0.0000
     71 C31       -1.7987    9.8541    9.6037 C.3       2 RES2    0.0000
     72 H35       -0.9798    9.2966    9.6189 H         2 RES2    0.0000
     73 H36       -1.8651   10.3132   10.4785 H         2 RES2    0.0000
     74 C32       -3.0092    8.9375    9.4405 C.3       2 RES2    0.0000
     75 H37       -3.0327    8.2954   10.1806 H         2 RES2    0.0000
     76 H38       -2.9409    8.4525    8.5923 H         2 RES2    0.0000
     77 H39       -3.8285    9.4743    9.4481 H         2 RES2    0.0000
     78 C33        0.4060   13.6744    5.7865 C.ar      2 RES2    0.0000
     79 C34       -0.5005   14.6957    5.5144 C.ar      2 RES2    0.0000
     80 H40       -1.3088   14.7509    6.0059 H         2 RES2    0.0000
     81 C35       -0.2233   15.6416    4.5182 C.ar      2 RES2    0.0000
     82 H41       -0.8444   16.3372    4.3360 H         2 RES2    0.0000
     83 C36        0.9537   15.5604    3.8047 C.ar      2 RES2    0.0000
     84 H42        1.1591   16.2215    3.1519 H         2 RES2    0.0000
     85 C37        1.8450   14.5127    4.0362 C.ar      2 RES2    0.0000
     86 H43        2.6365   14.4333    3.5162 H         2 RES2    0.0000
     87 C38        1.5700   13.5875    5.0362 C.ar      2 RES2    0.0000
     88 H44        2.1856   12.8850    5.2089 H         2 RES2    0.0000
     89 O3         6.0815    2.2824    4.3559 O.3       3 RES3    0.0000
     90 H45        6.1886    3.0724    4.3265 H         3 RES3    0.0000
     91 N5         5.5362    1.9755    5.6294 N.2       3 RES3    0.0000
     92 N6         4.5997   -1.9223    6.0799 N.3       3 RES3    0.0000
     93 H46        4.2025   -2.6236    6.0154 H         3 RES3    0.0000
     94 C39        3.9596   -0.8924    6.9218 C.3       3 RES3    0.0000
     95 H47        3.1869   -0.4988    6.4233 H         3 RES3    0.0000
     96 C40        4.9939    0.2278    7.2133 C.3       3 RES3    0.0000
     97 H48        5.7516   -0.2158    7.6928 H         3 RES3    0.0000
     98 C41        5.5702    0.7318    5.8990 C.2       3 RES3    0.0000
     99 C42        6.0881   -0.3383    4.9789 C.3       3 RES3    0.0000
    100 H49        6.8946   -0.7560    5.3721 H         3 RES3    0.0000
    101 H50        6.3403    0.0604    4.1083 H         3 RES3    0.0000
    102 C43        5.0032   -1.4069    4.7649 C.3       3 RES3    0.0000
    103 H51        4.2122   -0.9787    4.3284 H         3 RES3    0.0000
    104 C44        3.4432   -1.5414    8.1947 C.ar      3 RES3    0.0000
    105 C45        4.3578   -2.2180    9.0143 C.ar      3 RES3    0.0000
    106 H52        5.2725   -2.2853    8.7688 H         3 RES3    0.0000
    107 C46        3.8926   -2.7945   10.2085 C.ar      3 RES3    0.0000
    108 H53        4.4993   -3.2467   10.7821 H         3 RES3    0.0000
    109 C47        2.5514   -2.7099   10.5544 C.ar      3 RES3    0.0000
    110 H54        2.2431   -3.1086   11.3609 H         3 RES3    0.0000
    111 C48        1.6673   -2.0506    9.7327 C.ar      3 RES3    0.0000
    112 H55        0.7519   -1.9901    9.9756 H         3 RES3    0.0000
    113 C49        2.1080   -1.4741    8.5581 C.ar      3 RES3    0.0000
    114 H56        1.4869   -1.0253    7.9945 H         3 RES3    0.0000
    115 C50        4.4763    1.3273    8.1598 C.3       3 RES3    0.0000
    116 H57        4.3582    0.9269    9.0572 H         3 RES3    0.0000
    117 H58        5.1782    2.0212    8.2374 H         3 RES3    0.0000
    118 C51        3.1823    2.0091    7.7744 C.3       3 RES3    0.0000
    119 H59        2.9548    2.6840    8.4500 H         3 RES3    0.0000
    120 H60        2.4637    1.3429    7.7251 H         3 RES3    0.0000
    121 H61        3.2885    2.4424    6.9034 H         3 RES3    0.0000
    122 C52        5.5331   -2.5045    3.8523 C.ar      3 RES3    0.0000
    123 C53        5.7802   -3.7852    4.2772 C.ar      3 RES3    0.0000
    124 H62        5.5979   -4.0286    5.1766 H         3 RES3    0.0000
    125 C54        6.3055   -4.7415    3.3834 C.ar      3 RES3    0.0000
    126 H63        6.4684   -5.6304    3.6794 H         3 RES3    0.0000
    127 C55        6.5845   -4.3876    2.0722 C.ar      3 RES3    0.0000
    128 H64        6.9643   -5.0177    1.4706 H         3 RES3    0.0000
    129 C56        6.3070   -3.1242    1.6623 C.ar      3 RES3    0.0000
    130 H65        6.4619   -2.8912    0.7533 H         3 RES3    0.0000
    131 C57        5.8055   -2.1628    2.5295 C.ar      3 RES3    0.0000
    132 H66        5.6489   -1.2773    2.2240 H         3 RES3    0.0000
    133 O4         5.0887    4.6636    6.2685 O.3       4 RES4    0.0000
    134 H67        5.3582    3.7801    6.3000 H         4 RES4    0.0000
    135 N7         5.6785    4.9878    5.0129 N.2       4 RES4    0.0000
    136 N8         5.5158    8.9270    4.1028 N.3       4 RES4    0.0000
    137 H68        5.2514    9.5796    3.7762 H         4 RES4    0.0000
    138 C58        5.7345    7.9364    3.0287 C.3       4 RES4    0.0000
    139 H69        4.8443    7.6067    2.7117 H         4 RES4    0.0000
    140 C59        6.5364    6.7368    3.5899 C.3       4 RES4    0.0000
    141 H70        7.4427    7.0803    3.8407 H         4 RES4    0.0000
    142 C60        5.8844    6.2311    4.8567 C.2       4 RES4    0.0000
    143 C61        5.5429    7.2961    5.8816 C.3       4 RES4    0.0000
    144 H71        6.3749    7.6741    6.2620 H         4 RES4    0.0000
    145 H72        5.0200    6.8922    6.6207 H         4 RES4    0.0000
    146 C62        4.7187    8.4180    5.2163 C.3       4 RES4    0.0000
    147 H73        3.8680    8.0314    4.8597 H         4 RES4    0.0000
    148 C63        6.4325    8.6355    1.8748 C.ar      4 RES4    0.0000
    149 C64        7.6220    9.3259    2.1196 C.ar      4 RES4    0.0000
    150 H74        7.9690    9.3691    3.0020 H         4 RES4    0.0000
    151 C65        8.2988    9.9490    1.0740 C.ar      4 RES4    0.0000
    152 H75        9.1054   10.4237    1.2391 H         4 RES4    0.0000
    153 C66        7.7669    9.8696   -0.2353 C.ar      4 RES4    0.0000
    154 H76        8.2261   10.2770   -0.9602 H         4 RES4    0.0000
    155 C67        6.6140    9.2154   -0.4516 C.ar      4 RES4    0.0000
    156 H77        6.2534    9.1844   -1.3302 H         4 RES4    0.0000
    157 C68        5.9398    8.5837    0.5883 C.ar      4 RES4    0.0000
    158 H78        5.1332    8.1125    0.4099 H         4 RES4    0.0000
    159 C69        6.7451    5.6494    2.5046 C.3       4 RES4    0.0000
    160 H79        5.9328    5.0867    2.4574 H         4 RES4    0.0000
    161 H80        6.8547    6.0930    1.6262 H         4 RES4    0.0000
    162 C70        7.9645    4.7380    2.7534 C.3       4 RES4    0.0000
    163 H81        8.0296    4.0770    2.0304 H         4 RES4    0.0000
    164 H82        7.8572    4.2755    3.6092 H         4 RES4    0.0000
    165 H83        8.7788    5.2817    2.7743 H         4 RES4    0.0000
    166 C71        4.3908    9.4657    6.2374 C.ar      4 RES4    0.0000
    167 C72        5.2611   10.5083    6.5372 C.ar      4 RES4    0.0000
    168 H84        6.0873   10.5946    6.0761 H         4 RES4    0.0000
    169 C73        4.9013   11.4248    7.5239 C.ar      4 RES4    0.0000
    170 H85        5.4853   12.1446    7.7270 H         4 RES4    0.0000
    171 C74        3.7173   11.3057    8.2090 C.ar      4 RES4    0.0000
    172 H86        3.4902   11.9443    8.8750 H         4 RES4    0.0000
    173 C75        2.8578   10.2649    7.9376 C.ar      4 RES4    0.0000
    174 H87        2.0558   10.1613    8.4329 H         4 RES4    0.0000
    175 C76        3.1800    9.3742    6.9338 C.ar      4 RES4    0.0000
    176 H88        2.5658    8.6838    6.7099 H         4 RES4    0.0000
    177 O5        -5.7172    0.0942   17.2172 O.3       5 RES5    0.0000
    178 H89       -5.6134   -0.8803   17.0973 H         5 RES5    0.0000
    179 N9        -5.0820    0.4426   15.9868 N.2       5 RES5    0.0000
    180 N10       -4.0682    4.3416   15.6481 N.3       5 RES5    0.0000
    181 H90       -3.3723    4.9365   15.8069 H         5 RES5    0.0000
    182 C77       -3.4148    3.3330   14.7925 C.3       5 RES5    0.0000
    183 H91       -2.6253    2.9533   15.2718 H         5 RES5    0.0000
    184 C78       -4.4363    2.1904   14.4906 C.3       5 RES5    0.0000
    185 H92       -5.1763    2.5856   13.9454 H         5 RES5    0.0000
    186 C79       -5.0375    1.7071   15.7891 C.2       5 RES5    0.0000
    187 C80       -5.5636    2.7600   16.7064 C.3       5 RES5    0.0000
    188 H93       -5.8365    2.3509   17.5660 H         5 RES5    0.0000
    189 H94       -6.3553    3.1932   16.3022 H         5 RES5    0.0000
    190 C81       -4.4520    3.8161   16.9531 C.3       5 RES5    0.0000
    191 H95       -3.6636    3.3883   17.3952 H         5 RES5    0.0000
    192 C82       -2.9500    4.0062   13.5029 C.ar      5 RES5    0.0000
    193 C83       -3.8695    4.7242   12.7118 C.ar      5 RES5    0.0000
    194 H96       -4.7756    4.7898   12.9909 H         5 RES5    0.0000
    195 C84       -3.4744    5.3335   11.5374 C.ar      5 RES5    0.0000
    196 H97       -4.1064    5.8134   11.0155 H         5 RES5    0.0000
    197 C85       -2.1738    5.2489   11.1237 C.ar      5 RES5    0.0000
    198 H98       -1.9073    5.6667   10.3134 H         5 RES5    0.0000
    199 C86       -1.2353    4.5516   11.8903 C.ar      5 RES5    0.0000
    200 H99       -0.3309    4.4964   11.6019 H         5 RES5    0.0000
    201 C87       -1.6305    3.9354   13.0782 C.ar      5 RES5    0.0000
    202 H100      -0.9906    3.4659   13.6000 H         5 RES5    0.0000
    203 C88       -3.7624    1.0615   13.6266 C.3       5 RES5    0.0000
    204 H101      -3.1014    1.4810   13.0194 H         5 RES5    0.0000
    205 H102      -3.2688    0.4540   14.2319 H         5 RES5    0.0000
    206 C89       -4.6919    0.2589   12.8182 C.3       5 RES5    0.0000
    207 H103      -4.1906   -0.4160   12.3154 H         5 RES5    0.0000
    208 H104      -5.1701    0.8423   12.1920 H         5 RES5    0.0000
    209 H105      -5.3383   -0.1847   13.4065 H         5 RES5    0.0000
    210 C90       -5.0230    4.9141   17.8474 C.ar      5 RES5    0.0000
    211 C91       -5.7370    6.0032   17.3497 C.ar      5 RES5    0.0000
    212 H106      -5.8450    6.1016   16.4104 H         5 RES5    0.0000
    213 C92       -6.2899    6.9422   18.2036 C.ar      5 RES5    0.0000
    214 H107      -6.7629    7.6861   17.8506 H         5 RES5    0.0000
    215 C93       -6.1509    6.7920   19.5869 C.ar      5 RES5    0.0000
    216 H108      -6.5268    7.4341   20.1752 H         5 RES5    0.0000
    217 C94       -5.4619    5.7081   20.0917 C.ar      5 RES5    0.0000
    218 H109      -5.3776    5.5993   21.0310 H         5 RES5    0.0000
    219 C95       -4.8908    4.7760   19.2325 C.ar      5 RES5    0.0000
    220 H110      -4.4075    4.0407   19.5888 H         5 RES5    0.0000
    221 O6        -4.5133   -2.1935   15.2354 O.3       6 RES6    0.0000
    222 H111      -4.6240   -1.3636   15.2794 H         6 RES6    0.0000
    223 N11       -5.2371   -2.5377   16.4248 N.2       6 RES6    0.0000
    224 N12       -5.0586   -6.4572   17.4083 N.3       6 RES6    0.0000
    225 H112      -4.5323   -7.1459   17.8544 H         6 RES6    0.0000
    226 C96       -5.3460   -5.4216   18.4281 C.3       6 RES6    0.0000
    227 H113      -4.4852   -5.0453   18.7710 H         6 RES6    0.0000
    228 C97       -6.1793   -4.2893   17.7785 C.3       6 RES6    0.0000
    229 H114      -7.0170   -4.7156   17.4370 H         6 RES6    0.0000
    230 C98       -5.4155   -3.7956   16.5489 C.2       6 RES6    0.0000
    231 C99       -4.9427   -4.8589   15.5963 C.3       6 RES6    0.0000
    232 H115      -4.3522   -4.4515   14.9132 H         6 RES6    0.0000
    233 H116      -5.7208   -5.2559   15.1314 H         6 RES6    0.0000
    234 C100      -4.1806   -5.9532   16.3422 C.3       6 RES6    0.0000
    235 H117      -3.3651   -5.5510   16.7595 H         6 RES6    0.0000
    236 C101      -6.0952   -6.0706   19.5642 C.ar      6 RES6    0.0000
    237 C102      -5.5339   -6.1396   20.8299 C.ar      6 RES6    0.0000
    238 H118      -4.6727   -5.7719   20.9836 H         6 RES6    0.0000
    239 C103      -6.2274   -6.7506   21.8906 C.ar      6 RES6    0.0000
    240 H119      -5.8391   -6.8145   22.7559 H         6 RES6    0.0000
    241 C104      -7.5317   -7.2702   21.6287 C.ar      6 RES6    0.0000
    242 H120      -8.0229   -7.6758   22.3327 H         6 RES6    0.0000
    243 C105      -8.0720   -7.1959   20.3953 C.ar      6 RES6    0.0000
    244 H121      -8.9365   -7.5567   20.2359 H         6 RES6    0.0000
    245 C106      -7.3784   -6.5970   19.3649 C.ar      6 RES6    0.0000
    246 H122      -7.7782   -6.5418   18.5034 H         6 RES6    0.0000
    247 C107      -6.6198   -3.1898   18.7558 C.3       6 RES6    0.0000
    248 H123      -7.0989   -2.4907   18.2453 H         6 RES6    0.0000
    249 H124      -7.2645   -3.5816   19.3972 H         6 RES6    0.0000
    250 C108      -5.5537   -2.5546   19.5110 C.3       6 RES6    0.0000
    251 H125      -5.9330   -1.8762   20.1069 H         6 RES6    0.0000
    252 H126      -4.9224   -2.1317   18.8905 H         6 RES6    0.0000
    253 H127      -5.0821   -3.2312   20.0424 H         6 RES6    0.0000
    254 C109      -3.7493   -7.0458   15.3855 C.ar      6 RES6    0.0000
    255 C110      -4.3283   -8.3041   15.3553 C.ar      6 RES6    0.0000
    256 H128      -5.0363   -8.5129   15.9530 H         6 RES6    0.0000
    257 C111      -3.8746   -9.2638   14.4539 C.ar      6 RES6    0.0000
    258 H129      -4.2646  -10.1285   14.4558 H         6 RES6    0.0000
    259 C112      -2.8711   -8.9790   13.5602 C.ar      6 RES6    0.0000
    260 H130      -2.5857   -9.6331   12.9359 H         6 RES6    0.0000
    261 C113      -2.2800   -7.7258   13.5811 C.ar      6 RES6    0.0000
    262 H131      -1.5913   -7.5118   12.9605 H         6 RES6    0.0000
    263 C114      -2.6969   -6.7817   14.5147 C.ar      6 RES6    0.0000
    264 H132      -2.2535   -5.9411   14.5564 H         6 RES6    0.0000
    265 O7         1.8140   13.1904   13.7685 O.3       7 RES7    0.0000
    266 H133       1.8212   12.3931   13.7955 H         7 RES7    0.0000
    267 N13        1.2037   13.5399   15.0101 N.2       7 RES7    0.0000
    268 N14        0.2806   17.4950   15.4496 N.3       7 RES7    0.0000
    269 H134      -0.1136   18.2099   15.3705 H         7 RES7    0.0000
    270 C115      -0.3681   16.4528   16.2988 C.3       7 RES7    0.0000
    271 H135      -1.1717   16.1007   15.8202 H         7 RES7    0.0000
    272 C116       0.5997   15.3153   16.5314 C.3       7 RES7    0.0000
    273 H136       1.3844   15.7158   17.0081 H         7 RES7    0.0000
    274 C117       1.1356   14.8010   15.2069 C.2       7 RES7    0.0000
    275 C118       1.6295   15.8711   14.2471 C.3       7 RES7    0.0000
    276 H137       2.4901   16.2336   14.5773 H         7 RES7    0.0000
    277 H138       1.7888   15.4655   13.3590 H         7 RES7    0.0000
    278 C119       0.6304   17.0017   14.1101 C.3       7 RES7    0.0000
    279 H139      -0.1931   16.6548   13.6627 H         7 RES7    0.0000
    280 C120      -0.8143   17.1242   17.5780 C.ar      7 RES7    0.0000
    281 C121       0.0844   17.7128   18.4370 C.ar      7 RES7    0.0000
    282 H140       1.0113   17.6835   18.2302 H         7 RES7    0.0000
    283 C122      -0.3310   18.3515   19.6040 C.ar      7 RES7    0.0000
    284 H141       0.3055   18.7416   20.1904 H         7 RES7    0.0000
    285 C123      -1.6723   18.4136   19.9019 C.ar      7 RES7    0.0000
    286 H142      -1.9596   18.8486   20.6970 H         7 RES7    0.0000
    287 C124      -2.6036   17.8440   19.0537 C.ar      7 RES7    0.0000
    288 H143      -3.5305   17.8923   19.2605 H         7 RES7    0.0000
    289 C125      -2.1741   17.1985   17.8905 C.ar      7 RES7    0.0000
    290 H144      -2.8134   16.8066   17.3060 H         7 RES7    0.0000
    291 C126       0.0588   14.2176   17.4597 C.3       7 RES7    0.0000
    292 H145       0.7644   13.5323   17.5641 H         7 RES7    0.0000
    293 H146      -0.0963   14.6197   18.3516 H         7 RES7    0.0000
    294 C127      -1.1594   13.5444   17.0593 C.3       7 RES7    0.0000
    295 H147      -1.3998   12.8764   17.7330 H         7 RES7    0.0000
    296 H148      -1.0210   13.1025   16.1959 H         7 RES7    0.0000
    297 H149      -1.8823   14.2003   16.9758 H         7 RES7    0.0000
    298 C128       1.2158   18.1219   13.2717 C.ar      7 RES7    0.0000
    299 C129       2.0859   19.0626   13.8088 C.ar      7 RES7    0.0000
    300 H150       2.3054   19.0264   14.7329 H         7 RES7    0.0000
    301 C130       2.6445   20.0689   12.9947 C.ar      7 RES7    0.0000
    302 H151       3.2357   20.7110   13.3704 H         7 RES7    0.0000
    303 C131       2.3295   20.1207   11.6645 C.ar      7 RES7    0.0000
    304 H152       2.7031   20.8007   11.1161 H         7 RES7    0.0000
    305 C132       1.4631   19.1783   11.1104 C.ar      7 RES7    0.0000
    306 H153       1.2515   19.2093   10.1863 H         7 RES7    0.0000
    307 C133       0.9105   18.1927   11.9245 C.ar      7 RES7    0.0000
    308 H154       0.3142   17.5575   11.5468 H         7 RES7    0.0000
    309 O8         0.9554   10.8571   15.8652 O.3       8 RES8    0.0000
    310 H155       1.0469   11.7199   15.8639 H         8 RES8    0.0000
    311 N15        1.6133   10.5072   14.6511 N.2       8 RES8    0.0000
    312 N16        1.3717    6.5816   13.6699 N.3       8 RES8    0.0000
    313 H156       0.9235    5.8168   13.2452 H         8 RES8    0.0000
    314 C134       1.5918    7.6206   12.6436 C.3       8 RES8    0.0000
    315 H157       0.7067    8.0193   12.4027 H         8 RES8    0.0000
    316 C135       2.4838    8.7339   13.2547 C.3       8 RES8    0.0000
    317 H158       3.3163    8.2730   13.5640 H         8 RES8    0.0000
    318 C136       1.8043    9.2413   14.5166 C.2       8 RES8    0.0000
    319 C137       1.3956    8.1781   15.5109 C.3       8 RES8    0.0000
    320 H159       0.8555    8.5837   16.2358 H         8 RES8    0.0000
    321 H160       2.1992    7.7655   15.9151 H         8 RES8    0.0000
    322 C138       0.5703    7.1096   14.7781 C.3       8 RES8    0.0000
    323 H161      -0.2437    7.5463   14.3970 H         8 RES8    0.0000
    324 C139       2.1933    6.9871   11.3969 C.ar      8 RES8    0.0000
    325 C140       3.4810    6.5193   11.4064 C.ar      8 RES8    0.0000
    326 H162       4.0090    6.5608   12.1939 H         8 RES8    0.0000
    327 C141       4.0081    5.9704   10.1977 C.ar      8 RES8    0.0000
    328 H163       4.9175    5.6977   10.1654 H         8 RES8    0.0000
    329 C142       3.2158    5.8289    9.0762 C.ar      8 RES8    0.0000
    330 H164       3.5612    5.4198    8.2925 H         8 RES8    0.0000
    331 C143       1.9632    6.2742    9.1027 C.ar      8 RES8    0.0000
    332 H165       1.4295    6.2052    8.3190 H         8 RES8    0.0000
    333 C144       1.4127    6.8335   10.2451 C.ar      8 RES8    0.0000
    334 H166       0.5051    7.1148   10.2470 H         8 RES8    0.0000
    335 C145       2.9593    9.8420   12.2831 C.3       8 RES8    0.0000
    336 H167       3.4189   10.5531   12.7974 H         8 RES8    0.0000
    337 H168       3.6111    9.4605   11.6436 H         8 RES8    0.0000
    338 C146       1.8266   10.4340   11.5355 C.3       8 RES8    0.0000
    339 H169       2.1619   11.1296   10.9320 H         8 RES8    0.0000
    340 H170       1.1882   10.8276   12.1674 H         8 RES8    0.0000
    341 H171       1.3803    9.7350   11.0136 H         8 RES8    0.0000
    342 C147       0.1239    6.0153   15.7377 C.ar      8 RES8    0.0000
    343 C148       0.7050    4.7484   15.7633 C.ar      8 RES8    0.0000
    344 H172       1.4077    4.5413   15.1599 H         8 RES8    0.0000
    345 C149       0.2696    3.7887   16.6589 C.ar      8 RES8    0.0000
    346 H173       0.6594    2.9222   16.6533 H         8 RES8    0.0000
    347 C150      -0.7339    4.0856   17.5660 C.ar      8 RES8    0.0000
    348 H174      -1.0212    3.4297   18.1903 H         8 RES8    0.0000
    349 C151      -1.3178    5.3404   17.5641 C.ar      8 RES8    0.0000
    350 H175      -2.0095    5.5476   18.1827 H         8 RES8    0.0000
    351 C152      -0.8852    6.2915   16.6571 C.ar      8 RES8    0.0000
    352 H176      -1.2859    7.1528   16.6608 H         8 RES8    0.0000
@<TRIPOS>BOND
     1    1    2 1
     2    3    1 1
     3    4    5 1
     4    6    4 1
     5    7    6 1
     6    8    6 1
     7    9    8 1
     8   10    3 2
     9   11   10 1
    10   12   11 1
    11   13   11 1
    12   14    4 1
    13   15   14 1
    14   16    6 1
    15   17   16 ar
    16   18   17 1
    17   19   17 ar
    18   20   19 1
    19   21   19 ar
    20   22   21 1
    21   23   21 ar
    22   24   23 1
    23   25   16 ar
    24   26   25 1
    25   27    8 1
    26   28   27 1
    27   29   27 1
    28   30   27 1
    29   31   30 1
    30   32   30 1
    31   33   30 1
    32   34   14 1
    33   35   34 ar
    34   36   35 1
    35   37   35 ar
    36   38   37 1
    37   39   37 ar
    38   40   39 1
    39   41   39 ar
    40   42   41 1
    41   43   34 ar
    42   44   43 1
    43   45   46 1
    44   47   45 1
    45   48   49 1
    46   50   48 1
    47   51   50 1
    48   52   50 1
    49   53   52 1
    50   54   47 2
    51   55   54 1
    52   56   55 1
    53   57   55 1
    54   58   48 1
    55   59   58 1
    56   60   50 1
    57   61   60 ar
    58   62   61 1
    59   63   61 ar
    60   64   63 1
    61   65   63 ar
    62   66   65 1
    63   67   65 ar
    64   68   67 1
    65   69   60 ar
    66   70   69 1
    67   71   52 1
    68   72   71 1
    69   73   71 1
    70   74   71 1
    71   75   74 1
    72   76   74 1
    73   77   74 1
    74   78   58 1
    75   79   78 ar
    76   80   79 1
    77   81   79 ar
    78   82   81 1
    79   83   81 ar
    80   84   83 1
    81   85   83 ar
    82   86   85 1
    83   87   78 ar
    84   88   87 1
    85   89   90 1
    86   91   89 1
    87   92   93 1
    88   94   92 1
    89   95   94 1
    90   96   94 1
    91   97   96 1
    92   98   91 2
    93   99   98 1
    94  100   99 1
    95  101   99 1
    96  102   92 1
    97  103  102 1
    98  104   94 1
    99  105  104 ar
   100  106  105 1
   101  107  105 ar
   102  108  107 1
   103  109  107 ar
   104  110  109 1
   105  111  109 ar
   106  112  111 1
   107  113  104 ar
   108  114  113 1
   109  115   96 1
   110  116  115 1
   111  117  115 1
   112  118  115 1
   113  119  118 1
   114  120  118 1
   115  121  118 1
   116  122  102 1
   117  123  122 ar
   118  124  123 1
   119  125  123 ar
   120  126  125 1
   121  127  125 ar
   122  128  127 1
   123  129  127 ar
   124  130  129 1
   125  131  122 ar
   126  132  131 1
   127  133  134 1
   128  135  133 1
   129  136  137 1
   130  138  136 1
   131  139  138 1
   132  140  138 1
   133  141  140 1
   134  142  135 2
   135  143  142 1
   136  144  143 1
   137  145  143 1
   138  146  136 1
   139  147  146 1
   140  148  138 1
   141  149  148 ar
   142  150  149 1
   143  151  149 ar
   144  152  151 1
   145  153  151 ar
   146  154  153 1
   147  155  153 ar
   148  156  155 1
   149  157  148 ar
   150  158  157 1
   151  159  140 1
   152  160  159 1
   153  161  159 1
   154  162  159 1
   155  163  162 1
   156  164  162 1
   157  165  162 1
   158  166  146 1
   159  167  166 ar
   160  168  167 1
   161  169  167 ar
   162  170  169 1
   163  171  169 ar
   164  172  171 1
   165  173  171 ar
   166  174  173 1
   167  175  166 ar
   168  176  175 1
   169  177  178 1
   170  179  177 1
   171  180  181 1
   172  182  180 1
   173  183  182 1
   174  184  182 1
   175  185  184 1
   176  186  179 2
   177  187  186 1
   178  188  187 1
   179  189  187 1
   180  190  180 1
   181  191  190 1
   182  192  182 1
   183  193  192 ar
   184  194  193 1
   185  195  193 ar
   186  196  195 1
   187  197  195 ar
   188  198  197 1
   189  199  197 ar
   190  200  199 1
   191  201  192 ar
   192  202  201 1
   193  203  184 1
   194  204  203 1
   195  205  203 1
   196  206  203 1
   197  207  206 1
   198  208  206 1
   199  209  206 1
   200  210  190 1
   201  211  210 ar
   202  212  211 1
   203  213  211 ar
   204  214  213 1
   205  215  213 ar
   206  216  215 1
   207  217  215 ar
   208  218  217 1
   209  219  210 ar
   210  220  219 1
   211  221  222 1
   212  223  221 1
   213  224  225 1
   214  226  224 1
   215  227  226 1
   216  228  226 1
   217  229  228 1
   218  230  223 2
   219  231  230 1
   220  232  231 1
   221  233  231 1
   222  234  224 1
   223  235  234 1
   224  236  226 1
   225  237  236 ar
   226  238  237 1
   227  239  237 ar
   228  240  239 1
   229  241  239 ar
   230  242  241 1
   231  243  241 ar
   232  244  243 1
   233  245  236 ar
   234  246  245 1
   235  247  228 1
   236  248  247 1
   237  249  247 1
   238  250  247 1
   239  251  250 1
   240  252  250 1
   241  253  250 1
   242  254  234 1
   243  255  254 ar
   244  256  255 1
   245  257  255 ar
   246  258  257 1
   247  259  257 ar
   248  260  259 1
   249  261  259 ar
   250  262  261 1
   251  263  254 ar
   252  264  263 1
   253  265  266 1
   254  267  265 1
   255  268  269 1
   256  270  268 1
   257  271  270 1
   258  272  270 1
   259  273  272 1
   260  274  267 2
   261  275  274 1
   262  276  275 1
   263  277  275 1
   264  278  268 1
   265  279  278 1
   266  280  270 1
   267  281  280 ar
   268  282  281 1
   269  283  281 ar
   270  284  283 1
   271  285  283 ar
   272  286  285 1
   273  287  285 ar
   274  288  287 1
   275  289  280 ar
   276  290  289 1
   277  291  272 1
   278  292  291 1
   279  293  291 1
   280  294  291 1
   281  295  294 1
   282  296  294 1
   283  297  294 1
   284  298  278 1
   285  299  298 ar
   286  300  299 1
   287  301  299 ar
   288  302  301 1
   289  303  301 ar
   290  304  303 1
   291  305  303 ar
   292  306  305 1
   293  307  298 ar
   294  308  307 1
   295  309  310 1
   296  311  309 1
   297  312  313 1
   298  314  312 1
   299  315  314 1
   300  316  314 1
   301  317  316 1
   302  318  311 2
   303  319  318 1
   304  320  319 1
   305  321  319 1
   306  322  312 1
   307  323  322 1
   308  324  314 1
   309  325  324 ar
   310  326  325 1
   311  327  325 ar
   312  328  327 1
   313  329  327 ar
   314  330  329 1
   315  331  329 ar
   316  332  331 1
   317  333  324 ar
   318  334  333 1
   319  335  316 1
   320  336  335 1
   321  337  335 1
   322  338  335 1
   323  339  338 1
   324  340  338 1
   325  341  338 1
   326  342  322 1
   327  343  342 ar
   328  344  343 1
   329  345  343 ar
   330  346  345 1
   331  347  345 ar
   332  348  347 1
   333  349  347 ar
   334  350  349 1
   335  351  342 ar
   336  352  351 1
   337    8   10 1
   338   11   14 1
   339   23   25 ar
   340   41   43 ar
   341   52   54 1
   342   55   58 1
   343   67   69 ar
   344   85   87 ar
   345   96   98 1
   346   99  102 1
   347  111  113 ar
   348  129  131 ar
   349  140  142 1
   350  143  146 1
   351  155  157 ar
   352  173  175 ar
   353  184  186 1
   354  187  190 1
   355  199  201 ar
   356  217  219 ar
   357  228  230 1
   358  231  234 1
   359  243  245 ar
   360  261  263 ar
   361  272  274 1
   362  275  278 1
   363  287  289 ar
   364  305  307 ar
   365  316  318 1
   366  319  322 1
   367  331  333 ar
   368  349  351 ar
@<TRIPOS>SUBSTRUCTURE
     1 RES1 1
     2 RES2 45
     3 RES3 89
     4 RES4 133
     5 RES5 177
     6 RES6 221
     7 RES7 265
     8 RES8 309

@<TRIPOS>CRYSIN
  19.7547   17.2606   20.8149  90.0000 114.2656  90.0000   7 2

