# MOL2 file generated by ConQuest
# Please check atom types

@<TRIPOS>MOLECULE
LUPBAA
    40    42     1
SMALL
NO_CHARGES
****
Generated from CSD

@<TRIPOS>ATOM
      1 O1        -1.4132   -7.4461   -3.2906 O.3       1 RES1    0.0000
      2 O2        -0.6412   -9.7648   -4.9591 O.3       1 RES1    0.0000
      3 H1        -1.0426   -9.6998   -5.6942 H         1 RES1    0.0000
      4 O3        -1.0846   -9.0312   -7.5660 O.2       1 RES1    0.0000
      5 O4         3.3067   -5.7619  -12.0835 O.2       1 RES1    0.0000
      6 O5         2.1162   -7.0628  -13.3207 O.2       1 RES1    0.0000
      7 N1        -1.3572   -6.8701   -6.9198 N.am      1 RES1    0.0000
      8 N2         2.3599   -6.5055  -12.2509 N.pl3     1 RES1    0.0000
      9 C1        -1.9535   -7.1895   -5.6195 C.3       1 RES1    0.0000
     10 H2        -2.4958   -8.0277   -5.6774 H         1 RES1    0.0000
     11 C2        -2.8563   -5.9800   -5.3092 C.3       1 RES1    0.0000
     12 H3        -3.7901   -6.2730   -5.1612 H         1 RES1    0.0000
     13 H4        -2.5397   -5.5108   -4.4969 H         1 RES1    0.0000
     14 C3        -2.7724   -5.0944   -6.4833 C.3       1 RES1    0.0000
     15 H5        -2.7424   -4.1482   -6.1937 H         1 RES1    0.0000
     16 H6        -3.5664   -5.2200   -7.0601 H         1 RES1    0.0000
     17 C4        -1.5350   -5.4370   -7.2339 C.3       1 RES1    0.0000
     18 H7        -1.6548   -5.2938   -8.2072 H         1 RES1    0.0000
     19 H8        -0.7640   -4.9017   -6.9198 H         1 RES1    0.0000
     20 C5        -0.8359   -7.3426   -4.5922 C.3       1 RES1    0.0000
     21 H9        -0.2647   -6.5231   -4.6218 H         1 RES1    0.0000
     22 C6         0.0649   -8.5620   -4.6990 C.3       1 RES1    0.0000
     23 H10        0.7920   -8.4177   -5.3697 H         1 RES1    0.0000
     24 C7         0.6302   -8.6446   -3.2829 C.3       1 RES1    0.0000
     25 H11        0.6661   -9.5842   -2.9713 H         1 RES1    0.0000
     26 H12        1.5420   -8.2590   -3.2442 H         1 RES1    0.0000
     27 C8        -0.3366   -7.8328   -2.4396 C.3       1 RES1    0.0000
     28 H13       -0.6741   -8.3769   -1.6852 H         1 RES1    0.0000
     29 H14        0.1168   -7.0320   -2.0740 H         1 RES1    0.0000
     30 C9        -0.9178   -7.8184   -7.7746 C.2       1 RES1    0.0000
     31 C10       -0.1278   -7.3845   -8.9732 C.ar      1 RES1    0.0000
     32 C11        0.9228   -6.5000   -8.8290 C.ar      1 RES1    0.0000
     33 H15        1.0796   -6.0880   -7.9870 H         1 RES1    0.0000
     34 C12        1.7497   -6.2092   -9.8975 C.ar      1 RES1    0.0000
     35 H16        2.4908   -5.6232   -9.7945 H         1 RES1    0.0000
     36 C13        1.4691   -6.7907  -11.1206 C.ar      1 RES1    0.0000
     37 C14        0.4155   -7.6786  -11.2866 C.ar      1 RES1    0.0000
     38 H17        0.2447   -8.0685  -12.1363 H         1 RES1    0.0000
     39 C15       -0.3755   -7.9848  -10.2104 C.ar      1 RES1    0.0000
     40 H18       -1.0906   -8.6038  -10.3056 H         1 RES1    0.0000
@<TRIPOS>BOND
     1    1   20 1
     2    2    3 1
     3    4   30 2
     4    5    8 2
     5    6    8 2
     6    7    9 1
     7    8   36 1
     8    9   10 1
     9   11    9 1
    10   12   11 1
    11   13   11 1
    12   14   11 1
    13   15   14 1
    14   16   14 1
    15   17    7 1
    16   18   17 1
    17   19   17 1
    18   20    9 1
    19   21   20 1
    20   22    2 1
    21   23   22 1
    22   24   22 1
    23   25   24 1
    24   26   24 1
    25   27    1 1
    26   28   27 1
    27   29   27 1
    28   30    7 1
    29   31   30 1
    30   32   31 ar
    31   33   32 1
    32   34   32 ar
    33   35   34 1
    34   36   34 ar
    35   37   36 ar
    36   38   37 1
    37   39   31 ar
    38   40   39 1
    39   14   17 1
    40   20   22 1
    41   24   27 1
    42   37   39 ar
@<TRIPOS>SUBSTRUCTURE
     1 RES1 1

@<TRIPOS>CRYSIN
   9.9870   11.0150   12.8740  90.0000  90.0000  90.0000  19 1

