# MOL2 file generated by ConQuest
# Please check atom types

@<TRIPOS>MOLECULE
LUPFUZ
    45    47     1
SMALL
NO_CHARGES
****
Generated from CSD

@<TRIPOS>ATOM
      1 O1        -1.2053    3.6624   -2.2181 O.2       1 RES1    0.0000
      2 O2         0.9217    4.1503   -1.6965 O.3       1 RES1    0.0000
      3 O3         1.1630    2.4773   -4.8759 O.3       1 RES1    0.0000
      4 O4         0.0386    2.5453    0.7402 O.2       1 RES1    0.0000
      5 N1         1.2456    2.3591   -6.2937 N.2       1 RES1    0.0000
      6 N2         1.3721    1.6510   -0.8475 N.am      1 RES1    0.0000
      7 H1         2.0611    1.5557   -1.1098 H         1 RES1    0.0000
      8 N3         2.2184    2.0760    1.2524 N.am      1 RES1    0.0000
      9 H2         2.8975    1.7513    0.9084 H         1 RES1    0.0000
     10 C1         0.3724    1.8822   -1.8316 C.3       1 RES1    0.0000
     11 C2        -0.6412    0.7906   -2.0832 C.3       1 RES1    0.0000
     12 H3        -0.5825   -0.0281   -1.5307 H         1 RES1    0.0000
     13 H4        -1.5613    1.0635   -2.3263 H         1 RES1    0.0000
     14 C3         0.4501    1.0338   -3.0912 C.3       1 RES1    0.0000
     15 H5         1.1809    0.3520   -3.1057 H         1 RES1    0.0000
     16 C4        -0.0757    3.3011   -1.9414 C.2       1 RES1    0.0000
     17 C5         0.5725    5.5556   -1.5772 C.3       1 RES1    0.0000
     18 H6        -0.2370    5.6661   -1.0191 H         1 RES1    0.0000
     19 H7         0.3973    5.9467   -2.4693 H         1 RES1    0.0000
     20 C6         1.7514    6.2238   -0.9331 C.3       1 RES1    0.0000
     21 H8         2.5560    6.0529   -1.4663 H         1 RES1    0.0000
     22 H9         1.8759    5.8659   -0.0302 H         1 RES1    0.0000
     23 H10        1.5921    7.1895   -0.8822 H         1 RES1    0.0000
     24 C7         0.0836    1.6084   -4.4181 C.3       1 RES1    0.0000
     25 H11       -0.7508    2.1508   -4.3182 H         1 RES1    0.0000
     26 C8        -0.0996    0.6282   -5.5557 C.3       1 RES1    0.0000
     27 H12        0.3565   -0.2312   -5.3716 H         1 RES1    0.0000
     28 H13       -1.0574    0.4591   -5.7402 H         1 RES1    0.0000
     29 C9         0.5476    1.3619   -6.6687 C.2       1 RES1    0.0000
     30 C10        0.4421    0.9802   -8.1005 C.3       1 RES1    0.0000
     31 H14        0.9479    1.6178   -8.6465 H         1 RES1    0.0000
     32 H15       -0.4998    0.9921   -8.3726 H         1 RES1    0.0000
     33 H16        0.8075    0.0799   -8.2256 H         1 RES1    0.0000
     34 C11        1.1530    2.1177    0.4109 C.2       1 RES1    0.0000
     35 C12        2.1557    2.3005    2.6560 C.ar      1 RES1    0.0000
     36 C13        2.8806    1.4673    3.4838 C.ar      1 RES1    0.0000
     37 H17        3.4013    0.7660    3.1098 H         1 RES1    0.0000
     38 C14        2.8527    1.6476    4.8487 C.ar      1 RES1    0.0000
     39 H18        3.3605    1.0746    5.4099 H         1 RES1    0.0000
     40 C15        2.0920    2.6558    5.4050 C.ar      1 RES1    0.0000
     41 H19        2.0571    2.7680    6.3484 H         1 RES1    0.0000
     42 C16        1.3810    3.4991    4.5742 C.ar      1 RES1    0.0000
     43 H20        0.8613    4.1996    4.9507 H         1 RES1    0.0000
     44 C17        1.4149    3.3385    3.2012 C.ar      1 RES1    0.0000
     45 H21        0.9360    3.9336    2.6365 H         1 RES1    0.0000
@<TRIPOS>BOND
     1    1   16 2
     2    2   16 1
     3    3    5 1
     4    4   34 2
     5    5   29 2
     6    6    7 1
     7    8    9 1
     8   10    6 1
     9   11   10 1
    10   12   11 1
    11   13   11 1
    12   14   10 1
    13   15   14 1
    14   16   10 1
    15   17    2 1
    16   18   17 1
    17   19   17 1
    18   20   17 1
    19   21   20 1
    20   22   20 1
    21   23   20 1
    22   24    3 1
    23   25   24 1
    24   26   24 1
    25   27   26 1
    26   28   26 1
    27   29   26 1
    28   30   29 1
    29   31   30 1
    30   32   30 1
    31   33   30 1
    32   34    6 1
    33   35    8 1
    34   36   35 ar
    35   37   36 1
    36   38   36 ar
    37   39   38 1
    38   40   38 ar
    39   41   40 1
    40   42   40 ar
    41   43   42 1
    42   44   35 ar
    43   45   44 1
    44    8   34 1
    45   11   14 1
    46   14   24 1
    47   42   44 ar
@<TRIPOS>SUBSTRUCTURE
     1 RES1 1

@<TRIPOS>CRYSIN
   9.9570    8.5013   20.1410  90.0000  90.0000  90.0000  33 1

