# MOL2 file generated by ConQuest
# Please check atom types

@<TRIPOS>MOLECULE
LUPGUY01
    35    37     1
SMALL
NO_CHARGES
****
Generated from CSD

@<TRIPOS>ATOM
      1 N1         1.6971    2.5034    3.4394 N.2       1 RES1    0.0000
      2 N2         0.9421    3.0548    4.4396 N.am      1 RES1    0.0000
      3 N3         6.6380    1.7219   -0.6049 N.pl3     1 RES1    0.0000
      4 O1        -0.0938    6.0179    5.7777 O.3       1 RES1    0.0000
      5 O2        -0.8959    3.0392    5.7437 O.2       1 RES1    0.0000
      6 O3         6.3660    0.8054   -1.3682 O.2       1 RES1    0.0000
      7 O4         7.7017    2.3574   -0.6481 O.2       1 RES1    0.0000
      8 C1         3.4676    1.8430    1.3433 C.ar      1 RES1    0.0000
      9 C2         4.4327    1.4509    0.4216 C.ar      1 RES1    0.0000
     10 C3         5.6413    2.1364    0.3967 C.ar      1 RES1    0.0000
     11 C4         5.9353    3.1604    1.2595 C.ar      1 RES1    0.0000
     12 C5         4.9697    3.5542    2.1982 C.ar      1 RES1    0.0000
     13 C6         3.7444    2.8662    2.2624 C.ar      1 RES1    0.0000
     14 C7         2.7452    3.2502    3.2770 C.2       1 RES1    0.0000
     15 C8         2.8333    4.4210    4.2249 C.3       1 RES1    0.0000
     16 C9         1.4923    4.3420    4.9738 C.3       1 RES1    0.0000
     17 C10        0.5795    5.5043    4.6832 C.2       1 RES1    0.0000
     18 C11        0.2002    6.1208    3.5716 C.2       1 RES1    0.0000
     19 C12       -0.7961    7.0907    3.9382 C.2       1 RES1    0.0000
     20 C13       -0.9192    6.9905    5.2854 C.2       1 RES1    0.0000
     21 C14       -0.2135    2.4661    4.9005 C.2       1 RES1    0.0000
     22 C15       -0.5652    1.1181    4.3598 C.3       1 RES1    0.0000
     23 H1         2.4682    1.2323    1.3092 H         1 RES1    0.0000
     24 H2         4.1320    0.6445   -0.2226 H         1 RES1    0.0000
     25 H3         6.7919    3.6259    1.2438 H         1 RES1    0.0000
     26 H4         5.1903    4.2764    2.9196 H         1 RES1    0.0000
     27 H5         2.7419    5.1944    3.7183 H         1 RES1    0.0000
     28 H6         3.5483    4.3218    4.8442 H         1 RES1    0.0000
     29 H7         1.6795    4.1282    5.9702 H         1 RES1    0.0000
     30 H8         0.3343    6.0774    2.6709 H         1 RES1    0.0000
     31 H9        -1.1177    7.6323    3.3648 H         1 RES1    0.0000
     32 H10       -1.4583    7.3801    6.0749 H         1 RES1    0.0000
     33 H11       -0.2871    0.9746    3.6266 H         1 RES1    0.0000
     34 H12       -1.4956    0.7278    4.6609 H         1 RES1    0.0000
     35 H13       -0.0741    0.7007    5.0013 H         1 RES1    0.0000
@<TRIPOS>BOND
     1    1    2 1
     2    2   16 1
     3    3    6 2
     4    4   17 1
     5    5   21 2
     6    7    3 2
     7    8    9 ar
     8    9   10 ar
     9   10    3 1
    10   11   10 ar
    11   12   11 ar
    12   13    8 ar
    13   14    1 2
    14   15   14 1
    15   16   15 1
    16   17   16 1
    17   18   17 2
    18   19   18 1
    19   20    4 1
    20   21    2 1
    21   22   21 1
    22   23    8 1
    23   24    9 1
    24   25   11 1
    25   26   12 1
    26   27   15 1
    27   28   15 1
    28   29   16 1
    29   30   18 1
    30   31   19 1
    31   32   20 1
    32   33   22 1
    33   34   22 1
    34   35   22 1
    35   12   13 ar
    36   13   14 1
    37   19   20 2
@<TRIPOS>SUBSTRUCTURE
     1 RES1 1

@<TRIPOS>CRYSIN
   6.7090    8.2760   13.7820  72.7260  89.0230  68.7990   2 1

