# MOL2 file generated by ConQuest
# Please check atom types

@<TRIPOS>MOLECULE
LUPWOI
    22    22     1
SMALL
NO_CHARGES
****
Generated from CSD

@<TRIPOS>ATOM
      1 N1        -0.7014    0.8389    6.4976 N.ar      1 RES1    0.0000
      2 C1        -0.3536    0.2253    5.3449 C.ar      1 RES1    0.0000
      3 N2         0.8263   -0.3857    5.2867 N.3       1 RES1    0.0000
      4 N3        -1.0873    0.1813    4.2107 N.ar      1 RES1    0.0000
      5 C2        -2.2515    0.7960    4.2323 C.ar      1 RES1    0.0000
      6 O1        -3.0229    0.7492    3.1541 O.3       1 RES1    0.0000
      7 C3        -2.5276   -0.0307    2.0378 C.3       1 RES1    0.0000
      8 C4        -2.7325    1.4544    5.3795 C.ar      1 RES1    0.0000
      9 N4        -4.0147    2.1021    5.3984 N.pl3     1 RES1    0.0000
     10 O2        -4.4544    2.5750    4.3437 O.2       1 RES1    0.0000
     11 O3        -4.6353    2.1632    6.4572 O.2       1 RES1    0.0000
     12 C5        -1.8801    1.4425    6.5091 C.ar      1 RES1    0.0000
     13 O4        -2.2731    2.0952    7.5959 O.3       1 RES1    0.0000
     14 C6        -1.3528    2.1729    8.7066 C.3       1 RES1    0.0000
     15 H1         1.3582   -0.3836    5.9872 H         1 RES1    0.0000
     16 H2         1.0751   -0.7922    4.5475 H         1 RES1    0.0000
     17 H3        -1.6961    0.3671    1.7046 H         1 RES1    0.0000
     18 H4        -3.1964   -0.0369    1.3219 H         1 RES1    0.0000
     19 H5        -2.3551   -0.9491    2.3326 H         1 RES1    0.0000
     20 H6        -1.1425    1.2683    9.0207 H         1 RES1    0.0000
     21 H7        -1.7624    2.6841    9.4357 H         1 RES1    0.0000
     22 H8        -0.5294    2.6182    8.4180 H         1 RES1    0.0000
@<TRIPOS>BOND
     1    1    2 ar
     2    2    3 1
     3    3   15 1
     4    4    2 ar
     5    5    4 ar
     6    6    5 1
     7    7    6 1
     8    8    5 ar
     9    9    8 1
    10   10    9 2
    11   11    9 2
    12   12    1 ar
    13   13   12 1
    14   14   13 1
    15   16    3 1
    16   17    7 1
    17   18    7 1
    18   19    7 1
    19   20   14 1
    20   21   14 1
    21   22   14 1
    22    8   12 ar
@<TRIPOS>SUBSTRUCTURE
     1 RES1 1

@<TRIPOS>CRYSIN
   7.3443    7.8437   14.9129  90.0000 109.9470  90.0000  14 1

