# MOL2 file generated by ConQuest
# Please check atom types

@<TRIPOS>MOLECULE
LUPWUO
    44    44     2
SMALL
NO_CHARGES
****
Generated from CSD

@<TRIPOS>ATOM
      1 N1         5.3862    2.2092   13.8736 N.ar      1 RES1    0.0000
      2 C1         5.3770    2.9391   12.7579 C.ar      1 RES1    0.0000
      3 C2         6.0123    4.7631   14.1404 C.3       1 RES1    0.0000
      4 O1         5.7237    4.2164   12.8357 O.3       1 RES1    0.0000
      5 N2         5.0631    2.5627   11.5321 N.ar      1 RES1    0.0000
      6 C3         4.6839    1.2792   11.3571 C.ar      1 RES1    0.0000
      7 N3         4.3799    0.9482   10.1062 N.3       1 RES1    0.0000
      8 C4         4.6427    0.3969   12.4802 C.ar      1 RES1    0.0000
      9 N4         4.2394   -0.9743   12.3389 N.pl3     1 RES1    0.0000
     10 O2         4.2125   -1.7019   13.3119 O.2       1 RES1    0.0000
     11 O3         3.9162   -1.3857   11.2135 O.2       1 RES1    0.0000
     12 C5         5.0228    0.9330   13.7344 C.ar      1 RES1    0.0000
     13 O4         5.0217    0.1722   14.8129 O.3       1 RES1    0.0000
     14 C6         5.4458    0.7846   16.0550 C.3       1 RES1    0.0000
     15 N5         4.1919    3.6928    5.8695 N.ar      2 RES2    0.0000
     16 C7         4.1619    2.9588    6.9841 C.ar      2 RES2    0.0000
     17 C8         3.2937    1.2327    5.6066 C.3       2 RES2    0.0000
     18 O5         3.7140    1.7085    6.9054 O.3       2 RES2    0.0000
     19 N6         4.5372    3.2984    8.2045 N.ar      2 RES2    0.0000
     20 C9         4.9694    4.5677    8.3802 C.ar      2 RES2    0.0000
     21 N7         5.3309    4.8719    9.6198 N.3       2 RES2    0.0000
     22 C10        5.0023    5.4692    7.2666 C.ar      2 RES2    0.0000
     23 N8         5.4033    6.8284    7.4204 N.pl3     2 RES2    0.0000
     24 O6         5.5015    7.5518    6.4362 O.2       2 RES2    0.0000
     25 O7         5.6425    7.2601    8.5642 O.2       2 RES2    0.0000
     26 C11        4.6293    4.9346    6.0054 C.ar      2 RES2    0.0000
     27 C12        4.3503    5.0482    3.6577 C.3       2 RES2    0.0000
     28 O8         4.7051    5.6823    4.9184 O.3       2 RES2    0.0000
     29 H1         5.2139    4.7001   14.7053 H         1 RES1    0.0000
     30 H2         6.2755    5.7028   14.0497 H         1 RES1    0.0000
     31 H3         6.7443    4.2573   14.5523 H         1 RES1    0.0000
     32 H4         4.4342    1.5500    9.4668 H         1 RES1    0.0000
     33 H5         4.1244    0.1275    9.9184 H         1 RES1    0.0000
     34 H6         6.3710    1.0946   15.9668 H         1 RES1    0.0000
     35 H7         5.3891    0.1270   16.7793 H         1 RES1    0.0000
     36 H8         4.8637    1.5464   16.2589 H         1 RES1    0.0000
     37 H9         2.5315    1.7642    5.2946 H         2 RES2    0.0000
     38 H10        3.0303    0.2916    5.6735 H         2 RES2    0.0000
     39 H11        4.0341    1.3198    4.9707 H         2 RES2    0.0000
     40 H12        5.2793    4.2645   10.2551 H         2 RES2    0.0000
     41 H13        5.6222    5.6807    9.8074 H         2 RES2    0.0000
     42 H14        4.9579    4.2987    3.4872 H         2 RES2    0.0000
     43 H15        4.4249    5.7012    2.9311 H         2 RES2    0.0000
     44 H16        3.4291    4.7175    3.7066 H         2 RES2    0.0000
@<TRIPOS>BOND
     1    1    2 ar
     2    2    4 1
     3    3    4 1
     4    5    2 ar
     5    6    5 ar
     6    7    6 1
     7    8    6 ar
     8    9    8 1
     9   10    9 2
    10   11    9 2
    11   12    1 ar
    12   13   12 1
    13   14   13 1
    14   15   16 ar
    15   16   18 1
    16   17   18 1
    17   19   16 ar
    18   20   19 ar
    19   21   20 1
    20   22   20 ar
    21   23   22 1
    22   24   23 2
    23   25   23 2
    24   26   15 ar
    25   27   28 1
    26   28   26 1
    27   29    3 1
    28   30    3 1
    29   31    3 1
    30   32    7 1
    31   33    7 1
    32   34   14 1
    33   35   14 1
    34   36   14 1
    35   37   17 1
    36   38   17 1
    37   39   17 1
    38   40   21 1
    39   41   21 1
    40   42   27 1
    41   43   27 1
    42   44   27 1
    43    8   12 ar
    44   22   26 ar
@<TRIPOS>SUBSTRUCTURE
     1 RES1 1
     2 RES2 15

@<TRIPOS>CRYSIN
   6.8427    9.9742   13.2752  79.0070  75.5770  72.5470   2 1

