# MOL2 file generated by ConQuest
# Please check atom types

@<TRIPOS>MOLECULE
LUPXAV
    64    32     2
SMALL
NO_CHARGES
****
Generated from CSD

@<TRIPOS>ATOM
      1 N1         6.5990    4.0236   -0.5921 N.ar      1 RES1    0.0000
      2 C1         6.7893    4.6165    0.6178 C.ar      1 RES1    0.0000
      3 N2         6.6921    5.9398    0.6301 N.3       1 RES1    0.0000
      4 N3         7.0546    4.0148    1.7801 N.ar      1 RES1    0.0000
      5 C2         7.1122    2.6739    1.7762 C.ar      1 RES1    0.0000
      6 N4         7.3885    2.0907    2.9443 N.3       1 RES1    0.0000
      7 C3         7.5793    2.8527    4.1775 C.3       1 RES1    0.0000
      8 C4         7.8114    1.9118    5.3444 C.3       1 RES1    0.0000
      9 C5         8.0872    2.6704    6.6278 C.3       1 RES1    0.0000
     10 C6         8.3369    1.7876    7.8389 C.3       1 RES1    0.0000
     11 N5         6.9427    0.5251    0.5148 N.pl3     1 RES1    0.0000
     12 O1         7.1914   -0.0987    1.5864 O.2       1 RES1    0.0000
     13 O2         6.7309   -0.0899   -0.5251 O.2       1 RES1    0.0000
     14 C7         6.8966    1.9312    0.5541 C.ar      1 RES1    0.0000
     15 C8         6.6665    2.7091   -0.6080 C.ar      1 RES1    0.0000
     16 C9         6.3545    2.9338   -2.9492 C.3       1 RES1    0.0000
     17 O3         6.4961    2.0951   -1.7760 O.3       1 RES1    0.0000
     18 N6         6.6080    0.4687   -0.6313 Du        2 SUP2    0.0000
     19 C10        6.7038   -0.1374    0.5884 Du        2 SUP2    0.0000
     20 N7         6.6711   -1.4687    0.5590 Du        2 SUP2    0.0000
     21 N8         7.0231    0.4528    1.7590 Du        2 SUP2    0.0000
     22 N9         7.2850    2.3876    2.9174 Du        2 SUP2    0.0000
     23 C11        7.1147    1.7867    1.7333 Du        2 SUP2    0.0000
     24 C12        7.5205    1.6299    4.1493 Du        2 SUP2    0.0000
     25 C13        7.9294    2.4580    5.3567 Du        2 SUP2    0.0000
     26 C14        7.9936    1.5946    6.6070 Du        2 SUP2    0.0000
     27 C15        8.2945    2.5197    7.7715 Du        2 SUP2    0.0000
     28 C16        6.9412    2.5514    0.5577 Du        2 SUP2    0.0000
     29 O4         7.1803    4.6254    1.6426 Du        2 SUP2    0.0000
     30 O5         6.7130    4.5196   -0.4658 Du        2 SUP2    0.0000
     31 N10        6.9302    3.9443    0.5884 Du        2 SUP2    0.0000
     32 C17        6.6892    1.7541   -0.6852 Du        2 SUP2    0.0000
     33 O6         6.7842    2.3435   -1.8632 Du        2 SUP2    0.0000
     34 C18        6.4087    1.5418   -2.9921 Du        2 SUP2    0.0000
     35 H1         6.8005    6.3830    1.3827 H         1 RES1    0.0000
     36 H2         6.5188    6.3751   -0.1152 H         1 RES1    0.0000
     37 H3         7.4582    1.2132    2.9738 H         1 RES1    0.0000
     38 H4         6.7783    3.4078    4.3528 H         1 RES1    0.0000
     39 H5         8.3570    3.4571    4.0782 H         1 RES1    0.0000
     40 H6         7.0129    1.3400    5.4670 H         1 RES1    0.0000
     41 H7         8.5814    1.3215    5.1410 H         1 RES1    0.0000
     42 H8         7.3162    3.2598    6.8191 H         1 RES1    0.0000
     43 H9         8.8778    3.2492    6.4893 H         1 RES1    0.0000
     44 H10        7.5641    1.2044    7.9823 H         1 RES1    0.0000
     45 H11        8.4753    2.3488    8.6295 H         1 RES1    0.0000
     46 H12        9.1348    1.2396    7.6845 H         1 RES1    0.0000
     47 H13        5.5727    3.5153   -2.8426 H         1 RES1    0.0000
     48 H14        6.2360    2.3691   -3.7411 H         1 RES1    0.0000
     49 H15        7.1587    3.4836   -3.0571 H         1 RES1    0.0000
     50 H16        6.8539   -1.9303    1.2859 Du        2 SUP2    0.0000
     51 H17        6.4667   -1.8871   -0.1875 Du        2 SUP2    0.0000
     52 H18        7.2621    3.2624    2.9640 Du        2 SUP2    0.0000
     53 H19        8.2201    0.9541    3.9728 Du        2 SUP2    0.0000
     54 H20        6.6866    1.1409    4.3785 Du        2 SUP2    0.0000
     55 H21        8.8293    2.8510    5.1900 Du        2 SUP2    0.0000
     56 H22        7.2935    3.1963    5.4878 Du        2 SUP2    0.0000
     57 H23        8.6890    0.9030    6.5163 Du        2 SUP2    0.0000
     58 H24        7.1147    1.1444    6.7443 Du        2 SUP2    0.0000
     59 H25        9.1051    3.0395    7.5668 Du        2 SUP2    0.0000
     60 H26        8.4399    1.9929    8.5793 Du        2 SUP2    0.0000
     61 H27        7.5441    3.1364    7.9063 Du        2 SUP2    0.0000
     62 H28        7.0687    0.8343   -3.1331 Du        2 SUP2    0.0000
     63 H29        6.3512    2.1039   -3.7926 Du        2 SUP2    0.0000
     64 H30        5.5293    1.1356   -2.8193 Du        2 SUP2    0.0000
@<TRIPOS>BOND
     1    1    2 ar
     2    2    3 1
     3    3   35 1
     4    4    2 ar
     5    5    4 ar
     6    6    5 1
     7    7    6 1
     8    8    7 1
     9    9    8 1
    10   10    9 1
    11   11   12 2
    12   13   11 2
    13   14    5 ar
    14   15    1 ar
    15   16   17 1
    16   17   15 1
    17   36    3 1
    18   37    6 1
    19   38    7 1
    20   39    7 1
    21   40    8 1
    22   41    8 1
    23   42    9 1
    24   43    9 1
    25   44   10 1
    26   45   10 1
    27   46   10 1
    28   47   16 1
    29   48   16 1
    30   49   16 1
    31   11   14 1
    32   14   15 ar
@<TRIPOS>SUBSTRUCTURE
     1 RES1 1
     2 SUP2 18

@<TRIPOS>CRYSIN
  20.5825    8.8102   13.0289  90.0000 109.8100  90.0000  15 1

