# MOL2 file generated by ConQuest
# Please check atom types

@<TRIPOS>MOLECULE
LUQLEO
    35    36     1
SMALL
NO_CHARGES
****
Generated from CSD

@<TRIPOS>ATOM
      1 O1         0.4408    8.7180   12.1806 O.3       1 RES1    0.0000
      2 O2        -0.1786   10.9257   13.0826 O.2       1 RES1    0.0000
      3 O3         3.6014    6.1455    6.2696 O.2       1 RES1    0.0000
      4 O4         2.8726    4.5218    7.4787 O.2       1 RES1    0.0000
      5 O5        -0.1704   17.0892   11.7570 O.3       1 RES1    0.0000
      6 N1         3.0151    5.7111    7.2448 N.pl3     1 RES1    0.0000
      7 C1         1.4164    7.0461   10.3063 C.ar      1 RES1    0.0000
      8 H1         1.0570    6.7218   11.1011 H         1 RES1    0.0000
      9 C2         1.9217    6.1620    9.3867 C.ar      1 RES1    0.0000
     10 H2         1.9131    5.2475    9.5546 H         1 RES1    0.0000
     11 C3         2.4402    6.6547    8.2175 C.ar      1 RES1    0.0000
     12 C4         2.4716    7.9973    7.9421 C.ar      1 RES1    0.0000
     13 H3         2.8269    8.3114    7.1415 H         1 RES1    0.0000
     14 C5         1.9643    8.8700    8.8786 C.ar      1 RES1    0.0000
     15 H4         1.9804    9.7832    8.7053 H         1 RES1    0.0000
     16 C6         1.4312    8.4153   10.0725 C.ar      1 RES1    0.0000
     17 C7         0.8738    9.3209   11.0982 C.2       1 RES1    0.0000
     18 C8         0.8024   10.6876   10.9791 C.2       1 RES1    0.0000
     19 H5         1.1174   11.0967   10.2044 H         1 RES1    0.0000
     20 C9         0.2557   11.4868   12.0191 C.2       1 RES1    0.0000
     21 C10        0.1622   12.9523   11.9471 C.ar      1 RES1    0.0000
     22 C11        0.5608   13.6780   10.8271 C.ar      1 RES1    0.0000
     23 H6         0.9187   13.2309   10.0940 H         1 RES1    0.0000
     24 C12        0.4308   15.0535   10.7926 C.ar      1 RES1    0.0000
     25 H7         0.6893   15.5260   10.0352 H         1 RES1    0.0000
     26 C13       -0.0825   15.7248   11.8817 C.ar      1 RES1    0.0000
     27 C14       -0.4745   15.0345   13.0149 C.ar      1 RES1    0.0000
     28 H8        -0.8115   15.4842   13.7551 H         1 RES1    0.0000
     29 C15       -0.3516   13.6539   13.0166 C.ar      1 RES1    0.0000
     30 H9        -0.6267   13.1815   13.7695 H         1 RES1    0.0000
     31 C16       -0.7226   17.8249   12.8484 C.3       1 RES1    0.0000
     32 H10       -1.6228   17.5310   13.0077 H         1 RES1    0.0000
     33 H11       -0.7236   18.7609   12.6347 H         1 RES1    0.0000
     34 H12       -0.1931   17.6754   13.6346 H         1 RES1    0.0000
     35 H13        0.1071    9.5755   12.8398 H         1 RES1    0.0000
@<TRIPOS>BOND
     1    1   17 1
     2    2   20 2
     3    3    6 2
     4    4    6 2
     5    5   26 1
     6    6   11 1
     7    7    8 1
     8    9    7 ar
     9   10    9 1
    10   11    9 ar
    11   12   11 ar
    12   13   12 1
    13   14   12 ar
    14   15   14 1
    15   16    7 ar
    16   17   16 1
    17   18   17 2
    18   19   18 1
    19   20   18 1
    20   21   20 1
    21   22   21 ar
    22   23   22 1
    23   24   22 ar
    24   25   24 1
    25   26   24 ar
    26   27   26 ar
    27   28   27 1
    28   29   21 ar
    29   30   29 1
    30   31    5 1
    31   32   31 1
    32   33   31 1
    33   34   31 1
    34   35    1 1
    35   14   16 ar
    36   27   29 ar
@<TRIPOS>SUBSTRUCTURE
     1 RES1 1

@<TRIPOS>CRYSIN
   3.8698   12.6660   14.4080  90.0000  95.3090  90.0000   4 1

