# MOL2 file generated by ConQuest
# Please check atom types

@<TRIPOS>MOLECULE
LUQPEU
    33    33     1
SMALL
NO_CHARGES
****
Generated from CSD

@<TRIPOS>ATOM
      1 N1         0.9493    8.7229   -1.7264 N.pl3     1 RES1    0.0000
      2 C1        -0.3633    0.9003    5.4926 C.3       1 RES1    0.0000
      3 H1        -0.4664    0.4500    4.6283 H         1 RES1    0.0000
      4 H2        -1.0547    1.5886    5.5870 H         1 RES1    0.0000
      5 H3        -0.4553    0.2438    6.2153 H         1 RES1    0.0000
      6 O1         1.0399    2.7012    4.6424 O.3       1 RES1    0.0000
      7 C2         1.1884    2.2085    6.9211 C.3       1 RES1    0.0000
      8 H4         2.0250    2.7193    6.9178 H         1 RES1    0.0000
      9 H5         1.2276    1.5238    7.6202 H         1 RES1    0.0000
     10 H6         0.4375    2.8127    7.0965 H         1 RES1    0.0000
     11 O2         0.7902    1.4741    2.7567 O.2       1 RES1    0.0000
     12 O3         1.2937    8.6511   -2.9070 O.2       1 RES1    0.0000
     13 C3         2.1296    0.6017    5.2746 C.3       1 RES1    0.0000
     14 H7         1.9930    0.1870    4.3968 H         1 RES1    0.0000
     15 H8         2.1632   -0.0944    5.9636 H         1 RES1    0.0000
     16 H9         2.9744    1.0993    5.2723 H         1 RES1    0.0000
     17 O4         0.6120    9.7741   -1.1993 O.2       1 RES1    0.0000
     18 C4         0.9966    1.5411    5.5668 C.3       1 RES1    0.0000
     19 C5         0.9135    2.5245    3.3100 C.2       1 RES1    0.0000
     20 C6         0.9582    3.8512    2.6502 C.2       1 RES1    0.0000
     21 H10        0.9946    4.6415    3.1773 H         1 RES1    0.0000
     22 C7         0.9457    3.9382    1.3262 C.2       1 RES1    0.0000
     23 H11        0.9355    3.1277    0.8306 H         1 RES1    0.0000
     24 C8         0.9477    5.2049    0.5743 C.ar      1 RES1    0.0000
     25 C9         0.5764    6.4120    1.1419 C.ar      1 RES1    0.0000
     26 H12        0.3228    6.4429    2.0568 H         1 RES1    0.0000
     27 C10        0.5723    7.5659    0.3967 C.ar      1 RES1    0.0000
     28 H13        0.3086    8.3943    0.7811 H         1 RES1    0.0000
     29 C11        0.9614    7.4916   -0.9329 C.ar      1 RES1    0.0000
     30 C12        1.3299    6.3148   -1.5285 C.ar      1 RES1    0.0000
     31 H14        1.5916    6.2943   -2.4423 H         1 RES1    0.0000
     32 C13        1.3127    5.1631   -0.7766 C.ar      1 RES1    0.0000
     33 H15        1.5495    4.3345   -1.1756 H         1 RES1    0.0000
@<TRIPOS>BOND
     1    1   12 2
     2    2    3 1
     3    4    2 1
     4    5    2 1
     5    6   18 1
     6    7    8 1
     7    9    7 1
     8   10    7 1
     9   11   19 2
    10   13   14 1
    11   15   13 1
    12   16   13 1
    13   17    1 2
    14   18    2 1
    15   19    6 1
    16   20   19 1
    17   21   20 1
    18   22   20 2
    19   23   22 1
    20   24   22 1
    21   25   24 ar
    22   26   25 1
    23   27   25 ar
    24   28   27 1
    25   29    1 1
    26   30   29 ar
    27   31   30 1
    28   32   24 ar
    29   33   32 1
    30    7   18 1
    31   13   18 1
    32   27   29 ar
    33   30   32 ar
@<TRIPOS>SUBSTRUCTURE
     1 RES1 1

@<TRIPOS>CRYSIN
   6.7081    8.2170   11.3710  98.4760  90.9990  97.1960   2 1

