# MOL2 file generated by ConQuest
# Please check atom types

@<TRIPOS>MOLECULE
LURREV
    43    44     1
SMALL
NO_CHARGES
****
Generated from CSD

@<TRIPOS>ATOM
      1 O1         3.2144    8.8658   -0.0487 O.3       1 RES1    0.0000
      2 H1         3.3838    8.9679   -0.8639 H         1 RES1    0.0000
      3 N1         4.2316    9.1434    6.1899 N.pl3     1 RES1    0.0000
      4 C1         0.9294   10.4225    0.3383 C.2       1 RES1    0.0000
      5 O2         0.5341    9.9738    1.3752 O.2       1 RES1    0.0000
      6 C2         0.5912   10.8595   -2.0452 C.3       1 RES1    0.0000
      7 O3         0.1282   10.3736   -0.7416 O.3       1 RES1    0.0000
      8 C3         1.5519   12.0388   -1.8081 C.3       1 RES1    0.0000
      9 O4         2.6478   11.5828   -1.0407 O.3       1 RES1    0.0000
     10 C4         2.2880   11.0850    0.2418 C.3       1 RES1    0.0000
     11 H2         2.3101   11.8463    0.8897 H         1 RES1    0.0000
     12 O5         1.3512    9.8558   -2.6358 O.3       1 RES1    0.0000
     13 C5         3.4059   10.0950    0.6260 C.3       1 RES1    0.0000
     14 H3         4.2709   10.4810    0.3058 H         1 RES1    0.0000
     15 O6         0.7914   12.9723   -1.0608 O.3       1 RES1    0.0000
     16 C6         3.5404    9.8494    2.0987 C.ar      1 RES1    0.0000
     17 O7         3.9339    8.0471    6.6601 O.2       1 RES1    0.0000
     18 C7         4.1101   10.8383    2.8995 C.ar      1 RES1    0.0000
     19 H4         4.3483   11.6740    2.5163 H         1 RES1    0.0000
     20 O8         4.7375   10.0365    6.8666 O.2       1 RES1    0.0000
     21 C8         4.3311   10.6150    4.2451 C.ar      1 RES1    0.0000
     22 H5         4.7233   11.2859    4.7908 H         1 RES1    0.0000
     23 C9         3.9682    9.3932    4.7774 C.ar      1 RES1    0.0000
     24 C10        3.3777    8.4086    4.0205 C.ar      1 RES1    0.0000
     25 H6         3.1229    7.5824    4.4133 H         1 RES1    0.0000
     26 C11        3.1622    8.6479    2.6749 C.ar      1 RES1    0.0000
     27 H7         2.7497    7.9801    2.1398 H         1 RES1    0.0000
     28 C12        0.6403    8.6606   -3.0123 C.3       1 RES1    0.0000
     29 H8         1.2831    7.9578   -3.2426 H         1 RES1    0.0000
     30 H9         0.0706    8.8499   -3.7874 H         1 RES1    0.0000
     31 H10        0.0835    8.3618   -2.2631 H         1 RES1    0.0000
     32 C13       -0.6618   11.2434   -2.7973 C.3       1 RES1    0.0000
     33 H11       -1.2849   10.4874   -2.8011 H         1 RES1    0.0000
     34 H12       -0.4291   11.4805   -3.7195 H         1 RES1    0.0000
     35 H13       -1.0829   12.0111   -2.3586 H         1 RES1    0.0000
     36 C14        2.1180   12.5832   -3.0935 C.3       1 RES1    0.0000
     37 H14        2.8675   13.1818   -2.8919 H         1 RES1    0.0000
     38 H15        1.4230   13.0787   -3.5733 H         1 RES1    0.0000
     39 H16        2.4335   11.8410   -3.6507 H         1 RES1    0.0000
     40 C15        1.4599   14.2079   -0.7665 C.3       1 RES1    0.0000
     41 H17        0.9534   14.7002   -0.0870 H         1 RES1    0.0000
     42 H18        1.5212   14.7481   -1.5817 H         1 RES1    0.0000
     43 H19        2.3598   14.0208   -0.4301 H         1 RES1    0.0000
@<TRIPOS>BOND
     1    1    2 1
     2    3   17 2
     3    4    5 2
     4    6    7 1
     5    7    4 1
     6    8    6 1
     7    9    8 1
     8   10    4 1
     9   11   10 1
    10   12    6 1
    11   13    1 1
    12   14   13 1
    13   15    8 1
    14   16   13 1
    15   18   16 ar
    16   19   18 1
    17   20    3 2
    18   21   18 ar
    19   22   21 1
    20   23    3 1
    21   24   23 ar
    22   25   24 1
    23   26   16 ar
    24   27   26 1
    25   28   12 1
    26   29   28 1
    27   30   28 1
    28   31   28 1
    29   32    6 1
    30   33   32 1
    31   34   32 1
    32   35   32 1
    33   36    8 1
    34   37   36 1
    35   38   36 1
    36   39   36 1
    37   40   15 1
    38   41   40 1
    39   42   40 1
    40   43   40 1
    41    9   10 1
    42   10   13 1
    43   21   23 ar
    44   24   26 ar
@<TRIPOS>SUBSTRUCTURE
     1 RES1 1

@<TRIPOS>CRYSIN
  12.2780   12.2780    9.5568  90.0000  90.0000 120.0000 145 1

