# MOL2 file generated by ConQuest
# Please check atom types

@<TRIPOS>MOLECULE
LURVUR
    32    33     1
SMALL
USER_CHARGES
****
Generated from CSD

@<TRIPOS>ATOM
      1 O1         9.5538   -1.1071   13.0613 O.2       1 RES1   -1.0000
      2 O2         5.3599   -0.0513   11.0330 O.2       1 RES1    0.0000
      3 N1         9.0873   -1.6679   11.9698 N.pl3     1 RES1    1.0000
      4 N2         7.3278   -0.2039   12.1618 N.am      1 RES1    0.0000
      5 C1         9.7592   -2.6834   11.3841 C.ar      1 RES1    0.0000
      6 H1        10.5265   -3.0164   11.7904 H         1 RES1    0.0000
      7 C2         9.3376   -3.2289   10.2148 C.ar      1 RES1    0.0000
      8 H2         9.8110   -3.9278    9.8259 H         1 RES1    0.0000
      9 C3         8.2037   -2.7381    9.6106 C.ar      1 RES1    0.0000
     10 H3         7.9175   -3.0869    8.7969 H         1 RES1    0.0000
     11 C4         7.4963   -1.7293   10.2168 C.ar      1 RES1    0.0000
     12 H4         6.7246   -1.4002    9.8168 H         1 RES1    0.0000
     13 C5         7.9266   -1.1997   11.4201 C.ar      1 RES1    0.0000
     14 C6         6.0774    0.3233   11.9368 C.2       1 RES1    0.0000
     15 C7         5.6315    1.3460   12.9349 C.3       1 RES1    0.0000
     16 H5         5.1057    2.0287   12.4892 H         1 RES1    0.0000
     17 H6         6.4066    1.7735   13.3311 H         1 RES1    0.0000
     18 C8         4.7942    0.6841   14.0287 C.3       1 RES1    0.0000
     19 H7         4.0301    0.2494   13.6191 H         1 RES1    0.0000
     20 H8         5.3269   -0.0014   14.4610 H         1 RES1    0.0000
     21 C9         4.3042    1.6459   15.0709 C.ar      1 RES1    0.0000
     22 C10        2.9647    1.9380   15.2103 C.ar      1 RES1    0.0000
     23 H9         2.3480    1.5259   14.6499 H         1 RES1    0.0000
     24 C11        2.5224    2.8288   16.1650 C.ar      1 RES1    0.0000
     25 H10        1.6136    3.0092   16.2494 H         1 RES1    0.0000
     26 C12        3.4228    3.4466   16.9867 C.ar      1 RES1    0.0000
     27 H11        3.1288    4.0592   17.6214 H         1 RES1    0.0000
     28 C13        4.7556    3.1631   16.8736 C.ar      1 RES1    0.0000
     29 H12        5.3673    3.5776   17.4380 H         1 RES1    0.0000
     30 C14        5.1922    2.2671   15.9273 C.ar      1 RES1    0.0000
     31 H13        6.0995    2.0757   15.8624 H         1 RES1    0.0000
     32 H14        7.8105    0.0672   12.8616 H         1 RES1    0.0000
@<TRIPOS>BOND
     1    1    3 1
     2    2   14 2
     3    3    5 ar
     4    4   13 1
     5    5    6 1
     6    7    5 ar
     7    8    7 1
     8    9    7 ar
     9   10    9 1
    10   11    9 ar
    11   12   11 1
    12   13    3 ar
    13   14    4 1
    14   15   14 1
    15   16   15 1
    16   17   15 1
    17   18   15 1
    18   19   18 1
    19   20   18 1
    20   21   18 1
    21   22   21 ar
    22   23   22 1
    23   24   22 ar
    24   25   24 1
    25   26   24 ar
    26   27   26 1
    27   28   26 ar
    28   29   28 1
    29   30   21 ar
    30   31   30 1
    31   32    4 1
    32   11   13 ar
    33   28   30 ar
@<TRIPOS>SUBSTRUCTURE
     1 RES1 1

@<TRIPOS>CRYSIN
  13.7515    4.7970   18.4272  90.0000  95.5040  90.0000 231 1

