# MOL2 file generated by ConQuest
# Please check atom types

@<TRIPOS>MOLECULE
LURYUS
    22    21     1
SMALL
NO_CHARGES
****
Generated from CSD

@<TRIPOS>ATOM
      1 O1        -2.0483   -0.8240    8.1240 O.2       1 RES1    0.0000
      2 O2        -0.8717    1.5439    4.6901 O.2       1 RES1    0.0000
      3 O3         0.0556   -1.1858    8.5594 O.2       1 RES1    0.0000
      4 O4        -2.8943    1.2370    3.9298 O.2       1 RES1    0.0000
      5 N1        -0.5474    0.6439    7.4679 N.3       1 RES1    0.0000
      6 N2        -0.8560   -0.5041    8.0863 N.pl3     1 RES1    0.0000
      7 N3        -2.5067    1.0999    6.0988 N.3       1 RES1    0.0000
      8 N4        -2.0675    1.3165    4.8389 N.pl3     1 RES1    0.0000
      9 C1         0.8342    1.1267    7.5053 C.3       1 RES1    0.0000
     10 H1         0.9918    1.6879    6.7307 H         1 RES1    0.0000
     11 H2         1.4343    0.3670    7.4483 H         1 RES1    0.0000
     12 C2        -1.6478    1.5465    7.1743 C.3       1 RES1    0.0000
     13 H3        -2.1830    1.6565    7.9753 H         1 RES1    0.0000
     14 H4        -1.2843    2.4155    6.9428 H         1 RES1    0.0000
     15 C3        -3.9312    0.9203    6.2961 C.3       1 RES1    0.0000
     16 H5        -4.3336    0.6280    5.4748 H         1 RES1    0.0000
     17 H6        -4.3242    1.7540    6.5662 H         1 RES1    0.0000
     18 H7        -4.0798    0.2609    6.9773 H         1 RES1    0.0000
     19 C4         1.1547    1.9110    8.7499 C.3       1 RES1    0.0000
     20 H8         2.0704    2.1957    8.7219 H         1 RES1    0.0000
     21 H9         1.0162    1.3566    9.5218 H         1 RES1    0.0000
     22 H10        0.5815    2.6797    8.8013 H         1 RES1    0.0000
@<TRIPOS>BOND
     1    1    6 2
     2    2    8 2
     3    3    6 2
     4    4    8 2
     5    5    6 1
     6    7    8 1
     7    9    5 1
     8   10    9 1
     9   11    9 1
    10   12    5 1
    11   13   12 1
    12   14   12 1
    13   15    7 1
    14   16   15 1
    15   17   15 1
    16   18   15 1
    17   19    9 1
    18   20   19 1
    19   21   19 1
    20   22   19 1
    21    7   12 1
@<TRIPOS>SUBSTRUCTURE
     1 RES1 1

@<TRIPOS>CRYSIN
   8.0760   10.8270    9.5280  90.0000 101.2710  90.0000  14 1

