# MOL2 file generated by ConQuest
# Please check atom types

@<TRIPOS>MOLECULE
LURZUT
    31    30     1
SMALL
NO_CHARGES
****
Generated from CSD

@<TRIPOS>ATOM
      1 O1         1.3827    2.2226    1.5576 O.2       1 RES1    0.0000
      2 O2        -2.1015    3.6120    4.2365 O.2       1 RES1    0.0000
      3 O3        -0.6035    3.7206    5.8147 O.2       1 RES1    0.0000
      4 O4        -0.0201    0.7037    0.8761 O.2       1 RES1    0.0000
      5 N1        -0.9338    3.7292    4.6356 N.pl3     1 RES1    0.0000
      6 N2        -0.7920    2.5710    1.7928 N.3       1 RES1    0.0000
      7 N3         0.2387    1.8001    1.3842 N.pl3     1 RES1    0.0000
      8 N4         0.0355    3.8587    3.6980 N.3       1 RES1    0.0000
      9 C1         1.3985    4.2318    4.1786 C.3       1 RES1    0.0000
     10 H1         1.2833    4.7554    4.9995 H         1 RES1    0.0000
     11 C2        -0.4311    3.8883    2.3129 C.3       1 RES1    0.0000
     12 H2        -1.2040    4.4711    2.2541 H         1 RES1    0.0000
     13 H3         0.2671    4.2651    1.7551 H         1 RES1    0.0000
     14 C3        -2.1523    2.1535    1.3362 C.3       1 RES1    0.0000
     15 H4        -2.0328    1.6898    0.4816 H         1 RES1    0.0000
     16 C4        -2.7714    1.1508    2.2953 C.3       1 RES1    0.0000
     17 H5        -3.5391    0.7610    1.8939 H         1 RES1    0.0000
     18 H6        -3.0232    1.5936    3.0969 H         1 RES1    0.0000
     19 H7        -2.1379    0.4712    2.4949 H         1 RES1    0.0000
     20 C5        -3.0326    3.3425    1.0641 C.3       1 RES1    0.0000
     21 H8        -3.8846    3.0440    0.7680 H         1 RES1    0.0000
     22 H9        -2.6359    3.8834    0.3916 H         1 RES1    0.0000
     23 H10       -3.1344    3.8507    1.8603 H         1 RES1    0.0000
     24 C6         2.1049    5.1235    3.1728 C.3       1 RES1    0.0000
     25 H11        2.9716    5.3412    3.4961 H         1 RES1    0.0000
     26 H12        1.6031    5.9209    3.0492 H         1 RES1    0.0000
     27 H13        2.1816    4.6660    2.3441 H         1 RES1    0.0000
     28 C7         2.2115    3.0076    4.5398 C.3       1 RES1    0.0000
     29 H14        1.7427    2.4970    5.1894 H         1 RES1    0.0000
     30 H15        3.0499    3.2778    4.8943 H         1 RES1    0.0000
     31 H16        2.3512    2.4798    3.7629 H         1 RES1    0.0000
@<TRIPOS>BOND
     1    1    7 2
     2    2    5 2
     3    3    5 2
     4    4    7 2
     5    5    8 1
     6    6    7 1
     7    8    9 1
     8    9   10 1
     9   11    6 1
    10   12   11 1
    11   13   11 1
    12   14    6 1
    13   15   14 1
    14   16   14 1
    15   17   16 1
    16   18   16 1
    17   19   16 1
    18   20   14 1
    19   21   20 1
    20   22   20 1
    21   23   20 1
    22   24    9 1
    23   25   24 1
    24   26   24 1
    25   27   24 1
    26   28    9 1
    27   29   28 1
    28   30   28 1
    29   31   28 1
    30    8   11 1
@<TRIPOS>SUBSTRUCTURE
     1 RES1 1

@<TRIPOS>CRYSIN
   7.8980    6.1670   10.9330  90.0000  97.1780  90.0000   4 1

