# MOL2 file generated by ConQuest
# Please check atom types

@<TRIPOS>MOLECULE
LURZON
    25    24     1
SMALL
NO_CHARGES
****
Generated from CSD

@<TRIPOS>ATOM
      1 O1         5.2466    2.1699    2.6467 O.2       1 RES1    0.0000
      2 O2         9.5895    0.4877    3.8242 O.2       1 RES1    0.0000
      3 O3         6.6959    2.4224    1.0311 O.2       1 RES1    0.0000
      4 O4        10.3874   -0.4315    2.0139 O.2       1 RES1    0.0000
      5 N1         9.2618    1.4569    1.8624 N.3       1 RES1    0.0000
      6 N2         6.3926    2.3204    2.2289 N.pl3     1 RES1    0.0000
      7 N3         7.4009    2.3592    3.1326 N.3       1 RES1    0.0000
      8 N4         9.7822    0.4638    2.6097 N.pl3     1 RES1    0.0000
      9 C1         8.7281    2.5986    2.5911 C.3       1 RES1    0.0000
     10 H1         9.3304    2.8173    3.3198 H         1 RES1    0.0000
     11 H2         8.6934    3.3637    1.9967 H         1 RES1    0.0000
     12 C2         6.3228    3.5855    5.0151 C.3       1 RES1    0.0000
     13 H3         6.7147    4.3609    4.6315 H         1 RES1    0.0000
     14 H4         6.3412    3.6564    5.9617 H         1 RES1    0.0000
     15 H5         5.4234    3.5077    4.7208 H         1 RES1    0.0000
     16 C3         9.6407    1.5123    0.4572 C.3       1 RES1    0.0000
     17 H6         9.3211    2.3211    0.0750 H         1 RES1    0.0000
     18 H7         9.2615    0.7728   -0.0021 H         1 RES1    0.0000
     19 H8        10.5873    1.4792    0.3829 H         1 RES1    0.0000
     20 C4         7.1095    2.3498    4.5814 C.3       1 RES1    0.0000
     21 H9         7.9782    2.4092    5.0322 H         1 RES1    0.0000
     22 C5         6.4845    1.0437    5.0458 C.3       1 RES1    0.0000
     23 H10        7.0048    0.3144    4.7300 H         1 RES1    0.0000
     24 H11        5.6022    0.9754    4.7015 H         1 RES1    0.0000
     25 H12        6.4565    1.0256    5.9952 H         1 RES1    0.0000
@<TRIPOS>BOND
     1    1    6 2
     2    2    8 2
     3    3    6 2
     4    4    8 2
     5    5    8 1
     6    6    7 1
     7    7    9 1
     8    9    5 1
     9   10    9 1
    10   11    9 1
    11   12   13 1
    12   14   12 1
    13   15   12 1
    14   16    5 1
    15   17   16 1
    16   18   16 1
    17   19   16 1
    18   20    7 1
    19   21   20 1
    20   22   20 1
    21   23   22 1
    22   24   22 1
    23   25   22 1
    24   12   20 1
@<TRIPOS>SUBSTRUCTURE
     1 RES1 1

@<TRIPOS>CRYSIN
  13.2440    9.4700    7.1440  90.0000  90.0000  90.0000  33 1

