# MOL2 file generated by ConQuest
# Please check atom types

@<TRIPOS>MOLECULE
LURZAZ
    38    36     2
SMALL
NO_CHARGES
****
Generated from CSD

@<TRIPOS>ATOM
      1 O1         4.8632    0.8355    2.8979 O.2       1 RES1    0.0000
      2 O2         4.8114    5.0493    1.4742 O.2       2 RES2    0.0000
      3 O3         4.2325    9.6582    1.9300 O.2       2 RES2    0.0000
      4 O4         2.8639    8.5642    3.2122 O.2       2 RES2    0.0000
      5 O5         2.0725    3.2670    0.3399 O.2       1 RES1    0.0000
      6 O6         0.7916    3.2818    2.1190 O.2       1 RES1    0.0000
      7 O7         6.4789    1.7931    1.8047 O.2       1 RES1    0.0000
      8 O8         4.4948    4.1260    3.4173 O.2       2 RES2    0.0000
      9 N1         3.5600    8.6780    2.2007 N.pl3     2 RES2    0.0000
     10 N2         4.4565    1.7006    0.9186 N.3       1 RES1    0.0000
     11 N3         4.1948    4.9198    2.5218 N.pl3     2 RES2    0.0000
     12 N4         2.2147    1.6151    1.8128 N.3       1 RES1    0.0000
     13 N5         3.6006    7.6314    1.3632 N.3       2 RES2    0.0000
     14 N6         1.6619    2.7780    1.4019 N.pl3     1 RES1    0.0000
     15 N7         5.3153    1.4201    1.9319 N.pl3     1 RES1    0.0000
     16 N8         3.0973    5.6829    2.7114 N.3       2 RES2    0.0000
     17 C1         3.1926    1.0075    0.9373 C.3       1 RES1    0.0000
     18 H1         3.3408    0.0912    1.2204 H         1 RES1    0.0000
     19 H2         2.8350    0.9815    0.0362 H         1 RES1    0.0000
     20 C2         2.6993    6.5206    1.6145 C.3       2 RES2    0.0000
     21 H3         1.8130    6.8702    1.7966 H         2 RES2    0.0000
     22 H4         2.6414    5.9799    0.8126 H         2 RES2    0.0000
     23 C3         4.9858    2.3125   -0.2881 C.3       1 RES1    0.0000
     24 H5         5.8282    2.7316   -0.0923 H         1 RES1    0.0000
     25 H6         4.3670    2.9747   -0.6099 H         1 RES1    0.0000
     26 H7         5.1122    1.6372   -0.9597 H         1 RES1    0.0000
     27 C4         2.3048    5.5209    3.9125 C.3       2 RES2    0.0000
     28 H8         2.7580    4.9290    4.5174 H         2 RES2    0.0000
     29 H9         1.4487    5.1504    3.6842 H         2 RES2    0.0000
     30 H10        2.1814    6.3751    4.3328 H         2 RES2    0.0000
     31 C5         4.3374    7.8004    0.1141 C.3       2 RES2    0.0000
     32 H11        4.8770    8.5942    0.1659 H         2 RES2    0.0000
     33 H12        3.7176    7.8820   -0.6142 H         2 RES2    0.0000
     34 H13        4.9019    7.0352   -0.0306 H         2 RES2    0.0000
     35 C6         1.7193    1.0422    3.0332 C.3       1 RES1    0.0000
     36 H14        1.1011    1.6502    3.4454 H         1 RES1    0.0000
     37 H15        2.4520    0.8772    3.6300 H         1 RES1    0.0000
     38 H16        1.2697    0.2171    2.8393 H         1 RES1    0.0000
@<TRIPOS>BOND
     1    1   15 2
     2    2   11 2
     3    3    9 2
     4    4    9 2
     5    5   14 2
     6    6   14 2
     7    7   15 2
     8    8   11 2
     9    9   13 1
    10   10   15 1
    11   11   16 1
    12   12   14 1
    13   13   20 1
    14   16   20 1
    15   17   10 1
    16   18   17 1
    17   19   17 1
    18   20   21 1
    19   22   20 1
    20   23   10 1
    21   24   23 1
    22   25   23 1
    23   26   23 1
    24   27   16 1
    25   28   27 1
    26   29   27 1
    27   30   27 1
    28   31   13 1
    29   32   31 1
    30   33   31 1
    31   34   31 1
    32   35   12 1
    33   36   35 1
    34   37   35 1
    35   38   35 1
    36   12   17 1
@<TRIPOS>SUBSTRUCTURE
     1 RES1 1
     2 RES2 2

@<TRIPOS>CRYSIN
  20.8150   43.4270    6.2360  90.0000  90.0000  90.0000  43 1

