# MOL2 file generated by ConQuest
# Please check atom types

@<TRIPOS>MOLECULE
LUTXAB
    34    36     1
SMALL
NO_CHARGES
****
Generated from CSD

@<TRIPOS>ATOM
      1 C1         0.7571    1.9111    4.0385 C.2       1 RES1    0.0000
      2 C2         1.7826    1.5615    4.8220 C.2       1 RES1    0.0000
      3 H1         1.6164    1.2966    5.6981 H         1 RES1    0.0000
      4 C3         3.1104    1.5860    4.3464 C.2       1 RES1    0.0000
      5 C4         3.3868    1.9554    2.9741 C.2       1 RES1    0.0000
      6 C5         5.2362    1.9409    1.2037 C.3       1 RES1    0.0000
      7 H2         4.6523    1.5167    0.5722 H         1 RES1    0.0000
      8 H3         6.0790    1.4791    1.2211 H         1 RES1    0.0000
      9 H4         5.3777    2.8536    0.9441 H         1 RES1    0.0000
     10 C6         2.5149    2.9518    0.8761 C.3       1 RES1    0.0000
     11 H5         3.3097    3.4898    0.8666 H         1 RES1    0.0000
     12 H6         1.7557    3.5032    0.6751 H         1 RES1    0.0000
     13 H7         2.5892    2.2576    0.2176 H         1 RES1    0.0000
     14 C7         0.9771    2.3803    2.6549 C.3       1 RES1    0.0000
     15 H8         0.6557    3.3046    2.5903 H         1 RES1    0.0000
     16 C8        -1.1243    1.5234    2.0157 C.ar      1 RES1    0.0000
     17 C9        -1.9877    1.2153    0.9726 C.ar      1 RES1    0.0000
     18 H9        -1.6621    1.0443    0.1179 H         1 RES1    0.0000
     19 C10       -3.3421    1.1704    1.2370 C.ar      1 RES1    0.0000
     20 H10       -3.9318    0.9691    0.5469 H         1 RES1    0.0000
     21 C11       -3.8453    1.4177    2.5024 C.ar      1 RES1    0.0000
     22 H11       -4.7628    1.4174    2.6528 H         1 RES1    0.0000
     23 C12       -2.9759    1.6622    3.5289 C.ar      1 RES1    0.0000
     24 H12       -3.3073    1.7959    4.3867 H         1 RES1    0.0000
     25 C13       -1.5965    1.7164    3.3112 C.ar      1 RES1    0.0000
     26 C14       -0.6533    1.8115    4.4398 C.2       1 RES1    0.0000
     27 O1         5.3272    1.1414    4.8560 O.2       1 RES1    0.0000
     28 O2         3.7886    0.7065    6.3289 O.2       1 RES1    0.0000
     29 O3        -1.0042    1.7229    5.6132 O.2       1 RES1    0.0000
     30 O4         0.2188    1.5699    1.7176 O.3       1 RES1    0.0000
     31 N1         4.1030    1.1398    5.1987 N.pl3     1 RES1    0.0000
     32 N2         4.6314    1.9001    2.5309 N.3       1 RES1    0.0000
     33 H13        5.2095    1.8227    3.1624 H         1 RES1    0.0000
     34 N3         2.3456    2.3497    2.2071 N.3       1 RES1    0.0000
@<TRIPOS>BOND
     1    1    2 2
     2    2    3 1
     3    4    2 1
     4    5    4 2
     5    6    7 1
     6    8    6 1
     7    9    6 1
     8   10   11 1
     9   12   10 1
    10   13   10 1
    11   14    1 1
    12   15   14 1
    13   16   17 ar
    14   17   18 1
    15   19   17 ar
    16   20   19 1
    17   21   19 ar
    18   22   21 1
    19   23   21 ar
    20   24   23 1
    21   25   16 ar
    22   26    1 1
    23   27   31 2
    24   28   31 2
    25   29   26 2
    26   30   14 1
    27   31    4 1
    28   32    5 1
    29   33   32 1
    30   34    5 1
    31    6   32 1
    32   10   34 1
    33   14   34 1
    34   16   30 1
    35   23   25 ar
    36   25   26 1
@<TRIPOS>SUBSTRUCTURE
     1 RES1 1

@<TRIPOS>CRYSIN
  24.0182   26.8445    7.9140  90.0000  90.0000  90.0000  43 1

