# MOL2 file generated by ConQuest
# Please check atom types

@<TRIPOS>MOLECULE
LUVNEW
    24    24     1
SMALL
NO_CHARGES
****
Generated from CSD

@<TRIPOS>ATOM
      1 O1         2.7525    4.9419    0.0376 O.2       1 RES1    0.0000
      2 O2         4.0045   -0.1162    4.5932 O.2       1 RES1    0.0000
      3 O3         0.9922    4.8820    1.3364 O.2       1 RES1    0.0000
      4 O4         5.9276   -0.0434    3.5289 O.2       1 RES1    0.0000
      5 N1         4.7227    1.8026    3.7305 N.3       1 RES1    0.0000
      6 N2         0.6693    2.2205    2.2570 N.3       1 RES1    0.0000
      7 N3         2.3261    2.1532    3.5727 N.pl3     1 RES1    0.0000
      8 N4         2.7337    3.4595    1.6834 N.2       1 RES1    0.0000
      9 N5         0.3558    1.3995    3.2989 N.2       1 RES1    0.0000
     10 N6         1.3527    1.3616    4.1098 N.2       1 RES1    0.0000
     11 N7         2.1124    4.4548    0.9749 N.pl3     1 RES1    0.0000
     12 C1         3.5714    2.4142    4.3287 C.3       1 RES1    0.0000
     13 N8         4.9016    0.4705    3.9705 N.pl3     1 RES1    0.0000
     14 C2         1.9137    2.7251    2.4238 C.2       1 RES1    0.0000
     15 C3         5.7073    2.5185    2.9256 C.3       1 RES1    0.0000
     16 C4        -0.2551    2.3533    1.1297 C.3       1 RES1    0.0000
     17 H1         5.5351    3.4964    2.9470 H         1 RES1    0.0000
     18 H2         6.5235    2.4724    3.3741 H         1 RES1    0.0000
     19 H3         5.8645    1.9926    2.0714 H         1 RES1    0.0000
     20 H4         3.3888    2.0480    5.3366 H         1 RES1    0.0000
     21 H5         3.7089    3.3303    4.4269 H         1 RES1    0.0000
     22 H6         0.2259    2.4078    0.2990 H         1 RES1    0.0000
     23 H7        -0.8096    1.5129    1.1873 H         1 RES1    0.0000
     24 H8        -0.8566    3.1273    1.2792 H         1 RES1    0.0000
@<TRIPOS>BOND
     1    1   11 2
     2    2   13 2
     3    3   11 2
     4    4   13 2
     5    5   12 1
     6    6    9 1
     7    7   10 1
     8    8   11 1
     9    9   10 2
    10   12    7 1
    11   13    5 1
    12   14    6 1
    13   15    5 1
    14   16    6 1
    15   17   15 1
    16   18   15 1
    17   19   15 1
    18   20   12 1
    19   21   12 1
    20   22   16 1
    21   23   16 1
    22   24   16 1
    23    7   14 1
    24    8   14 2
@<TRIPOS>SUBSTRUCTURE
     1 RES1 1

@<TRIPOS>CRYSIN
   9.4134    9.2252   21.3550  90.0000  90.0000  90.0000  61 1

