# MOL2 file generated by ConQuest
# Please check atom types

@<TRIPOS>MOLECULE
LUVNIA
    24    24     1
SMALL
NO_CHARGES
****
Generated from CSD

@<TRIPOS>ATOM
      1 O1         2.0441   -1.8825   12.1433 O.2       1 RES1    0.0000
      2 O2         3.0495   -2.5111   10.3052 O.2       1 RES1    0.0000
      3 O3         5.1169    1.3588   12.0468 O.2       1 RES1    0.0000
      4 N1         5.1786   -0.5329    9.5704 N.3       1 RES1    0.0000
      5 O4         5.0598    1.3963   14.2362 O.2       1 RES1    0.0000
      6 N2         3.2344   -0.3992   10.9927 N.pl3     1 RES1    0.0000
      7 N3         5.5658    0.0053    8.4004 N.2       1 RES1    0.0000
      8 N4         3.2755    0.7443   13.1083 N.3       1 RES1    0.0000
      9 N5         3.5200    0.6742    8.8513 N.2       1 RES1    0.0000
     10 N6         4.5422    1.2008   13.1343 N.pl3     1 RES1    0.0000
     11 N7         2.7296   -1.6899   11.1493 N.pl3     1 RES1    0.0000
     12 N8         4.5662    0.7428    7.9827 N.2       1 RES1    0.0000
     13 C1         2.6524    0.6630   11.8042 C.3       1 RES1    0.0000
     14 C2         3.9333   -0.1215    9.8133 C.2       1 RES1    0.0000
     15 C3         2.5500    0.6733   14.3707 C.3       1 RES1    0.0000
     16 C4         6.0629   -1.4024   10.3395 C.3       1 RES1    0.0000
     17 H1         1.7229    0.4886   11.9390 H         1 RES1    0.0000
     18 H2         2.7476    1.5293   11.3181 H         1 RES1    0.0000
     19 H3         2.9668    0.0093   14.9666 H         1 RES1    0.0000
     20 H4         1.6570    0.3730   14.2169 H         1 RES1    0.0000
     21 H5         6.9508   -1.0444   10.2125 H         1 RES1    0.0000
     22 H6         6.0111   -2.3032   10.0086 H         1 RES1    0.0000
     23 H7         5.8049   -1.4080   11.2319 H         1 RES1    0.0000
     24 H8         2.5650    1.5199   14.7905 H         1 RES1    0.0000
@<TRIPOS>BOND
     1    1   11 2
     2    2   11 2
     3    3   10 2
     4    4    7 1
     5    5   10 2
     6    6   11 1
     7    7   12 2
     8    8   10 1
     9    9   12 1
    10   13    6 1
    11   14    4 1
    12   15    8 1
    13   16    4 1
    14   17   13 1
    15   18   13 1
    16   19   15 1
    17   20   15 1
    18   21   16 1
    19   22   16 1
    20   23   16 1
    21   24   15 1
    22    6   14 1
    23    8   13 1
    24    9   14 2
@<TRIPOS>SUBSTRUCTURE
     1 RES1 1

@<TRIPOS>CRYSIN
  11.1953    9.3248    9.9411  90.0000 111.2170  90.0000  14 1

