# MOL2 file generated by ConQuest
# Please check atom types

@<TRIPOS>MOLECULE
LUVPUO
    34    34     2
SMALL
NO_CHARGES
****
Generated from CSD

@<TRIPOS>ATOM
      1 N1        -1.3452   -3.3163    5.5852 N.3       1 RES1    0.0000
      2 N2         0.6701    0.7282    2.4658 N.3       2 RES2    0.0000
      3 N3        -1.2432   -0.0129    1.9697 N.3       2 RES2    0.0000
      4 O1         2.2994   -4.0100    5.7671 O.2       1 RES1    0.0000
      5 O2         2.2931   -4.7074    7.8229 O.2       1 RES1    0.0000
      6 N4         1.7250   -4.1942    6.8519 N.pl3     1 RES1    0.0000
      7 C1        -0.0995   -3.1358    6.0438 C.2       1 RES1    0.0000
      8 N5         0.3117   -2.0059    5.4594 N.3       1 RES1    0.0000
      9 N6        -1.6826   -2.3053    4.7493 N.2       1 RES1    0.0000
     10 N7         0.4153   -3.9133    7.0166 N.2       1 RES1    0.0000
     11 N8        -0.6768   -1.5137    4.6679 N.2       1 RES1    0.0000
     12 N9         0.5002   -1.1564    0.8845 N.2       2 RES2    0.0000
     13 N10       -1.4148    1.0738    2.7531 N.2       2 RES2    0.0000
     14 C2         0.0612   -0.2421    1.7694 C.2       2 RES2    0.0000
     15 C3         1.5466   -1.2543    5.6498 C.3       1 RES1    0.0000
     16 N11       -0.2588    1.5291    3.0626 N.2       2 RES2    0.0000
     17 C4        -2.3632   -0.7886    1.4839 C.3       2 RES2    0.0000
     18 C5         2.0872    1.0473    2.5734 C.3       2 RES2    0.0000
     19 C6        -2.2665   -4.3913    5.9162 C.3       1 RES1    0.0000
     20 O3         1.9649   -1.8174    2.4839 O.2       2 RES2    0.0000
     21 O4         2.1831   -2.4963    0.4287 O.2       2 RES2    0.0000
     22 N12        1.5999   -1.8297    1.2908 N.pl3     2 RES2    0.0000
     23 H1         1.6988   -1.2629    6.5708 H         1 RES1    0.0000
     24 H2         2.1242    1.9098    2.8891 H         2 RES2    0.0000
     25 H3         2.4899    0.9303    1.7379 H         2 RES2    0.0000
     26 H4         1.3616   -0.3943    5.3134 H         1 RES1    0.0000
     27 H5         2.2779   -1.6819    5.1293 H         1 RES1    0.0000
     28 H6        -2.8114   -4.1400    6.6238 H         1 RES1    0.0000
     29 H7        -2.7716   -0.2834    0.8174 H         2 RES2    0.0000
     30 H8        -2.0630   -1.6141    1.0827 H         2 RES2    0.0000
     31 H9        -2.8626   -4.5220    5.1574 H         1 RES1    0.0000
     32 H10       -1.7500   -5.2551    6.1277 H         1 RES1    0.0000
     33 H11       -2.9736   -0.9734    2.1965 H         2 RES2    0.0000
     34 H12        2.5169    0.4929    3.2355 H         2 RES2    0.0000
@<TRIPOS>BOND
     1    1    7 1
     2    2   14 1
     3    3   13 1
     4    4    6 2
     5    5    6 2
     6    6   10 1
     7    7    8 1
     8    8   11 1
     9    9    1 1
    10   10    7 2
    11   11    9 2
    12   12   14 2
    13   13   16 2
    14   14    3 1
    15   15    8 1
    16   16    2 1
    17   17    3 1
    18   18    2 1
    19   19    1 1
    20   20   22 2
    21   21   22 2
    22   22   12 1
    23   23   15 1
    24   24   18 1
    25   25   18 1
    26   26   15 1
    27   27   15 1
    28   28   19 1
    29   29   17 1
    30   30   17 1
    31   31   19 1
    32   32   19 1
    33   33   17 1
    34   34   18 1
@<TRIPOS>SUBSTRUCTURE
     1 RES1 1
     2 RES2 2

@<TRIPOS>CRYSIN
  14.2278    6.1607   31.2003  90.0000  90.0000  90.0000  61 1

