# MOL2 file generated by ConQuest
# Please check atom types

@<TRIPOS>MOLECULE
LUVPOH
    51    54     1
SMALL
NO_CHARGES
****
Generated from CSD

@<TRIPOS>ATOM
      1 O1         6.3028    1.2605    2.4771 O.2       1 RES1    0.0000
      2 N1         4.8804    2.5610    1.2436 N.am      1 RES1    0.0000
      3 H1         4.3682    1.9918    0.9773 H         1 RES1    0.0000
      4 C1         6.6166    3.7006    2.2760 C.3       1 RES1    0.0000
      5 O2         4.5839    6.3943   -0.1166 O.2       1 RES1    0.0000
      6 N2         5.7764    4.5418    1.4150 N.pl3     1 RES1    0.0000
      7 H2         5.7394    5.3527    1.3909 H         1 RES1    0.0000
      8 C2         5.9578    2.3372    2.0281 C.2       1 RES1    0.0000
      9 N3         3.7720    4.2273    0.0779 N.2       1 RES1    0.0000
     10 C3         4.7641    3.8690    0.8601 C.2       1 RES1    0.0000
     11 O3        -0.9485    3.6828   -1.0535 O.2       1 RES1    0.0000
     12 O4        -2.0568    5.2682   -1.9921 O.2       1 RES1    0.0000
     13 N4        -1.0199    4.7773   -1.5819 N.pl3     1 RES1    0.0000
     14 C4         8.0898    3.7617    1.9150 C.ar      1 RES1    0.0000
     15 O5         0.3421    9.0909   -3.7693 O.2       1 RES1    0.0000
     16 C5         8.9209    2.6751    2.1308 C.ar      1 RES1    0.0000
     17 H3         8.5582    1.8599    2.4572 H         1 RES1    0.0000
     18 N5         1.3897    8.6685   -3.3225 N.pl3     1 RES1    0.0000
     19 O6         2.4754    9.1853   -3.5158 O.2       1 RES1    0.0000
     20 C6        10.2785    2.7701    1.8747 C.ar      1 RES1    0.0000
     21 H4        10.8395    2.0165    2.0158 H         1 RES1    0.0000
     22 C7        10.8166    3.9436    1.4205 C.ar      1 RES1    0.0000
     23 H5        11.7495    4.0071    1.2499 H         1 RES1    0.0000
     24 C8         9.9987    5.0326    1.2114 C.ar      1 RES1    0.0000
     25 H6        10.3675    5.8479    0.8920 H         1 RES1    0.0000
     26 C9         8.6515    4.9438    1.4621 C.ar      1 RES1    0.0000
     27 H7         8.0975    5.7030    1.3241 H         1 RES1    0.0000
     28 C10        6.4451    4.1052    3.7624 C.3       1 RES1    0.0000
     29 H8         6.9835    3.4910    4.3228 H         1 RES1    0.0000
     30 H9         6.8072    5.0178    3.8870 H         1 RES1    0.0000
     31 C11        5.0140    4.0799    4.2535 C.ar      1 RES1    0.0000
     32 C12        4.4834    2.9421    4.8632 C.ar      1 RES1    0.0000
     33 H10        5.0223    2.1657    4.9608 H         1 RES1    0.0000
     34 C13        3.1941    2.9347    5.3200 C.ar      1 RES1    0.0000
     35 H11        2.8446    2.1516    5.7285 H         1 RES1    0.0000
     36 C14        2.3949    4.0558    5.1937 C.ar      1 RES1    0.0000
     37 H12        1.5001    4.0454    5.5134 H         1 RES1    0.0000
     38 C15        2.9080    5.1862    4.6001 C.ar      1 RES1    0.0000
     39 H13        2.3673    5.9626    4.5157 H         1 RES1    0.0000
     40 C16        4.1949    5.1979    4.1300 C.ar      1 RES1    0.0000
     41 H14        4.5328    5.9817    3.7127 H         1 RES1    0.0000
     42 C17        3.7270    5.5217   -0.3253 C.2       1 RES1    0.0000
     43 C18        2.5051    5.8898   -1.0988 C.ar      1 RES1    0.0000
     44 C19        1.3510    5.1202   -1.0500 C.ar      1 RES1    0.0000
     45 H15        1.3420    4.2963   -0.5767 H         1 RES1    0.0000
     46 C20        0.2181    5.5673   -1.6985 C.ar      1 RES1    0.0000
     47 C21        0.1809    6.7297   -2.4344 C.ar      1 RES1    0.0000
     48 H16       -0.6105    7.0226   -2.8708 H         1 RES1    0.0000
     49 C22        1.3556    7.4426   -2.5002 C.ar      1 RES1    0.0000
     50 C23        2.4971    7.0781   -1.8330 C.ar      1 RES1    0.0000
     51 H17        3.2723    7.6264   -1.8693 H         1 RES1    0.0000
@<TRIPOS>BOND
     1    1    8 2
     2    2    3 1
     3    4    6 1
     4    5   42 2
     5    6    7 1
     6    8    2 1
     7    9   10 2
     8   10    2 1
     9   11   13 2
    10   12   13 2
    11   13   46 1
    12   14    4 1
    13   15   18 2
    14   16   14 ar
    15   17   16 1
    16   18   19 2
    17   20   16 ar
    18   21   20 1
    19   22   20 ar
    20   23   22 1
    21   24   22 ar
    22   25   24 1
    23   26   14 ar
    24   27   26 1
    25   28    4 1
    26   29   28 1
    27   30   28 1
    28   31   28 1
    29   32   31 ar
    30   33   32 1
    31   34   32 ar
    32   35   34 1
    33   36   34 ar
    34   37   36 1
    35   38   36 ar
    36   39   38 1
    37   40   31 ar
    38   41   40 1
    39   42    9 1
    40   43   42 1
    41   44   43 ar
    42   45   44 1
    43   46   44 ar
    44   47   46 ar
    45   48   47 1
    46   49   18 1
    47   50   43 ar
    48   51   50 1
    49    4    8 1
    50    6   10 1
    51   24   26 ar
    52   38   40 ar
    53   47   49 ar
    54   49   50 ar
@<TRIPOS>SUBSTRUCTURE
     1 RES1 1

@<TRIPOS>CRYSIN
  17.7470    6.1667   19.1570  90.0000 104.5220  90.0000  14 1

