# MOL2 file generated by ConQuest
# Please check atom types

@<TRIPOS>MOLECULE
LUVREZ01
    31    32     1
SMALL
NO_CHARGES
****
Generated from CSD

@<TRIPOS>ATOM
      1 O1         6.4364    4.7283    8.5130 O.2       1 RES1    0.0000
      2 O2         6.4555    0.6996   13.8943 O.2       1 RES1    0.0000
      3 O3         5.6468   -0.9650   12.7634 O.2       1 RES1    0.0000
      4 N1         6.1677    0.1487   12.8347 N.pl3     1 RES1    0.0000
      5 N2         7.5084    2.7832    8.0246 N.am      1 RES1    0.0000
      6 C1         7.1198    2.1470    9.2358 C.ar      1 RES1    0.0000
      7 C2         9.4305    1.4591    7.2864 C.ar      1 RES1    0.0000
      8 H1         9.8603    1.6394    8.1139 H         1 RES1    0.0000
      9 C3         8.1689    1.9772    7.0243 C.ar      1 RES1    0.0000
     10 C4         7.1455    2.8407   10.4526 C.ar      1 RES1    0.0000
     11 H2         7.3758    3.7620   10.4679 H         1 RES1    0.0000
     12 C5         6.4768    0.8512   11.5859 C.ar      1 RES1    0.0000
     13 C6        10.0577    0.6743    6.3269 C.ar      1 RES1    0.0000
     14 H3        10.9155    0.3071    6.5044 H         1 RES1    0.0000
     15 C7         9.4377    0.4236    5.1095 C.ar      1 RES1    0.0000
     16 H4         9.8762   -0.1047    4.4531 H         1 RES1    0.0000
     17 C8         8.1797    0.9451    4.8534 C.ar      1 RES1    0.0000
     18 H5         7.7566    0.7769    4.0191 H         1 RES1    0.0000
     19 C9         7.1809    4.1051    7.7752 C.2       1 RES1    0.0000
     20 C10        6.7630    0.8004    9.2192 C.ar      1 RES1    0.0000
     21 H6         6.7441    0.3269    8.3950 H         1 RES1    0.0000
     22 C11        7.5356    1.7147    5.8161 C.ar      1 RES1    0.0000
     23 H7         6.6658    2.0597    5.6487 H         1 RES1    0.0000
     24 C12        6.8371    2.1895   11.6319 C.ar      1 RES1    0.0000
     25 H8         6.8718    2.6512   12.4620 H         1 RES1    0.0000
     26 C13        6.4364    0.1478   10.3952 C.ar      1 RES1    0.0000
     27 H9         6.1881   -0.7691   10.3845 H         1 RES1    0.0000
     28 C14        7.7980    4.7521    6.5619 C.3       1 RES1    0.0000
     29 H10        8.7057    4.4066    6.4334 H         1 RES1    0.0000
     30 H11        7.8332    5.7226    6.6913 H         1 RES1    0.0000
     31 H12        7.2560    4.5481    5.7723 H         1 RES1    0.0000
@<TRIPOS>BOND
     1    1   19 2
     2    2    4 2
     3    3    4 2
     4    4   12 1
     5    5    6 1
     6    6   10 ar
     7    7    8 1
     8    9    5 1
     9   10   11 1
    10   12   24 ar
    11   13    7 ar
    12   14   13 1
    13   15   13 ar
    14   16   15 1
    15   17   15 ar
    16   18   17 1
    17   19    5 1
    18   20    6 ar
    19   21   20 1
    20   22    9 ar
    21   23   22 1
    22   24   10 ar
    23   25   24 1
    24   26   12 ar
    25   27   26 1
    26   28   19 1
    27   29   28 1
    28   30   28 1
    29   31   28 1
    30    7    9 ar
    31   17   22 ar
    32   20   26 ar
@<TRIPOS>SUBSTRUCTURE
     1 RES1 1

@<TRIPOS>CRYSIN
  11.3407    7.0754   15.4505  90.0000  91.3480  90.0000 231 1

