# MOL2 file generated by ConQuest
# Please check atom types

@<TRIPOS>MOLECULE
LUWFOA
    44    43     2
SMALL
NO_CHARGES
****
Generated from CSD

@<TRIPOS>ATOM
      1 O1         8.7967    4.1264    0.4749 O.2       1 RES1    0.0000
      2 O2         7.2680    3.6549    2.0526 O.3       1 RES1    0.0000
      3 O3         4.4960    7.8886   -0.3906 O.3       1 RES1    0.0000
      4 O4         7.8073   10.3298   -0.8773 O.2       1 RES1    0.0000
      5 O5         6.3747   11.6360   -1.8585 O.2       1 RES1    0.0000
      6 N1         8.6334    6.8527    1.1265 N.3       1 RES1    0.0000
      7 N2         3.6121    8.7235   -1.1480 N.2       1 RES1    0.0000
      8 N3         6.6616   10.5829   -1.2723 N.pl3     1 RES1    0.0000
      9 C1         4.4722    5.2549    2.3821 C.ar      1 RES1    0.0000
     10 H1         4.6157    4.4849    1.8808 H         1 RES1    0.0000
     11 C2         3.5301    5.2441    3.4025 C.ar      1 RES1    0.0000
     12 H2         3.0651    4.4629    3.5960 H         1 RES1    0.0000
     13 C3         3.2813    6.3924    4.1315 C.ar      1 RES1    0.0000
     14 H3         2.6545    6.3832    4.8189 H         1 RES1    0.0000
     15 C4         3.9690    7.5564    3.8350 C.ar      1 RES1    0.0000
     16 H4         3.7860    8.3356    4.3081 H         1 RES1    0.0000
     17 C5         4.9330    7.5653    2.8318 C.ar      1 RES1    0.0000
     18 H5         5.3994    8.3488    2.6455 H         1 RES1    0.0000
     19 C6         5.2044    6.4076    2.1030 C.ar      1 RES1    0.0000
     20 C7         7.6779    5.9054    1.6783 C.3       1 RES1    0.0000
     21 H6         7.6454    5.9994    2.6533 H         1 RES1    0.0000
     22 C8         8.0080    4.4732    1.3139 C.2       1 RES1    0.0000
     23 C9         5.7358    8.4395   -0.3447 C.2       1 RES1    0.0000
     24 C10        5.6489    9.6421   -1.0539 C.2       1 RES1    0.0000
     25 C11        4.3111    9.7430   -1.5221 C.2       1 RES1    0.0000
     26 C12        3.6715   10.7891   -2.3638 C.3       1 RES1    0.0000
     27 H7         2.7478   10.5678   -2.5016 H         1 RES1    0.0000
     28 H8         4.1195   10.8359   -3.2121 H         1 RES1    0.0000
     29 H9         3.7351   11.6385   -1.9211 H         1 RES1    0.0000
     30 C13        6.2984    6.3555    1.0536 C.3       1 RES1    0.0000
     31 H10        6.0411    5.7079    0.3638 H         1 RES1    0.0000
     32 C14        6.6772    7.6747    0.3700 C.3       1 RES1    0.0000
     33 C15        8.0369    7.8427    0.4658 C.3       1 RES1    0.0000
     34 H11        8.4921    8.5700    0.1084 H         1 RES1    0.0000
     35 C16        7.3514    2.2268    1.7483 C.3       1 RES1    0.0000
     36 H12        8.1959    1.8646    2.0588 H         1 RES1    0.0000
     37 H13        7.2850    2.0813    0.7910 H         1 RES1    0.0000
     38 C17        6.2093    1.5675    2.4564 C.3       1 RES1    0.0000
     39 H14        6.3210    1.6668    3.4041 H         1 RES1    0.0000
     40 H15        6.1902    0.6342    2.2322 H         1 RES1    0.0000
     41 H16        5.3853    1.9788    2.1858 H         1 RES1    0.0000
     42 H17        9.4857    6.7816    1.2167 Du        2 SUP2    0.0000
     43 H18        3.2948    8.2785   -1.8638 Du        2 SUP2    0.0000
     44 H19        2.9167    8.9874   -0.6409 Du        2 SUP2    0.0000
@<TRIPOS>BOND
     1    1   22 2
     2    2   22 1
     3    3    7 1
     4    4    8 2
     5    5    8 2
     6    6   20 1
     7    7   25 2
     8    8   24 1
     9    9   10 1
    10   11    9 ar
    11   12   11 1
    12   13   11 ar
    13   14   13 1
    14   15   13 ar
    15   16   15 1
    16   17   15 ar
    17   18   17 1
    18   19    9 ar
    19   20   21 1
    20   22   20 1
    21   23    3 1
    22   24   23 2
    23   25   24 1
    24   26   25 1
    25   27   26 1
    26   28   26 1
    27   29   26 1
    28   30   19 1
    29   31   30 1
    30   32   23 1
    31   33    6 1
    32   34   33 1
    33   35    2 1
    34   36   35 1
    35   37   35 1
    36   38   35 1
    37   39   38 1
    38   40   38 1
    39   41   38 1
    40   17   19 ar
    41   20   30 1
    42   30   32 1
    43   32   33 1
@<TRIPOS>SUBSTRUCTURE
     1 RES1 1
     2 SUP2 42

@<TRIPOS>CRYSIN
   7.0673   14.6470   15.4800  90.0000  90.0000  90.0000  19 1

