# MOL2 file generated by ConQuest
# Please check atom types

@<TRIPOS>MOLECULE
LUXWAC
    65    69     1
SMALL
NO_CHARGES
****
Generated from CSD

@<TRIPOS>ATOM
      1 C1         7.6741    5.1740    7.3116 C.2       1 RES1    0.0000
      2 C2         7.9626    3.9989    8.2010 C.3       1 RES1    0.0000
      3 C3         6.8850    3.7367    9.2228 C.3       1 RES1    0.0000
      4 C4         5.4829    3.8481    8.6993 C.2       1 RES1    0.0000
      5 C5         5.1912    5.0683    7.8445 C.3       1 RES1    0.0000
      6 C6         3.8031    5.0830    7.2619 C.3       1 RES1    0.0000
      7 C7         3.5916    4.0309    6.1687 C.3       1 RES1    0.0000
      8 C8         4.7012    3.9883    5.1483 C.2       1 RES1    0.0000
      9 C9         6.0959    4.0833    5.6992 C.3       1 RES1    0.0000
     10 C10        6.2524    5.2412    6.7311 C.3       1 RES1    0.0000
     11 C11        7.2112    4.0292    4.6521 C.3       1 RES1    0.0000
     12 C12        6.8531    3.0820    3.5265 C.3       1 RES1    0.0000
     13 C13        5.5747    3.5376    2.8474 C.3       1 RES1    0.0000
     14 C14        4.4709    3.7367    3.8729 C.2       1 RES1    0.0000
     15 C15        3.1410    3.4261    3.2356 C.3       1 RES1    0.0000
     16 C16        3.4655    2.8320    1.8565 C.3       1 RES1    0.0000
     17 C17        4.9274    2.4715    1.9631 C.3       1 RES1    0.0000
     18 O1         8.5149    5.9885    7.0214 O.2       1 RES1    0.0000
     19 O2         4.6127    3.0615    8.9974 O.2       1 RES1    0.0000
     20 C18        6.1074    6.6253    6.1025 C.2       1 RES1    0.0000
     21 O3         6.0557    6.8752    4.9358 O.2       1 RES1    0.0000
     22 O4         6.0320    7.5348    7.0732 O.3       1 RES1    0.0000
     23 C19        6.0320    8.9107    6.6620 C.3       1 RES1    0.0000
     24 C20        5.7960    4.8151    2.0272 C.3       1 RES1    0.0000
     25 O5         5.5747    2.4411    0.6582 O.3       1 RES1    0.0000
     26 C21        5.9517    1.2857    0.1527 C.2       1 RES1    0.0000
     27 O6         5.7345    0.2286    0.6438 O.2       1 RES1    0.0000
     28 C22        6.6662    1.4717   -1.1637 C.ar      1 RES1    0.0000
     29 C23        7.0907    0.3515   -1.8277 C.ar      1 RES1    0.0000
     30 C24        7.7094    0.4859   -3.0678 C.ar      1 RES1    0.0000
     31 C25        7.8577    1.7422   -3.6050 C.ar      1 RES1    0.0000
     32 C26        7.4480    2.8664   -2.9447 C.ar      1 RES1    0.0000
     33 N1         8.5075    1.8831   -4.9056 N.pl3     1 RES1    0.0000
     34 C27        6.8711    2.7288   -1.6966 C.ar      1 RES1    0.0000
     35 O7         9.1311    0.9440   -5.3506 O.2       1 RES1    0.0000
     36 O8         8.4084    2.9549   -5.4702 O.2       1 RES1    0.0000
     37 H1         8.8173    4.1956    8.6057 H         1 RES1    0.0000
     38 H2         8.0388    3.2122    7.6335 H         1 RES1    0.0000
     39 H3         6.9735    2.8927    9.6643 H         1 RES1    0.0000
     40 H4         6.8916    4.3677    9.9523 H         1 RES1    0.0000
     41 H5         5.2773    5.8509    8.4400 H         1 RES1    0.0000
     42 H6         3.6384    5.9656    6.7981 H         1 RES1    0.0000
     43 H7         3.1467    4.9413    7.9936 H         1 RES1    0.0000
     44 H8         2.7452    4.1054    5.7827 H         1 RES1    0.0000
     45 H9         3.4909    3.1139    6.6037 H         1 RES1    0.0000
     46 H10        6.1623    3.2860    6.2724 H         1 RES1    0.0000
     47 H11        7.5717    3.1221    2.7653 H         1 RES1    0.0000
     48 H12        6.7195    2.1388    3.9176 H         1 RES1    0.0000
     49 H13        8.0716    3.7777    5.0842 H         1 RES1    0.0000
     50 H14        7.3341    4.8675    4.2632 H         1 RES1    0.0000
     51 H15        2.4911    4.1382    3.1974 H         1 RES1    0.0000
     52 H16        2.6796    2.7042    3.7879 H         1 RES1    0.0000
     53 H17        3.3925    3.5728    1.1954 H         1 RES1    0.0000
     54 H18        2.8927    2.1470    1.4907 H         1 RES1    0.0000
     55 H19        5.0642    1.6389    2.4125 H         1 RES1    0.0000
     56 H20        6.9080    9.1041    6.3660 H         1 RES1    0.0000
     57 H21        5.3756    9.0549    5.9844 H         1 RES1    0.0000
     58 H22        5.8345    9.4155    7.4534 H         1 RES1    0.0000
     59 H23        5.0314    5.0724    1.4475 H         1 RES1    0.0000
     60 H24        6.6048    4.7118    1.4403 H         1 RES1    0.0000
     61 H25        5.9656    5.5723    2.6357 H         1 RES1    0.0000
     62 H26        6.9735   -0.4999   -1.4403 H         1 RES1    0.0000
     63 H27        8.0470   -0.2131   -3.5431 H         1 RES1    0.0000
     64 H28        7.6045    3.7613   -3.3703 H         1 RES1    0.0000
     65 H29        6.6539    3.4745   -1.1378 H         1 RES1    0.0000
@<TRIPOS>BOND
     1    1    2 1
     2    2    3 1
     3    3    4 1
     4    4    5 1
     5    5    6 1
     6    6    7 1
     7    7    8 1
     8    8    9 1
     9    9   10 1
    10   10    1 1
    11   11    9 1
    12   12   11 1
    13   13   12 1
    14   14    8 2
    15   15   14 1
    16   16   15 1
    17   17   13 1
    18   18    1 2
    19   19    4 2
    20   20   10 1
    21   21   20 2
    22   22   20 1
    23   23   22 1
    24   24   13 1
    25   25   17 1
    26   26   25 1
    27   27   26 2
    28   28   26 1
    29   29   28 ar
    30   30   29 ar
    31   31   30 ar
    32   32   31 ar
    33   33   31 1
    34   34   28 ar
    35   35   33 2
    36   36   33 2
    37   37    2 1
    38   38    2 1
    39   39    3 1
    40   40    3 1
    41   41    5 1
    42   42    6 1
    43   43    6 1
    44   44    7 1
    45   45    7 1
    46   46    9 1
    47   47   12 1
    48   48   12 1
    49   49   11 1
    50   50   11 1
    51   51   15 1
    52   52   15 1
    53   53   16 1
    54   54   16 1
    55   55   17 1
    56   56   23 1
    57   57   23 1
    58   58   23 1
    59   59   24 1
    60   60   24 1
    61   61   24 1
    62   62   29 1
    63   63   30 1
    64   64   32 1
    65   65   34 1
    66    5   10 1
    67   13   14 1
    68   16   17 1
    69   32   34 ar
@<TRIPOS>SUBSTRUCTURE
     1 RES1 1

@<TRIPOS>CRYSIN
   8.1945    8.1945   72.0140  90.0000  90.0000  90.0000  96 1

