# MOL2 file generated by ConQuest
# Please check atom types

@<TRIPOS>MOLECULE
LUXYOU01
    49    33     2
SMALL
NO_CHARGES
****
Generated from CSD

@<TRIPOS>ATOM
      1 O1         2.8931   -1.6723    0.1801 O.3       1 RES1    0.0000
      2 H1         3.1831   -2.4081   -0.0352 H         1 RES1    0.0000
      3 O2         4.8327   -3.0365    1.2290 O.2       1 RES1    0.0000
      4 N1         3.7825   -1.0599    1.0345 N.am      1 RES1    0.0000
      5 C1         4.7885   -1.8446    1.5739 C.2       1 RES1    0.0000
      6 C2         5.6389   -1.1757    2.4479 C.2       1 RES1    0.0000
      7 H2         6.3512   -1.6411    2.8237 H         1 RES1    0.0000
      8 C3         5.4693    0.1286    2.7718 C.2       1 RES1    0.0000
      9 C4         4.4029    0.8281    2.1888 C.2       1 RES1    0.0000
     10 H3         4.2721    1.7207    2.4141 H         1 RES1    0.0000
     11 C5         3.5614    0.2449    1.3111 C.2       1 RES1    0.0000
     12 C6         6.3733    0.8067    3.7629 C.3       1 RES1    0.0000
     13 H4         5.9496    0.8219    4.6244 H         1 RES1    0.0000
     14 H5         6.5454    1.7070    3.4753 H         1 RES1    0.0000
     15 H6         7.2013    0.3252    3.8208 H         1 RES1    0.0000
     16 C7         2.3473    0.8809    0.6464 C.3       1 RES1    0.0000
     17 H7         1.6842    0.1743    0.4954 H         1 RES1    0.0000
     18 C8         1.6818    1.9773    1.4698 C.3       1 RES1    0.0000
     19 H8         1.3838    1.6123    2.3179 H         1 RES1    0.0000
     20 H9         2.3242    2.6812    1.6528 H         1 RES1    0.0000
     21 C9         0.4947    2.5522    0.7157 C.3       1 RES1    0.0000
     22 H10       -0.1781    1.8634    0.5978 H         1 RES1    0.0000
     23 H11        0.0995    3.2712    1.2350 H         1 RES1    0.0000
     24 C10        0.8995    3.0613   -0.5854 C.3       1 RES1    0.0000
     25 H12        1.5250    3.7927   -0.4623 H         1 RES1    0.0000
     26 H13        0.1224    3.4071   -1.0498 H         1 RES1    0.0000
     27 C11        1.5480    1.9951   -1.4315 C.3       1 RES1    0.0000
     28 H14        1.8315    2.3738   -2.2776 H         1 RES1    0.0000
     29 H15        0.9090    1.2885   -1.6146 H         1 RES1    0.0000
     30 C12        2.7522    1.4229   -0.6909 C.3       1 RES1    0.0000
     31 H16        3.1511    0.7135   -1.2205 H         1 RES1    0.0000
     32 H17        3.4183    2.1172   -0.5699 H         1 RES1    0.0000
     33 C13        2.7564    1.1060    0.3930 Du        2 SUP2    0.0000
     34 H18        2.6664    0.6106   -0.4458 Du        2 SUP2    0.0000
     35 C14        1.4260    0.9893    1.1057 Du        2 SUP2    0.0000
     36 H19        1.4679    1.4339    1.9662 Du        2 SUP2    0.0000
     37 H20        1.2084    0.0549    1.2536 Du        2 SUP2    0.0000
     38 C15        0.3441    1.6562    0.2110 Du        2 SUP2    0.0000
     39 H21       -0.5032    1.6356    0.6827 Du        2 SUP2    0.0000
     40 H22        0.2413    1.1293   -0.5968 Du        2 SUP2    0.0000
     41 C16        0.6530    3.1354   -0.1965 Du        2 SUP2    0.0000
     42 H23        0.0004    3.4716   -0.8285 Du        2 SUP2    0.0000
     43 H24        0.6711    3.7172    0.5823 Du        2 SUP2    0.0000
     44 C17        2.0532    3.0188   -0.8388 Du        2 SUP2    0.0000
     45 H25        1.9790    2.4671   -1.6332 Du        2 SUP2    0.0000
     46 H26        2.3353    3.9024   -1.1212 Du        2 SUP2    0.0000
     47 C18        3.1211    2.4397    0.0424 Du        2 SUP2    0.0000
     48 H27        3.9699    2.4356   -0.4272 Du        2 SUP2    0.0000
     49 H28        3.2177    2.9776    0.8430 Du        2 SUP2    0.0000
@<TRIPOS>BOND
     1    1    2 1
     2    3    5 2
     3    4    1 1
     4    5    4 1
     5    6    5 1
     6    7    6 1
     7    8    6 2
     8    9    8 1
     9   10    9 1
    10   11    4 1
    11   12    8 1
    12   13   12 1
    13   14   12 1
    14   15   12 1
    15   16   11 1
    16   17   16 1
    17   18   16 1
    18   19   18 1
    19   20   18 1
    20   21   18 1
    21   22   21 1
    22   23   21 1
    23   24   21 1
    24   25   24 1
    25   26   24 1
    26   27   24 1
    27   28   27 1
    28   29   27 1
    29   30   16 1
    30   31   30 1
    31   32   30 1
    32    9   11 2
    33   27   30 1
@<TRIPOS>SUBSTRUCTURE
     1 RES1 1
     2 SUP2 33

@<TRIPOS>CRYSIN
  16.2237   13.7216   10.3539  90.0000  92.6070  90.0000  15 1

