# MOL2 file generated by ConQuest
# Please check atom types

@<TRIPOS>MOLECULE
LUXYOU
   384   396    12
SMALL
NO_CHARGES
****
Generated from CSD

@<TRIPOS>ATOM
      1 O1        17.1779    5.4042    2.7774 O.3       1 RES1    0.0000
      2 H1        17.2074    6.1435    3.1323 H         1 RES1    0.0000
      3 O2        15.3286    6.7719    4.0025 O.2       1 RES1    0.0000
      4 N1        15.8993    4.8780    2.9085 N.am      1 RES1    0.0000
      5 C1        14.9638    5.6629    3.5608 C.2       1 RES1    0.0000
      6 C2        13.6785    5.0831    3.6605 C.2       1 RES1    0.0000
      7 H2        12.9995    5.5604    4.0799 H         1 RES1    0.0000
      8 C3        13.4024    3.8480    3.1612 C.2       1 RES1    0.0000
      9 C4        14.4280    3.1312    2.5205 C.2       1 RES1    0.0000
     10 H3        14.2411    2.2883    2.1751 H         1 RES1    0.0000
     11 C5        15.6885    3.6377    2.3907 C.2       1 RES1    0.0000
     12 C6        12.0179    3.2622    3.2655 C.3       1 RES1    0.0000
     13 H4        11.5639    3.6480    4.0190 H         1 RES1    0.0000
     14 H5        12.0801    2.3104    3.3816 H         1 RES1    0.0000
     15 H6        11.5284    3.4545    2.4624 H         1 RES1    0.0000
     16 C7        16.8552    2.9247    1.7597 C.3       1 RES1    0.0000
     17 H7        17.4033    3.5982    1.3054 H         1 RES1    0.0000
     18 C8        17.7257    2.2697    2.8411 C.3       1 RES1    0.0000
     19 H8        18.0239    2.9460    3.4691 H         1 RES1    0.0000
     20 H9        17.1963    1.6195    3.3302 H         1 RES1    0.0000
     21 C9        18.9393    1.5797    2.2284 C.3       1 RES1    0.0000
     22 H10       19.5248    2.2468    1.8364 H         1 RES1    0.0000
     23 H11       19.4333    1.1220    2.9248 H         1 RES1    0.0000
     24 C10       18.5306    0.5754    1.1578 C.3       1 RES1    0.0000
     25 H12       19.3261    0.2073    0.7402 H         1 RES1    0.0000
     26 H13       18.0429   -0.1548    1.5699 H         1 RES1    0.0000
     27 C11       17.6594    1.2331    0.0999 C.3       1 RES1    0.0000
     28 H14       17.3738    0.5638   -0.5423 H         1 RES1    0.0000
     29 H15       18.1781    1.9014   -0.3749 H         1 RES1    0.0000
     30 C12       16.4346    1.8925    0.7184 C.3       1 RES1    0.0000
     31 H16       15.8782    1.2160    1.1361 H         1 RES1    0.0000
     32 H17       15.9139    2.3242    0.0247 H         1 RES1    0.0000
     33 O3        24.7873    5.4446    8.3422 O.3       2 RES2    0.0000
     34 H18       24.7945    6.2098    8.6337 H         2 RES2    0.0000
     35 O4        22.7941    6.9261    9.1114 O.2       2 RES2    0.0000
     36 N2        23.5626    4.8573    8.6194 N.am      2 RES2    0.0000
     37 C13       22.5346    5.7043    9.0046 C.2       2 RES2    0.0000
     38 C14       21.3052    5.0546    9.2314 C.2       2 RES2    0.0000
     39 H19       20.5708    5.5631    9.4919 H         2 RES2    0.0000
     40 C15       21.1523    3.7016    9.0813 C.2       2 RES2    0.0000
     41 C16       22.2652    2.9247    8.7155 C.2       2 RES2    0.0000
     42 H20       22.1716    2.0036    8.6261 H         2 RES2    0.0000
     43 C17       23.4876    3.5026    8.4879 C.2       2 RES2    0.0000
     44 C18       19.8066    3.0604    9.2910 C.3       2 RES2    0.0000
     45 H21       19.4400    3.3522   10.1275 H         2 RES2    0.0000
     46 H22       19.9056    2.1059    9.3016 H         2 RES2    0.0000
     47 H23       19.2168    3.3136    8.5766 H         2 RES2    0.0000
     48 C19       24.7337    2.7912    8.0537 C.3       2 RES2    0.0000
     49 H24       25.4917    3.2224    8.5024 H         2 RES2    0.0000
     50 C20       24.9402    2.9535    6.5414 C.3       2 RES2    0.0000
     51 H25       24.2098    2.5287    6.0647 H         2 RES2    0.0000
     52 H26       24.9423    3.8967    6.3121 H         2 RES2    0.0000
     53 C21       26.2537    2.3250    6.1247 C.3       2 RES2    0.0000
     54 H27       26.9863    2.7995    6.5500 H         2 RES2    0.0000
     55 H28       26.3607    2.4099    5.1646 H         2 RES2    0.0000
     56 C22       26.3152    0.8575    6.5087 C.3       2 RES2    0.0000
     57 H29       27.1854    0.4974    6.2740 H         2 RES2    0.0000
     58 H30       25.6424    0.3648    6.0114 H         2 RES2    0.0000
     59 C23       26.0774    0.6729    7.9972 C.3       2 RES2    0.0000
     60 H31       26.8083    1.0750    8.4929 H         2 RES2    0.0000
     61 H32       26.0573   -0.2736    8.2055 H         2 RES2    0.0000
     62 C24       24.7626    1.3124    8.4288 C.3       2 RES2    0.0000
     63 H33       24.6578    1.2187    9.3892 H         2 RES2    0.0000
     64 H34       24.0227    0.8540    7.9981 H         2 RES2    0.0000
     65 O5        19.0846   15.4922   17.2227 O.3       3 RES3    0.0000
     66 H35       19.0429   14.8046   16.7784 H         3 RES3    0.0000
     67 O6        21.0924   14.1225   16.2490 O.2       3 RES3    0.0000
     68 N3        20.3013   16.1118   16.9985 N.am      3 RES3    0.0000
     69 C25       21.3245   15.3255   16.4914 C.2       3 RES3    0.0000
     70 C26       22.5442   16.0198   16.3072 C.2       3 RES3    0.0000
     71 H36       23.2751   15.5618   15.9582 H         3 RES3    0.0000
     72 C27       22.6868   17.3424   16.6242 C.2       3 RES3    0.0000
     73 C28       21.5844   18.0452   17.1483 C.2       3 RES3    0.0000
     74 H37       21.6807   18.9417   17.3778 H         3 RES3    0.0000
     75 C29       20.3736   17.4339   17.3274 C.2       3 RES3    0.0000
     76 C30       24.0010   18.0449   16.4231 C.3       3 RES3    0.0000
     77 H38       24.5830   17.8556   17.1628 H         3 RES3    0.0000
     78 H39       23.8536   18.9915   16.3673 H         3 RES3    0.0000
     79 H40       24.4080   17.7368   15.6099 H         3 RES3    0.0000
     80 C31       19.1116   18.1146   17.7757 C.3       3 RES3    0.0000
     81 H41       18.5984   17.4687   18.3045 H         3 RES3    0.0000
     82 C32       18.2648   18.4854   16.5508 C.3       3 RES3    0.0000
     83 H42       18.7518   19.1186   16.0020 H         3 RES3    0.0000
     84 H43       18.1022   17.6898   16.0191 H         3 RES3    0.0000
     85 C33       16.9344   19.0970   16.9667 C.3       3 RES3    0.0000
     86 H44       16.4486   19.3784   16.1751 H         3 RES3    0.0000
     87 H45       16.4009   18.4249   17.4216 H         3 RES3    0.0000
     88 C34       17.1267   20.2898   17.8844 C.3       3 RES3    0.0000
     89 H46       16.2622   20.5999   18.1961 H         3 RES3    0.0000
     90 H47       17.5429   21.0117   17.3892 H         3 RES3    0.0000
     91 C35       17.9963   19.9280   19.0828 C.3       3 RES3    0.0000
     92 H48       17.5297   19.2816   19.6347 H         3 RES3    0.0000
     93 H49       18.1514   20.7215   19.6176 H         3 RES3    0.0000
     94 C36       19.3366   19.3444   18.6446 C.3       3 RES3    0.0000
     95 H50       19.8350   20.0112   18.1447 H         3 RES3    0.0000
     96 H51       19.8571   19.1020   19.4254 H         3 RES3    0.0000
     97 O7         3.7828   15.3120   11.6307 O.3       4 RES4    0.0000
     98 H52        3.7835   14.6029   12.0438 H         4 RES4    0.0000
     99 O8         1.8555   14.0850   12.8562 O.2       4 RES4    0.0000
    100 N4         2.5854   15.9780   11.8583 N.am      4 RES4    0.0000
    101 C37        1.5986   15.2609   12.5079 C.2       4 RES4    0.0000
    102 C38        0.4011   15.9750   12.7226 C.2       4 RES4    0.0000
    103 H53       -0.2973   15.5591   13.1742 H         4 RES4    0.0000
    104 C39        0.2351   17.2637   12.2868 C.2       4 RES4    0.0000
    105 C40        1.2941   17.8998   11.6154 C.2       4 RES4    0.0000
    106 H54        1.1847   18.7731   11.3169 H         4 RES4    0.0000
    107 C41        2.4856   17.2554   11.3928 C.2       4 RES4    0.0000
    108 C42       -1.0664   17.9921   12.5020 C.3       4 RES4    0.0000
    109 H55       -1.7846   17.3554   12.5576 H         4 RES4    0.0000
    110 H56       -1.2242   18.5880   11.7679 H         4 RES4    0.0000
    111 H57       -1.0212   18.4940   13.3188 H         4 RES4    0.0000
    112 C43        3.6806   17.8656   10.7127 C.3       4 RES4    0.0000
    113 H58        4.1369   17.1564   10.2113 H         4 RES4    0.0000
    114 C44        3.3034   18.9707    9.7287 C.3       4 RES4    0.0000
    115 H59        2.7160   18.6101    9.0466 H         4 RES4    0.0000
    116 H60        2.8252   19.6713   10.1979 H         4 RES4    0.0000
    117 C45        4.5447   19.5577    9.0676 C.3       4 RES4    0.0000
    118 H61        4.2832   20.2765    8.4701 H         4 RES4    0.0000
    119 H62        4.9817   18.8726    8.5386 H         4 RES4    0.0000
    120 C46        5.5221   20.0961   10.1049 C.3       4 RES4    0.0000
    121 H63        6.3239   20.4092    9.6594 H         4 RES4    0.0000
    122 H64        5.1209   20.8486   10.5671 H         4 RES4    0.0000
    123 C47        5.8908   19.0194   11.1169 C.3       4 RES4    0.0000
    124 H65        6.4529   19.4060   11.8059 H         4 RES4    0.0000
    125 H66        6.4000   18.3227   10.6718 H         4 RES4    0.0000
    126 C48        4.6579   18.4028   11.7633 C.3       4 RES4    0.0000
    127 H67        4.2109   19.0716   12.3045 H         4 RES4    0.0000
    128 H68        4.9298   17.6787   12.3483 H         4 RES4    0.0000
    129 O9        -1.5521    9.0571   10.3235 O.3       5 RES5    0.0000
    130 H69       -1.5529    8.3405    9.9258 H         5 RES5    0.0000
    131 O10        0.4226    7.7508    9.2432 O.2       5 RES5    0.0000
    132 N5        -0.3323    9.6853   10.1420 N.am      5 RES5    0.0000
    133 C49        0.6751    8.9275    9.5719 C.2       5 RES5    0.0000
    134 C50        1.9001    9.6220    9.4212 C.2       5 RES5    0.0000
    135 H70        2.6155    9.1890    9.0162 H         5 RES5    0.0000
    136 C51        2.0645   10.9107    9.8510 C.2       5 RES5    0.0000
    137 C52        0.9850   11.5803   10.4564 C.2       5 RES5    0.0000
    138 H71        1.0975   12.4528   10.7612 H         5 RES5    0.0000
    139 C53       -0.2279   10.9687   10.6029 C.2       5 RES5    0.0000
    140 C54        3.3849   11.6182    9.6935 C.3       5 RES5    0.0000
    141 H72        4.0546   10.9881    9.4215 H         5 RES5    0.0000
    142 H73        3.6371   12.0134   10.5310 H         5 RES5    0.0000
    143 H74        3.3024   12.3035    9.0276 H         5 RES5    0.0000
    144 C55       -1.4704   11.5847   11.1943 C.3       5 RES5    0.0000
    145 H75       -1.9159   10.8941   11.7298 H         5 RES5    0.0000
    146 C56       -2.4434   12.0037   10.0805 C.3       5 RES5    0.0000
    147 H76       -2.0472   12.7181    9.5566 H         5 RES5    0.0000
    148 H77       -2.6042   11.2506    9.4900 H         5 RES5    0.0000
    149 C57       -3.7604   12.4777   10.6718 C.3       5 RES5    0.0000
    150 H78       -4.2021   11.7315   11.1076 H         5 RES5    0.0000
    151 H79       -4.3369   12.7927    9.9582 H         5 RES5    0.0000
    152 C58       -3.5521   13.5983   11.6803 C.3       5 RES5    0.0000
    153 H80       -4.3957   13.8014   12.1104 H         5 RES5    0.0000
    154 H81       -3.2523   14.3956   11.2160 H         5 RES5    0.0000
    155 C59       -2.5269   13.2194   12.7395 C.3       5 RES5    0.0000
    156 H82       -2.8798   12.4998   13.2864 H         5 RES5    0.0000
    157 H83       -2.3645   13.9811   13.3169 H         5 RES5    0.0000
    158 C60       -1.2099   12.7747   12.1083 C.3       5 RES5    0.0000
    159 H84       -0.8264   13.5057   11.5966 H         5 RES5    0.0000
    160 H85       -0.5788   12.5246   12.8031 H         5 RES5    0.0000
    161 O11       12.1328   11.8089    9.1673 O.3       6 RES6    0.0000
    162 H86       12.1015   12.6241    9.2446 H         6 RES6    0.0000
    163 O12       10.1447   13.3957    9.6836 O.2       6 RES6    0.0000
    164 N6        10.8574   11.2846    9.2992 N.am      6 RES6    0.0000
    165 C61        9.8433   12.1922    9.5663 C.2       6 RES6    0.0000
    166 C62        8.5601   11.6016    9.6558 C.2       6 RES6    0.0000
    167 H87        7.8274   12.1460    9.8421 H         6 RES6    0.0000
    168 C63        8.3572   10.2582    9.4784 C.2       6 RES6    0.0000
    169 C64        9.4672    9.4244    9.2392 C.2       6 RES6    0.0000
    170 H88        9.3376    8.5091    9.1361 H         6 RES6    0.0000
    171 C65       10.7314    9.9346    9.1555 C.2       6 RES6    0.0000
    172 C66        6.9660    9.6817    9.5041 C.3       6 RES6    0.0000
    173 H89        6.6409    9.6726   10.4073 H         6 RES6    0.0000
    174 H90        6.9846    8.7855    9.1608 H         6 RES6    0.0000
    175 H91        6.3861   10.2198    8.9610 H         6 RES6    0.0000
    176 C67       11.9863    9.1597    8.8773 C.3       6 RES6    0.0000
    177 H92       12.7081    9.5786    9.3911 H         6 RES6    0.0000
    178 C68       12.3662    9.2506    7.3987 C.3       6 RES6    0.0000
    179 H93       11.6967    8.7965    6.8621 H         6 RES6    0.0000
    180 H94       12.3946   10.1811    7.1247 H         6 RES6    0.0000
    181 C69       13.7271    8.6094    7.1705 C.3       6 RES6    0.0000
    182 H95       13.9432    8.6445    6.2265 H         6 RES6    0.0000
    183 H96       14.4026    9.1116    7.6518 H         6 RES6    0.0000
    184 C70       13.7459    7.1660    7.6390 C.3       6 RES6    0.0000
    185 H97       13.1755    6.6354    7.0619 H         6 RES6    0.0000
    186 H98       14.6494    6.8178    7.5681 H         6 RES6    0.0000
    187 C71       13.2707    7.0292    9.0710 C.3       6 RES6    0.0000
    188 H99       13.9263    7.4286    9.6632 H         6 RES6    0.0000
    189 H100      13.2018    6.0882    9.2940 H         6 RES6    0.0000
    190 C72       11.9188    7.6994    9.2959 C.3       6 RES6    0.0000
    191 H101      11.2381    7.2434    8.7783 H         6 RES6    0.0000
    192 H102      11.6765    7.6386   10.2341 H         6 RES6    0.0000
    193 O13       14.7730   18.6670   13.2731 O.3       7 RES7    0.0000
    194 H103      14.8202   19.4115   12.9344 H         7 RES7    0.0000
    195 O14       16.8402   20.0226   12.4507 O.2       7 RES7    0.0000
    196 N7        16.0216   18.0684   13.2514 N.am      7 RES7    0.0000
    197 C73       17.0796   18.8453   12.8086 C.2       7 RES7    0.0000
    198 C74       18.3298   18.1980   12.8356 C.2       7 RES7    0.0000
    199 H104      19.0789   18.6543   12.5272 H         7 RES7    0.0000
    200 C75       18.4764   16.9224   13.3020 C.2       7 RES7    0.0000
    201 C76       17.3403   16.2116   13.7350 C.2       7 RES7    0.0000
    202 H105      17.4341   15.3380   14.0400 H         7 RES7    0.0000
    203 C77       16.0990   16.7875   13.7140 C.2       7 RES7    0.0000
    204 C78       19.8466   16.2981   13.3991 C.3       7 RES7    0.0000
    205 H106      20.2694   16.3218   12.5386 H         7 RES7    0.0000
    206 H107      19.7638   15.3877   13.6899 H         7 RES7    0.0000
    207 H108      20.3775   16.7889   14.0305 H         7 RES7    0.0000
    208 C79       14.8130   16.1262   14.1340 C.3       7 RES7    0.0000
    209 H109      14.2726   16.7999   14.5957 H         7 RES7    0.0000
    210 C80       15.0231   14.9682   15.1019 C.3       7 RES7    0.0000
    211 H110      15.5165   15.2772   15.8783 H         7 RES7    0.0000
    212 H111      15.5449   14.2740   14.6699 H         7 RES7    0.0000
    213 C81       13.6820   14.3967   15.5447 C.3       7 RES7    0.0000
    214 H112      13.8332   13.6494   16.1447 H         7 RES7    0.0000
    215 H113      13.1877   15.0754   16.0305 H         7 RES7    0.0000
    216 C82       12.8611   13.9308   14.3530 C.3       7 RES7    0.0000
    217 H114      11.9937   13.6273   14.6604 H         7 RES7    0.0000
    218 H115      13.3069   13.1824   13.9277 H         7 RES7    0.0000
    219 C83       12.6746   15.0519   13.3388 C.3       7 RES7    0.0000
    220 H116      12.1192   15.7470   13.7260 H         7 RES7    0.0000
    221 H117      12.2167   14.7051   12.5576 H         7 RES7    0.0000
    222 C84       14.0111   15.6536   12.9152 C.3       7 RES7    0.0000
    223 H118      13.8537   16.4047   12.3216 H         7 RES7    0.0000
    224 H119      14.5253   14.9898   12.4282 H         7 RES7    0.0000
    225 O15       20.1069   11.9230   15.1647 O.3       8 RES8    0.0000
    226 H120      20.1488   12.6794   15.4786 H         8 RES8    0.0000
    227 O16       18.1420   13.5110   15.8063 O.2       8 RES8    0.0000
    228 N8        18.8500   11.3943   15.4002 N.am      8 RES8    0.0000
    229 C85       17.8496   12.2947   15.7327 C.2       8 RES8    0.0000
    230 C86       16.5845   11.7025   15.9460 C.2       8 RES8    0.0000
    231 H121      15.8724   12.2455   16.1922 H         8 RES8    0.0000
    232 C87       16.3719   10.3627   15.8025 C.2       8 RES8    0.0000
    233 C88       17.4552    9.5275   15.4638 C.2       8 RES8    0.0000
    234 H122      17.3161    8.6114   15.3759 H         8 RES8    0.0000
    235 C89       18.7107   10.0443   15.2619 C.2       8 RES8    0.0000
    236 C90       14.9894    9.7837   15.9588 C.3       8 RES8    0.0000
    237 H123      14.5457   10.2087   16.6965 H         8 RES8    0.0000
    238 H124      15.0548    8.8408   16.1256 H         8 RES8    0.0000
    239 H125      14.4886    9.9324   15.1532 H         8 RES8    0.0000
    240 C91       19.9298    9.2639   14.8575 C.3       8 RES8    0.0000
    241 H126      20.6847    9.5952   15.3892 H         8 RES8    0.0000
    242 C92       20.2605    9.5084   13.3738 C.3       8 RES8    0.0000
    243 H127      19.5383    9.1724   12.8202 H         8 RES8    0.0000
    244 H128      20.3464   10.4602   13.2122 H         8 RES8    0.0000
    245 C93       21.5550    8.8101   12.9972 C.3       8 RES8    0.0000
    246 H129      22.2890    9.2000   13.4996 H         8 RES8    0.0000
    247 H130      21.7332    8.9485   12.0533 H         8 RES8    0.0000
    248 C94       21.4837    7.3197   13.2828 C.3       8 RES8    0.0000
    249 H131      22.3470    6.9145   13.0999 H         8 RES8    0.0000
    250 H132      20.8295    6.9118   12.6946 H         8 RES8    0.0000
    251 C95       21.0970    7.0486   14.7344 C.3       8 RES8    0.0000
    252 H133      20.9864    6.0937   14.8640 H         8 RES8    0.0000
    253 H134      21.8105    7.3484   15.3188 H         8 RES8    0.0000
    254 C96       19.8048    7.7618   15.1125 C.3       8 RES8    0.0000
    255 H135      19.6094    7.6054   16.0495 H         8 RES8    0.0000
    256 H136      19.0702    7.4037   14.5900 H         8 RES8    0.0000
    257 O17        6.1532    8.3690   17.3243 O.3       9 RES9    0.0000
    258 H137       6.1659    7.6607   16.9116 H         9 RES9    0.0000
    259 O18        8.2580    7.1063   16.4040 O.2       9 RES9    0.0000
    260 N9         7.3275    9.0624   17.0857 N.am      9 RES9    0.0000
    261 C97        8.4091    8.3292   16.6164 C.2       9 RES9    0.0000
    262 C98        9.5823    9.0887   16.4391 C.2       9 RES9    0.0000
    263 H138      10.3431    8.6666   16.1085 H         9 RES9    0.0000
    264 C99        9.6463   10.4262   16.7340 C.2       9 RES9    0.0000
    265 C100       8.4950   11.0732   17.2120 C.2       9 RES9    0.0000
    266 H139       8.5313   11.9802   17.4082 H         9 RES9    0.0000
    267 C101       7.3223   10.3922   17.3932 C.2       9 RES9    0.0000
    268 C102      10.9385   11.1887   16.5983 C.3       9 RES9    0.0000
    269 H140      11.4264   11.1428   17.4254 H         9 RES9    0.0000
    270 H141      10.7481   12.1073   16.3902 H         9 RES9    0.0000
    271 H142      11.4665   10.8029   15.8954 H         9 RES9    0.0000
    272 C103       6.0266   10.9983   17.8752 C.3       9 RES9    0.0000
    273 H143       5.5685   10.3276   18.4244 H         9 RES9    0.0000
    274 C104       5.1170   11.3216   16.6798 C.3       9 RES9    0.0000
    275 H144       5.5651   11.9526   16.0971 H         9 RES9    0.0000
    276 H145       4.9522   10.5100   16.1732 H         9 RES9    0.0000
    277 C105       3.7831   11.9117   17.1331 C.3       9 RES9    0.0000
    278 H146       3.2706   12.1792   16.3540 H         9 RES9    0.0000
    279 H147       3.2754   11.2340   17.6061 H         9 RES9    0.0000
    280 C106       3.9798   13.1158   18.0429 C.3       9 RES9    0.0000
    281 H148       3.1192   13.4090   18.3787 H         9 RES9    0.0000
    282 H149       4.3661   13.8456   17.5338 H         9 RES9    0.0000
    283 C107       4.8917   12.7789   19.2139 C.3       9 RES9    0.0000
    284 H150       5.0395   13.5776   19.7470 H         9 RES9    0.0000
    285 H151       4.4594   12.1184   19.7774 H         9 RES9    0.0000
    286 C108       6.2310   12.2383   18.7361 C.3       9 RES9    0.0000
    287 H152       6.7837   12.0134   19.5015 H         9 RES9    0.0000
    288 H153       6.6909   12.9198   18.2208 H         9 RES9    0.0000
    289 O19        2.5042   11.6196   13.5169 O.3      10 RES10   0.0000
    290 H154       2.6021   12.3947   13.2693 H        10 RES10   0.0000
    291 O20        4.6271   12.9173   12.7692 O.2      10 RES10   0.0000
    292 N10        3.7149   10.9527   13.4309 N.am     10 RES10   0.0000
    293 C109       4.8059   11.7085   13.0343 C.2      10 RES10   0.0000
    294 C110       6.0169   10.9754   12.9884 C.2      10 RES10   0.0000
    295 H155       6.7930   11.4081   12.7155 H        10 RES10   0.0000
    296 C111       6.0814    9.6513   13.3327 C.2      10 RES10   0.0000
    297 C112       4.9158    8.9839   13.7458 C.2      10 RES10   0.0000
    298 H156       4.9614    8.0863   13.9886 H        10 RES10   0.0000
    299 C113       3.7136    9.6347   13.7947 C.2      10 RES10   0.0000
    300 C114       7.3826    8.8963   13.2646 C.3      10 RES10   0.0000
    301 H157       7.4527    8.4566   12.4149 H        10 RES10   0.0000
    302 H158       7.4104    8.2411   13.9658 H        10 RES10   0.0000
    303 H159       8.1146    9.5095   13.3683 H        10 RES10   0.0000
    304 C115       2.4015    9.0201   14.1957 C.3      10 RES10   0.0000
    305 H160       1.8919    9.7058   14.6775 H        10 RES10   0.0000
    306 C116       1.5834    8.6280   12.9587 C.3      10 RES10   0.0000
    307 H161       1.4720    9.4045   12.3882 H        10 RES10   0.0000
    308 H162       2.0645    7.9536   12.4548 H        10 RES10   0.0000
    309 C117       0.2158    8.0860   13.3469 C.3      10 RES10   0.0000
    310 H163      -0.2430    7.7768   12.5500 H        10 RES10   0.0000
    311 H164      -0.3122    8.7993   13.7374 H        10 RES10   0.0000
    312 C118       0.3253    6.9366   14.3445 C.3      10 RES10   0.0000
    313 H165      -0.5632    6.6796   14.6394 H        10 RES10   0.0000
    314 H166       0.7296    6.1711   13.9087 H        10 RES10   0.0000
    315 C119       1.1613    7.3299   15.5494 C.3      10 RES10   0.0000
    316 H167       1.2572    6.5636   16.1371 H        10 RES10   0.0000
    317 H168       0.7057    8.0310   16.0419 H        10 RES10   0.0000
    318 C120       2.5431    7.8224   15.1285 C.3      10 RES10   0.0000
    319 H169       3.0523    8.0780   15.9125 H        10 RES10   0.0000
    320 H170       3.0205    7.1107   14.6756 H        10 RES10   0.0000
    321 O21       12.2851   12.5365    1.6236 O.3      11 RES11   0.0000
    322 H171      12.0801   13.0248    0.9991 H        11 RES11   0.0000
    323 O22       14.1771   13.7149    0.2339 O.2      11 RES11   0.0000
    324 N11       13.4478   11.8495    1.3111 N.am     11 RES11   0.0000
    325 C121      14.4189   12.5456    0.6139 C.2      11 RES11   0.0000
    326 C122      15.6197   11.8205    0.4137 C.2      11 RES11   0.0000
    327 H172      16.3146   12.2234   -0.0552 H        11 RES11   0.0000
    328 C123      15.7919   10.5534    0.8834 C.2      11 RES11   0.0000
    329 C124      14.7356    9.9324    1.5774 C.2      11 RES11   0.0000
    330 H173      14.8497    9.0674    1.9030 H        11 RES11   0.0000
    331 C125      13.5455   10.5766    1.7819 C.2      11 RES11   0.0000
    332 C126      17.0860    9.8086    0.6645 C.3      11 RES11   0.0000
    333 H174      17.6005   10.2530   -0.0133 H        11 RES11   0.0000
    334 H175      16.8949    8.9098    0.3844 H        11 RES11   0.0000
    335 H176      17.5866    9.7887    1.4843 H        11 RES11   0.0000
    336 C127      12.3212    9.9747    2.4046 C.3      11 RES11   0.0000
    337 H177      11.8935   10.6675    2.9515 H        11 RES11   0.0000
    338 C128      11.3358    9.5781    1.2984 C.3      11 RES11   0.0000
    339 H178      11.1376   10.3552    0.7517 H        11 RES11   0.0000
    340 H179      11.7473    8.9071    0.7288 H        11 RES11   0.0000
    341 C129      10.0411    9.0256    1.8697 C.3      11 RES11   0.0000
    342 H180       9.4812    8.7053    1.1456 H        11 RES11   0.0000
    343 H181       9.5621    9.7362    2.3254 H        11 RES11   0.0000
    344 C130      10.3050    7.8884    2.8442 C.3      11 RES11   0.0000
    345 H182       9.4714    7.6275    3.2655 H        11 RES11   0.0000
    346 H183      10.6442    7.1218    2.3559 H        11 RES11   0.0000
    347 C131      11.3042    8.2828    3.9144 C.3      11 RES11   0.0000
    348 H184      11.4892    7.5170    4.4796 H        11 RES11   0.0000
    349 H185      10.9210    8.9789    4.4700 H        11 RES11   0.0000
    350 C132      12.6032    8.7813    3.3045 C.3      11 RES11   0.0000
    351 H186      13.0166    8.0725    2.7878 H        11 RES11   0.0000
    352 H187      13.2170    9.0397    4.0095 H        11 RES11   0.0000
    353 O23       16.1540    9.1608    4.4525 O.3      12 RES12   0.0000
    354 H188      16.2003    8.3571    4.2893 H        12 RES12   0.0000
    355 O24       18.2028    7.6919    3.7947 O.2      12 RES12   0.0000
    356 N12       17.3552    9.7655    4.1298 N.am     12 RES12   0.0000
    357 C133      18.4091    8.9270    3.8128 C.2      12 RES12   0.0000
    358 C134      19.6198    9.6060    3.5313 C.2      12 RES12   0.0000
    359 H189      20.3757    9.1088    3.3149 H        12 RES12   0.0000
    360 C135      19.7146   10.9740    3.5667 C.2      12 RES12   0.0000
    361 C136      18.5748   11.7301    3.8974 C.2      12 RES12   0.0000
    362 H190      18.6378   12.6573    3.9258 H        12 RES12   0.0000
    363 C137      17.3793   11.1340    4.1785 C.2      12 RES12   0.0000
    364 C138      20.9975   11.6812    3.2375 C.3      12 RES12   0.0000
    365 H191      21.6937   11.0351    3.1037 H        12 RES12   0.0000
    366 H192      21.2373   12.2649    3.9620 H        12 RES12   0.0000
    367 H193      20.8824   12.1958    2.4358 H        12 RES12   0.0000
    368 C139      16.1012   11.8312    4.5483 C.3      12 RES12   0.0000
    369 H194      15.3697   11.3722    4.0837 H        12 RES12   0.0000
    370 C140      16.0620   13.2957    4.1260 C.3      12 RES12   0.0000
    371 H195      16.2215   13.3620    3.1722 H        12 RES12   0.0000
    372 H196      16.7660   13.7821    4.5823 H        12 RES12   0.0000
    373 C141      14.7095   13.9233    4.4601 C.3      12 RES12   0.0000
    374 H197      14.7289   14.8654    4.2322 H        12 RES12   0.0000
    375 H198      14.0177   13.5002    3.9277 H        12 RES12   0.0000
    376 C142      14.3704   13.7702    5.9372 C.3      12 RES12   0.0000
    377 H199      14.9828   14.3072    6.4643 H        12 RES12   0.0000
    378 H200      13.4715   14.0999    6.0952 H        12 RES12   0.0000
    379 C143      14.4615   12.3207    6.3852 C.3      12 RES12   0.0000
    380 H201      13.7712   11.8033    5.9429 H        12 RES12   0.0000
    381 H202      14.3094   12.2704    7.3416 H        12 RES12   0.0000
    382 C144      15.8247   11.7282    6.0575 C.3      12 RES12   0.0000
    383 H203      15.8500   10.7974    6.3292 H        12 RES12   0.0000
    384 H204      16.5121   12.2041    6.5481 H        12 RES12   0.0000
@<TRIPOS>BOND
     1    1    2 1
     2    3    5 2
     3    4    1 1
     4    5    4 1
     5    6    5 1
     6    7    6 1
     7    8    6 2
     8    9    8 1
     9   10    9 1
    10   11    4 1
    11   12    8 1
    12   13   12 1
    13   14   12 1
    14   15   12 1
    15   16   11 1
    16   17   16 1
    17   18   16 1
    18   19   18 1
    19   20   18 1
    20   21   18 1
    21   22   21 1
    22   23   21 1
    23   24   21 1
    24   25   24 1
    25   26   24 1
    26   27   24 1
    27   28   27 1
    28   29   27 1
    29   30   16 1
    30   31   30 1
    31   32   30 1
    32   33   34 1
    33   35   37 2
    34   36   33 1
    35   37   36 1
    36   38   37 1
    37   39   38 1
    38   40   38 2
    39   41   40 1
    40   42   41 1
    41   43   36 1
    42   44   40 1
    43   45   44 1
    44   46   44 1
    45   47   44 1
    46   48   43 1
    47   49   48 1
    48   50   48 1
    49   51   50 1
    50   52   50 1
    51   53   50 1
    52   54   53 1
    53   55   53 1
    54   56   53 1
    55   57   56 1
    56   58   56 1
    57   59   56 1
    58   60   59 1
    59   61   59 1
    60   62   48 1
    61   63   62 1
    62   64   62 1
    63   65   66 1
    64   67   69 2
    65   68   65 1
    66   69   68 1
    67   70   69 1
    68   71   70 1
    69   72   70 2
    70   73   72 1
    71   74   73 1
    72   75   68 1
    73   76   72 1
    74   77   76 1
    75   78   76 1
    76   79   76 1
    77   80   75 1
    78   81   80 1
    79   82   80 1
    80   83   82 1
    81   84   82 1
    82   85   82 1
    83   86   85 1
    84   87   85 1
    85   88   85 1
    86   89   88 1
    87   90   88 1
    88   91   88 1
    89   92   91 1
    90   93   91 1
    91   94   80 1
    92   95   94 1
    93   96   94 1
    94   97   98 1
    95   99  101 2
    96  100   97 1
    97  101  100 1
    98  102  101 1
    99  103  102 1
   100  104  102 2
   101  105  104 1
   102  106  105 1
   103  107  100 1
   104  108  104 1
   105  109  108 1
   106  110  108 1
   107  111  108 1
   108  112  107 1
   109  113  112 1
   110  114  112 1
   111  115  114 1
   112  116  114 1
   113  117  114 1
   114  118  117 1
   115  119  117 1
   116  120  117 1
   117  121  120 1
   118  122  120 1
   119  123  120 1
   120  124  123 1
   121  125  123 1
   122  126  112 1
   123  127  126 1
   124  128  126 1
   125  129  130 1
   126  131  133 2
   127  132  129 1
   128  133  132 1
   129  134  133 1
   130  135  134 1
   131  136  134 2
   132  137  136 1
   133  138  137 1
   134  139  132 1
   135  140  136 1
   136  141  140 1
   137  142  140 1
   138  143  140 1
   139  144  139 1
   140  145  144 1
   141  146  144 1
   142  147  146 1
   143  148  146 1
   144  149  146 1
   145  150  149 1
   146  151  149 1
   147  152  149 1
   148  153  152 1
   149  154  152 1
   150  155  152 1
   151  156  155 1
   152  157  155 1
   153  158  144 1
   154  159  158 1
   155  160  158 1
   156  161  162 1
   157  163  165 2
   158  164  161 1
   159  165  164 1
   160  166  165 1
   161  167  166 1
   162  168  166 2
   163  169  168 1
   164  170  169 1
   165  171  164 1
   166  172  168 1
   167  173  172 1
   168  174  172 1
   169  175  172 1
   170  176  171 1
   171  177  176 1
   172  178  176 1
   173  179  178 1
   174  180  178 1
   175  181  178 1
   176  182  181 1
   177  183  181 1
   178  184  181 1
   179  185  184 1
   180  186  184 1
   181  187  184 1
   182  188  187 1
   183  189  187 1
   184  190  176 1
   185  191  190 1
   186  192  190 1
   187  193  194 1
   188  195  197 2
   189  196  193 1
   190  197  196 1
   191  198  197 1
   192  199  198 1
   193  200  198 2
   194  201  200 1
   195  202  201 1
   196  203  196 1
   197  204  200 1
   198  205  204 1
   199  206  204 1
   200  207  204 1
   201  208  203 1
   202  209  208 1
   203  210  208 1
   204  211  210 1
   205  212  210 1
   206  213  210 1
   207  214  213 1
   208  215  213 1
   209  216  213 1
   210  217  216 1
   211  218  216 1
   212  219  216 1
   213  220  219 1
   214  221  219 1
   215  222  208 1
   216  223  222 1
   217  224  222 1
   218  225  226 1
   219  227  229 2
   220  228  225 1
   221  229  228 1
   222  230  229 1
   223  231  230 1
   224  232  230 2
   225  233  232 1
   226  234  233 1
   227  235  228 1
   228  236  232 1
   229  237  236 1
   230  238  236 1
   231  239  236 1
   232  240  235 1
   233  241  240 1
   234  242  240 1
   235  243  242 1
   236  244  242 1
   237  245  242 1
   238  246  245 1
   239  247  245 1
   240  248  245 1
   241  249  248 1
   242  250  248 1
   243  251  248 1
   244  252  251 1
   245  253  251 1
   246  254  240 1
   247  255  254 1
   248  256  254 1
   249  257  258 1
   250  259  261 2
   251  260  257 1
   252  261  260 1
   253  262  261 1
   254  263  262 1
   255  264  262 2
   256  265  264 1
   257  266  265 1
   258  267  260 1
   259  268  264 1
   260  269  268 1
   261  270  268 1
   262  271  268 1
   263  272  267 1
   264  273  272 1
   265  274  272 1
   266  275  274 1
   267  276  274 1
   268  277  274 1
   269  278  277 1
   270  279  277 1
   271  280  277 1
   272  281  280 1
   273  282  280 1
   274  283  280 1
   275  284  283 1
   276  285  283 1
   277  286  272 1
   278  287  286 1
   279  288  286 1
   280  289  290 1
   281  291  293 2
   282  292  289 1
   283  293  292 1
   284  294  293 1
   285  295  294 1
   286  296  294 2
   287  297  296 1
   288  298  297 1
   289  299  292 1
   290  300  296 1
   291  301  300 1
   292  302  300 1
   293  303  300 1
   294  304  299 1
   295  305  304 1
   296  306  304 1
   297  307  306 1
   298  308  306 1
   299  309  306 1
   300  310  309 1
   301  311  309 1
   302  312  309 1
   303  313  312 1
   304  314  312 1
   305  315  312 1
   306  316  315 1
   307  317  315 1
   308  318  304 1
   309  319  318 1
   310  320  318 1
   311  321  322 1
   312  323  325 2
   313  324  321 1
   314  325  324 1
   315  326  325 1
   316  327  326 1
   317  328  326 2
   318  329  328 1
   319  330  329 1
   320  331  324 1
   321  332  328 1
   322  333  332 1
   323  334  332 1
   324  335  332 1
   325  336  331 1
   326  337  336 1
   327  338  336 1
   328  339  338 1
   329  340  338 1
   330  341  338 1
   331  342  341 1
   332  343  341 1
   333  344  341 1
   334  345  344 1
   335  346  344 1
   336  347  344 1
   337  348  347 1
   338  349  347 1
   339  350  336 1
   340  351  350 1
   341  352  350 1
   342  353  354 1
   343  355  357 2
   344  356  353 1
   345  357  356 1
   346  358  357 1
   347  359  358 1
   348  360  358 2
   349  361  360 1
   350  362  361 1
   351  363  356 1
   352  364  360 1
   353  365  364 1
   354  366  364 1
   355  367  364 1
   356  368  363 1
   357  369  368 1
   358  370  368 1
   359  371  370 1
   360  372  370 1
   361  373  370 1
   362  374  373 1
   363  375  373 1
   364  376  373 1
   365  377  376 1
   366  378  376 1
   367  379  376 1
   368  380  379 1
   369  381  379 1
   370  382  368 1
   371  383  382 1
   372  384  382 1
   373    9   11 2
   374   27   30 1
   375   41   43 2
   376   59   62 1
   377   73   75 2
   378   91   94 1
   379  105  107 2
   380  123  126 1
   381  137  139 2
   382  155  158 1
   383  169  171 2
   384  187  190 1
   385  201  203 2
   386  219  222 1
   387  233  235 2
   388  251  254 1
   389  265  267 2
   390  283  286 1
   391  297  299 2
   392  315  318 1
   393  329  331 2
   394  347  350 1
   395  361  363 2
   396  379  382 1
@<TRIPOS>SUBSTRUCTURE
     1 RES1 1
     2 RES2 33
     3 RES3 65
     4 RES4 97
     5 RES5 129
     6 RES6 161
     7 RES7 193
     8 RES8 225
     9 RES9 257
    10 RES10 289
    11 RES11 321
    12 RES12 353

@<TRIPOS>CRYSIN
  25.3005   27.6360   19.1387  90.0000  96.1220  90.0000  14 1

