# MOL2 file generated by ConQuest
# Please check atom types

@<TRIPOS>MOLECULE
LUYBEO
    78    74     3
SMALL
NO_CHARGES
****
Generated from CSD

@<TRIPOS>ATOM
      1 O1         6.2984    6.8451    3.1851 O.3       1 RES1    0.0000
      2 N1         5.6596    6.3138    4.3051 N.2       1 RES1    0.0000
      3 C1         5.9671    7.0697    5.3221 C.2       1 RES1    0.0000
      4 C2         6.8523    8.0876    4.9825 C.2       1 RES1    0.0000
      5 H1         7.2179    8.7559    5.5162 H         1 RES1    0.0000
      6 C3         7.0276    7.8485    3.7208 C.2       1 RES1    0.0000
      7 C4         5.4124    6.8680    6.6672 C.2       1 RES1    0.0000
      8 O2         4.6746    5.9806    6.9215 O.2       1 RES1    0.0000
      9 O3         5.7337    7.8402    7.4883 O.3       1 RES1    0.0000
     10 N2         7.8282    8.4720    2.6747 N.pl3     1 RES1    0.0000
     11 O4         7.7875    8.2145    1.4829 O.2       1 RES1    0.0000
     12 O5         8.4270    9.4808    3.0415 O.2       1 RES1    0.0000
     13 O6         6.3322   11.1359   16.0984 O.3       1 RES1    0.0000
     14 N3         7.0865   11.5833   14.9940 N.2       1 RES1    0.0000
     15 C5         6.7298   10.7178   14.0158 C.2       1 RES1    0.0000
     16 C6         5.8748    9.7264   14.4855 C.2       1 RES1    0.0000
     17 H2         5.5186    9.0106   14.0099 H         1 RES1    0.0000
     18 C7         5.6804   10.0285   15.7529 C.2       1 RES1    0.0000
     19 C8         7.4353   10.9972   12.7289 C.2       1 RES1    0.0000
     20 O7         8.1022   11.9776   12.4455 O.2       1 RES1    0.0000
     21 O8         7.0457   10.0532   11.8807 O.3       1 RES1    0.0000
     22 N4         4.9826    9.2973   16.7914 N.pl3     1 RES1    0.0000
     23 O9         4.4148    8.2976   16.4614 O.2       1 RES1    0.0000
     24 O10        4.8871    9.9674   17.8259 O.2       1 RES1    0.0000
     25 C9         5.1305    7.7535    8.8081 C.3       1 RES1    0.0000
     26 H3         5.3538    6.9081    9.2274 H         1 RES1    0.0000
     27 H4         4.1655    7.8211    8.7421 H         1 RES1    0.0000
     28 C10        5.6769    8.8855    9.6039 C.3       1 RES1    0.0000
     29 H5         5.4050    9.7163    9.1827 H         1 RES1    0.0000
     30 H6         5.2758    8.8618   10.4871 H         1 RES1    0.0000
     31 C11        7.1200    8.8983    9.7553 C.3       1 RES1    0.0000
     32 H7         7.5317    8.8655    8.8780 H         1 RES1    0.0000
     33 H8         7.3948    8.1059   10.2425 H         1 RES1    0.0000
     34 C12        7.6062   10.1125   10.4793 C.3       1 RES1    0.0000
     35 H9         7.3021   10.9168   10.0309 H         1 RES1    0.0000
     36 H10        8.5762   10.1226   10.5065 H         1 RES1    0.0000
     37 O11        7.4029    4.0689    6.4654 O.3       2 RES2    0.0000
     38 N5         8.1712    4.1648    5.2989 N.2       2 RES2    0.0000
     39 C13        7.4649    3.5294    4.4021 C.2       2 RES2    0.0000
     40 C14        6.3458    2.9004    4.8835 C.2       2 RES2    0.0000
     41 H11        5.7655    2.3152    4.4545 H         2 RES2    0.0000
     42 C15        6.3163    3.3660    6.1665 C.2       2 RES2    0.0000
     43 C16        8.0510    3.4755    3.0124 C.2       2 RES2    0.0000
     44 O12        9.2429    3.6453    2.7931 O.2       2 RES2    0.0000
     45 O13        7.1771    3.0775    2.2146 O.3       2 RES2    0.0000
     46 N6         5.4481    3.1423    7.3078 N.pl3     2 RES2    0.0000
     47 O14        5.8354    3.4664    8.3811 O.2       2 RES2    0.0000
     48 O15        4.3746    2.6548    6.9273 O.2       2 RES2    0.0000
     49 O16        6.0752    4.6505   -6.4557 O.3       2 RES2    0.0000
     50 N7         5.3295    4.5227   -5.2950 N.2       2 RES2    0.0000
     51 C17        5.9421    5.3005   -4.3711 C.2       2 RES2    0.0000
     52 C18        7.1506    5.7597   -4.9068 C.2       2 RES2    0.0000
     53 H12        7.8341    6.2161   -4.4701 H         2 RES2    0.0000
     54 C19        7.0976    5.4082   -6.1276 C.2       2 RES2    0.0000
     55 C20        5.3692    5.3479   -3.0454 C.2       2 RES2    0.0000
     56 O17        4.3297    4.9837   -2.7154 O.2       2 RES2    0.0000
     57 O18        6.3240    5.8035   -2.1273 O.3       2 RES2    0.0000
     58 N8         8.0526    5.6465   -7.2107 N.pl3     2 RES2    0.0000
     59 O19        9.1597    6.0263   -6.9778 O.2       2 RES2    0.0000
     60 O20        7.7514    5.3881   -8.3908 O.2       2 RES2    0.0000
     61 C21        7.5982    2.8547    0.7861 C.3       2 RES2    0.0000
     62 H13        7.5727    1.9117    0.5609 H         2 RES2    0.0000
     63 H14        8.4969    3.1889    0.6347 H         2 RES2    0.0000
     64 C22        6.5979    3.6243   -0.0233 C.3       2 RES2    0.0000
     65 H15        5.7058    3.3578    0.2407 H         2 RES2    0.0000
     66 H16        6.7122    3.3998   -0.9608 H         2 RES2    0.0000
     67 C23        6.7530    5.1672    0.1553 C.3       2 RES2    0.0000
     68 H17        6.4905    5.3881    1.0637 H         2 RES2    0.0000
     69 H18        7.6890    5.3890    0.0621 H         2 RES2    0.0000
     70 C24        6.0180    5.9989   -0.7201 C.3       2 RES2    0.0000
     71 H19        6.1946    6.9237   -0.4891 H         2 RES2    0.0000
     72 H20        5.0714    5.8373   -0.5842 H         2 RES2    0.0000
     73 C25        7.3783    4.2360    0.0446 Du        3 SUP3    0.0000
     74 H21        7.7075    4.1703   -0.8657 Du        3 SUP3    0.0000
     75 H22        7.8910    4.9280    0.4969 Du        3 SUP3    0.0000
     76 C26        5.7592    4.6742    0.0214 Du        3 SUP3    0.0000
     77 H23        5.2063    4.0552   -0.4872 Du        3 SUP3    0.0000
     78 H24        5.3859    4.8011    0.9084 Du        3 SUP3    0.0000
@<TRIPOS>BOND
     1    1    2 1
     2    2    3 2
     3    3    4 1
     4    4    5 1
     5    6    1 1
     6    7    3 1
     7    8    7 2
     8    9    7 1
     9   10    6 1
    10   11   10 2
    11   12   10 2
    12   13   14 1
    13   14   15 2
    14   15   16 1
    15   16   17 1
    16   18   13 1
    17   19   15 1
    18   20   19 2
    19   21   19 1
    20   22   18 1
    21   23   22 2
    22   24   22 2
    23   25    9 1
    24   26   25 1
    25   27   25 1
    26   28   25 1
    27   29   28 1
    28   30   28 1
    29   31   28 1
    30   32   31 1
    31   33   31 1
    32   34   21 1
    33   35   34 1
    34   36   34 1
    35   37   38 1
    36   38   39 2
    37   39   40 1
    38   40   41 1
    39   42   37 1
    40   43   39 1
    41   44   43 2
    42   45   43 1
    43   46   42 1
    44   47   46 2
    45   48   46 2
    46   49   50 1
    47   50   51 2
    48   51   52 1
    49   52   53 1
    50   54   49 1
    51   55   51 1
    52   56   55 2
    53   57   55 1
    54   58   54 1
    55   59   58 2
    56   60   58 2
    57   61   45 1
    58   62   61 1
    59   63   61 1
    60   64   61 1
    61   65   64 1
    62   66   64 1
    63   67   64 1
    64   68   67 1
    65   69   67 1
    66   70   57 1
    67   71   70 1
    68   72   70 1
    69    4    6 2
    70   16   18 2
    71   31   34 1
    72   40   42 2
    73   52   54 2
    74   67   70 1
@<TRIPOS>SUBSTRUCTURE
     1 RES1 1
     2 RES2 37
     3 SUP3 73

@<TRIPOS>CRYSIN
   9.0000    9.1293   19.4240  90.0000  92.1970  90.0000   4 1

