# MOL2 file generated by ConQuest
# Please check atom types

@<TRIPOS>MOLECULE
LUYQED
    40    42     2
SMALL
NO_CHARGES
****
Generated from CSD

@<TRIPOS>ATOM
      1 O1        18.1598   -1.9203    0.3607 O.3       1 RES1    0.0000
      2 N1        17.1191   -1.0791   -0.1097 N.2       1 RES1    0.0000
      3 C1        18.7470   -1.2806    1.4125 C.ar      1 RES1    0.0000
      4 C2        19.8346   -1.7374    2.1542 C.ar      1 RES1    0.0000
      5 C3        20.2526   -0.9021    3.1656 C.ar      1 RES1    0.0000
      6 C4        19.6215    0.3262    3.4354 C.ar      1 RES1    0.0000
      7 C5        18.5520    0.7552    2.6880 C.ar      1 RES1    0.0000
      8 C6        18.1145   -0.0702    1.6420 C.ar      1 RES1    0.0000
      9 C7        17.0958   -0.0174    0.6334 C.2       1 RES1    0.0000
     10 C8        16.1079    1.0757    0.3723 C.3       1 RES1    0.0000
     11 C9        14.7144    0.7500    0.8556 C.2       1 RES1    0.0000
     12 O2        14.3469   -0.3123    1.2408 O.2       1 RES1    0.0000
     13 O3        13.9558    1.8222    0.7921 O.3       1 RES1    0.0000
     14 H1        20.3011   -2.5635    1.9695 H         1 RES1    0.0000
     15 H2        21.0804   -1.2788    3.6951 H         1 RES1    0.0000
     16 H3        19.9390    0.9543    4.2102 H         1 RES1    0.0000
     17 H4        18.0654    1.6109    2.8482 H         1 RES1    0.0000
     18 H5        15.9889    1.2597   -0.6002 H         1 RES1    0.0000
     19 H6        16.4339    2.0039    0.8066 H         1 RES1    0.0000
     20 H7        13.1769    1.6277    1.1269 H         1 RES1    0.0000
     21 O4        10.2562    1.1134    1.1196 O.3       2 RES2    0.0000
     22 N2        11.3008    1.9296    1.6030 N.2       2 RES2    0.0000
     23 C10        9.0873    1.7659    1.3808 C.ar      2 RES2    0.0000
     24 C11        7.8149    1.3381    1.0345 C.ar      2 RES2    0.0000
     25 C12        6.7937    2.1891    1.3765 C.ar      2 RES2    0.0000
     26 C13        7.0186    3.4046    2.0460 C.ar      2 RES2    0.0000
     27 C14        8.2903    3.8000    2.3807 C.ar      2 RES2    0.0000
     28 C15        9.3442    2.9606    2.0301 C.ar      2 RES2    0.0000
     29 C16       10.7808    2.9936    2.1296 C.2       2 RES2    0.0000
     30 C17       11.6463    4.0490    2.7227 C.3       2 RES2    0.0000
     31 C18       12.0471    3.7460    4.1467 C.2       2 RES2    0.0000
     32 O5        11.7612    2.7382    4.7196 O.2       2 RES2    0.0000
     33 O6        12.7548    4.7270    4.6734 O.3       2 RES2    0.0000
     34 H8         7.6351    0.4748    0.5699 H         2 RES2    0.0000
     35 H9         5.9061    1.8913    1.0316 H         2 RES2    0.0000
     36 H10        6.1524    3.8888    2.2191 H         2 RES2    0.0000
     37 H11        8.4421    4.6939    2.7818 H         2 RES2    0.0000
     38 H12       11.2318    4.9052    2.7010 H         2 RES2    0.0000
     39 H13       12.4346    4.1924    2.2350 H         2 RES2    0.0000
     40 H14       13.1522    4.3479    5.5780 H         2 RES2    0.0000
@<TRIPOS>BOND
     1    1    2 1
     2    2    9 2
     3    3    1 1
     4    4    3 ar
     5    5    4 ar
     6    6    5 ar
     7    7    6 ar
     8    8    3 ar
     9    9    8 1
    10   10    9 1
    11   11   10 1
    12   12   11 2
    13   13   11 1
    14   14    4 1
    15   15    5 1
    16   16    6 1
    17   17    7 1
    18   18   10 1
    19   19   10 1
    20   20   13 1
    21   21   22 1
    22   22   29 2
    23   23   21 1
    24   24   23 ar
    25   25   24 ar
    26   26   25 ar
    27   27   26 ar
    28   28   23 ar
    29   29   28 1
    30   30   29 1
    31   31   30 1
    32   32   31 2
    33   33   31 1
    34   34   24 1
    35   35   25 1
    36   36   26 1
    37   37   27 1
    38   38   30 1
    39   39   30 1
    40   40   33 1
    41    7    8 ar
    42   27   28 ar
@<TRIPOS>SUBSTRUCTURE
     1 RES1 1
     2 RES2 21

@<TRIPOS>CRYSIN
  19.2740    5.8050   15.7550  90.0000 113.6800  90.0000  14 1

