# MOL2 file generated by ConQuest
# Please check atom types

@<TRIPOS>MOLECULE
LUYZOV
    71    75     1
SMALL
NO_CHARGES
****
Generated from CSD

@<TRIPOS>ATOM
      1 O1        11.4678    5.4865    4.0059 O.3       1 RES1    0.0000
      2 O2         8.2379    7.7487    6.1920 O.3       1 RES1    0.0000
      3 O3         8.7874    2.4521    4.4363 O.2       1 RES1    0.0000
      4 O4         6.8568    3.2280    3.7723 O.3       1 RES1    0.0000
      5 O5         9.4292    1.8435    0.9981 O.2       1 RES1    0.0000
      6 O6         7.4059    2.5581    0.7416 O.3       1 RES1    0.0000
      7 O7         1.3164    6.3125    0.4873 O.2       1 RES1    0.0000
      8 O8         1.3261    8.3771    1.0116 O.2       1 RES1    0.0000
      9 N1         1.8465    7.2778    0.9981 N.pl3     1 RES1    0.0000
     10 C1         9.5006    9.6220    3.3466 C.ar      1 RES1    0.0000
     11 H1        10.2002    9.0873    3.0487 H         1 RES1    0.0000
     12 C2         9.0868   10.6990    2.5776 C.ar      1 RES1    0.0000
     13 H2         9.5125   10.8841    1.7714 H         1 RES1    0.0000
     14 C3         8.0630   11.4865    2.9986 C.ar      1 RES1    0.0000
     15 H3         7.7840   12.2069    2.4817 H         1 RES1    0.0000
     16 C4         7.4498   11.2181    4.1757 C.ar      1 RES1    0.0000
     17 H4         6.7477   11.7563    4.4621 H         1 RES1    0.0000
     18 C5         7.8537   10.1533    4.9561 C.ar      1 RES1    0.0000
     19 H5         7.4275    9.9879    5.7652 H         1 RES1    0.0000
     20 C6         8.8853    9.3327    4.5452 C.ar      1 RES1    0.0000
     21 C7         5.0396    8.0459    2.6977 C.ar      1 RES1    0.0000
     22 H6         5.5027    8.7903    3.0101 H         1 RES1    0.0000
     23 C8         3.8107    8.2266    2.1040 C.ar      1 RES1    0.0000
     24 H7         3.4427    9.0759    2.0148 H         1 RES1    0.0000
     25 C9         3.1464    7.1168    1.6489 C.ar      1 RES1    0.0000
     26 C10        3.6520    5.8514    1.8013 C.ar      1 RES1    0.0000
     27 H8         3.1748    5.1123    1.4979 H         1 RES1    0.0000
     28 C11        4.8784    5.6930    2.4118 C.ar      1 RES1    0.0000
     29 H9         5.2212    4.8370    2.5346 H         1 RES1    0.0000
     30 C12        5.6113    6.7883    2.8468 C.ar      1 RES1    0.0000
     31 C13       13.5212    6.3410    5.6847 C.ar      1 RES1    0.0000
     32 H10       13.4222    5.4228    5.5705 H         1 RES1    0.0000
     33 C14       14.6966    6.8402    6.2034 C.ar      1 RES1    0.0000
     34 H11       15.3857    6.2590    6.4325 H         1 RES1    0.0000
     35 C15       14.8531    8.1780    6.3824 C.ar      1 RES1    0.0000
     36 H12       15.6447    8.5076    6.7404 H         1 RES1    0.0000
     37 C16       13.8448    9.0448    6.0344 C.ar      1 RES1    0.0000
     38 H13       13.9535    9.9595    6.1605 H         1 RES1    0.0000
     39 C17       12.6698    8.5538    5.4993 C.ar      1 RES1    0.0000
     40 H14       11.9968    9.1451    5.2483 H         1 RES1    0.0000
     41 C18       12.4816    7.1928    5.3313 C.ar      1 RES1    0.0000
     42 C19        7.9858    5.9606    3.1335 C.2       1 RES1    0.0000
     43 C20        7.9843    4.9608    1.9995 C.3       1 RES1    0.0000
     44 H15        8.4146    5.3571    1.2258 H         1 RES1    0.0000
     45 H16        7.0676    4.7570    1.7571 H         1 RES1    0.0000
     46 C21        8.7128    3.6518    2.3662 C.3       1 RES1    0.0000
     47 C22       10.1933    3.9591    2.5892 C.3       1 RES1    0.0000
     48 H17       10.6270    3.2135    3.0330 H         1 RES1    0.0000
     49 H18       10.6355    4.1102    1.7399 H         1 RES1    0.0000
     50 C23       10.2744    5.1726    3.4311 C.2       1 RES1    0.0000
     51 C24        9.3206    6.0735    3.7538 C.2       1 RES1    0.0000
     52 C25        9.9606    7.0321    4.6347 C.2       1 RES1    0.0000
     53 C26       11.2620    6.6522    4.7233 C.2       1 RES1    0.0000
     54 C27        9.3504    8.1695    5.4049 C.3       1 RES1    0.0000
     55 H19       10.0336    8.5100    6.0187 H         1 RES1    0.0000
     56 C28        8.5599    6.7898    7.1829 C.3       1 RES1    0.0000
     57 H20        7.7640    6.5432    7.6598 H         1 RES1    0.0000
     58 H21        9.1967    7.1646    7.7958 H         1 RES1    0.0000
     59 H22        8.9362    6.0123    6.7648 H         1 RES1    0.0000
     60 C29        6.9419    6.7224    3.4649 C.2       1 RES1    0.0000
     61 H23        7.0765    7.2916    4.1886 H         1 RES1    0.0000
     62 C30        8.1424    3.0413    3.6440 C.2       1 RES1    0.0000
     63 C31        6.2301    2.7677    4.9834 C.3       1 RES1    0.0000
     64 H24        5.2898    2.9620    4.9504 H         1 RES1    0.0000
     65 H25        6.6219    3.2132    5.7366 H         1 RES1    0.0000
     66 H26        6.3570    1.8201    5.0693 H         1 RES1    0.0000
     67 C32        8.5696    2.5959    1.2859 C.2       1 RES1    0.0000
     68 C33        7.1330    1.5469   -0.2474 C.3       1 RES1    0.0000
     69 H27        6.2300    1.6382   -0.5570 H         1 RES1    0.0000
     70 H28        7.2519    0.6776    0.1432 H         1 RES1    0.0000
     71 H29        7.7374    1.6518   -0.9866 H         1 RES1    0.0000
@<TRIPOS>BOND
     1    1   50 1
     2    2   54 1
     3    3   62 2
     4    4   62 1
     5    5   67 2
     6    6   67 1
     7    7    9 2
     8    8    9 2
     9    9   25 1
    10   10   11 1
    11   12   10 ar
    12   13   12 1
    13   14   12 ar
    14   15   14 1
    15   16   14 ar
    16   17   16 1
    17   18   16 ar
    18   19   18 1
    19   20   10 ar
    20   21   22 1
    21   23   21 ar
    22   24   23 1
    23   25   23 ar
    24   26   25 ar
    25   27   26 1
    26   28   26 ar
    27   29   28 1
    28   30   21 ar
    29   31   32 1
    30   33   31 ar
    31   34   33 1
    32   35   33 ar
    33   36   35 1
    34   37   35 ar
    35   38   37 1
    36   39   37 ar
    37   40   39 1
    38   41   31 ar
    39   42   43 1
    40   43   44 1
    41   45   43 1
    42   46   43 1
    43   47   46 1
    44   48   47 1
    45   49   47 1
    46   50   47 1
    47   51   42 1
    48   52   51 1
    49   53    1 1
    50   54   20 1
    51   55   54 1
    52   56    2 1
    53   57   56 1
    54   58   56 1
    55   59   56 1
    56   60   30 1
    57   61   60 1
    58   62   46 1
    59   63    4 1
    60   64   63 1
    61   65   63 1
    62   66   63 1
    63   67   46 1
    64   68    6 1
    65   69   68 1
    66   70   68 1
    67   71   68 1
    68   18   20 ar
    69   28   30 ar
    70   39   41 ar
    71   41   53 1
    72   42   60 2
    73   50   51 2
    74   52   53 2
    75   52   54 1
@<TRIPOS>SUBSTRUCTURE
     1 RES1 1

@<TRIPOS>CRYSIN
  10.1741   10.9686   14.9749  80.8370  73.1060  63.5430   2 1

