# MOL2 file generated by ConQuest
# Please check atom types

@<TRIPOS>MOLECULE
LUZGIX
    50    54     1
SMALL
NO_CHARGES
****
Generated from CSD

@<TRIPOS>ATOM
      1 C1         3.3745    7.0614   19.3972 C.ar      1 RES1    0.0000
      2 C2         2.8908    6.0308   20.1793 C.ar      1 RES1    0.0000
      3 H1         3.3693    5.2364   20.2535 H         1 RES1    0.0000
      4 C3         1.6929    6.1833   20.8528 C.ar      1 RES1    0.0000
      5 H2         1.3612    5.4822   21.3674 H         1 RES1    0.0000
      6 C4         0.9933    7.3473   20.7713 C.ar      1 RES1    0.0000
      7 H3         0.1978    7.4384   21.2441 H         1 RES1    0.0000
      8 C5         1.4510    8.4044   19.9890 C.ar      1 RES1    0.0000
      9 C6         0.7091    9.7262   19.9297 C.3       1 RES1    0.0000
     10 H4         0.0009    9.6838   20.6060 H         1 RES1    0.0000
     11 C7         1.6376   10.8531   20.3404 C.2       1 RES1    0.0000
     12 C8         3.3097   12.1718   20.6776 C.2       1 RES1    0.0000
     13 H5         4.1484   12.5732   20.6644 H         1 RES1    0.0000
     14 C9         3.0040   11.0692   19.9883 C.2       1 RES1    0.0000
     15 C10        3.8435   10.2568   19.0580 C.3       1 RES1    0.0000
     16 H6         4.2270   10.8362   18.3826 H         1 RES1    0.0000
     17 H7         4.5725    9.8512   19.5527 H         1 RES1    0.0000
     18 C11        2.6343    8.2497   19.2916 C.ar      1 RES1    0.0000
     19 C12        0.0276    9.9920   18.5967 C.2       1 RES1    0.0000
     20 C13        0.1624    9.3163   17.4369 C.2       1 RES1    0.0000
     21 H8         0.7298    8.5908   17.3098 H         1 RES1    0.0000
     22 C14       -1.3370   10.9061   17.0147 C.ar      1 RES1    0.0000
     23 C15       -2.2655   11.7693   16.4366 C.ar      1 RES1    0.0000
     24 H9        -2.5289   11.6687   15.5513 H         1 RES1    0.0000
     25 C16       -2.7760   12.7702   17.2183 C.ar      1 RES1    0.0000
     26 H10       -3.3814   13.3728   16.8512 H         1 RES1    0.0000
     27 C17       -2.4037   12.9004   18.5543 C.ar      1 RES1    0.0000
     28 H11       -2.7760   13.5815   19.0661 H         1 RES1    0.0000
     29 C18       -1.4968   12.0404   19.1338 C.ar      1 RES1    0.0000
     30 H12       -1.2619   12.1379   20.0285 H         1 RES1    0.0000
     31 C19       -0.9345   11.0226   18.3648 C.ar      1 RES1    0.0000
     32 C20        5.3991    5.9609   18.8173 C.3       1 RES1    0.0000
     33 H13        5.5157    5.7597   19.7582 H         1 RES1    0.0000
     34 H14        5.0225    5.1782   18.3847 H         1 RES1    0.0000
     35 C21        6.6126    6.2564   18.2571 C.3       1 RES1    0.0000
     36 H15        6.4778    6.6991   17.4158 H         1 RES1    0.0000
     37 H16        7.1057    5.4440   18.1144 H         1 RES1    0.0000
     38 H17        7.1066    6.8315   18.8454 H         1 RES1    0.0000
     39 C22       -0.8119    9.3396   15.1140 C.3       1 RES1    0.0000
     40 H18       -0.0069    8.8598   14.8635 H         1 RES1    0.0000
     41 H19       -0.9078   10.0905   14.5066 H         1 RES1    0.0000
     42 C23       -1.9788    8.4382   14.9500 C.3       1 RES1    0.0000
     43 H20       -2.7742    8.8884   15.2442 H         1 RES1    0.0000
     44 H21       -1.8466    7.6460   15.4756 H         1 RES1    0.0000
     45 H22       -2.0703    8.1978   14.0265 H         1 RES1    0.0000
     46 N1         1.1997   11.7555   21.1779 N.2       1 RES1    0.0000
     47 N2        -0.6547    9.8469   16.4690 N.3       1 RES1    0.0000
     48 O1         4.5224    7.0497   18.6715 O.3       1 RES1    0.0000
     49 O2         2.2793   12.6314   21.3862 O.3       1 RES1    0.0000
     50 O3         3.0696    9.2298   18.4217 O.3       1 RES1    0.0000
@<TRIPOS>BOND
     1    1    2 ar
     2    2    3 1
     3    4    2 ar
     4    5    4 1
     5    6    4 ar
     6    7    6 1
     7    8    6 ar
     8    9    8 1
     9   10    9 1
    10   11    9 1
    11   12   13 1
    12   14   11 1
    13   15   14 1
    14   16   15 1
    15   17   15 1
    16   18    1 ar
    17   19    9 1
    18   20   19 2
    19   21   20 1
    20   22   23 ar
    21   23   24 1
    22   25   23 ar
    23   26   25 1
    24   27   25 ar
    25   28   27 1
    26   29   27 ar
    27   30   29 1
    28   31   19 1
    29   32   33 1
    30   34   32 1
    31   35   32 1
    32   36   35 1
    33   37   35 1
    34   38   35 1
    35   39   40 1
    36   41   39 1
    37   42   39 1
    38   43   42 1
    39   44   42 1
    40   45   42 1
    41   46   11 2
    42   47   20 1
    43   48    1 1
    44   49   12 1
    45   50   15 1
    46    8   18 ar
    47   12   14 2
    48   18   50 1
    49   22   31 ar
    50   22   47 1
    51   29   31 ar
    52   32   48 1
    53   39   47 1
    54   46   49 1
@<TRIPOS>SUBSTRUCTURE
     1 RES1 1

@<TRIPOS>CRYSIN
   8.6371   10.5915   21.6291  90.0000  90.0000  90.0000  19 1

