# MOL2 file generated by ConQuest
# Please check atom types

@<TRIPOS>MOLECULE
MABZNA02
    35    36     1
SMALL
NO_CHARGES
****
Generated from CSD

@<TRIPOS>ATOM
      1 O1        -2.5199    1.1789   21.7359 O.2       1 RES1    0.0000
      2 O2        -1.7269    3.1513   21.9554 O.2       1 RES1    0.0000
      3 N1        -0.3723    2.0499   15.9092 N.2       1 RES1    0.0000
      4 N2        -1.9483    2.1571   21.2938 N.pl3     1 RES1    0.0000
      5 N3         1.1530    3.2107    9.7548 N.3       1 RES1    0.0000
      6 C1        -1.5214    2.1316   19.8944 C.ar      1 RES1    0.0000
      7 C2        -0.8245    3.2118   19.3982 C.ar      1 RES1    0.0000
      8 C3        -0.4531    3.2086   18.0656 C.ar      1 RES1    0.0000
      9 C4        -0.7869    2.1242   17.2418 C.ar      1 RES1    0.0000
     10 C5        -1.4686    1.0430   17.7920 C.ar      1 RES1    0.0000
     11 C6        -1.8488    1.0419   19.1024 C.ar      1 RES1    0.0000
     12 C7        -0.4805    3.0833   15.1585 C.2       1 RES1    0.0000
     13 C8        -0.0122    3.1204   13.7909 C.ar      1 RES1    0.0000
     14 C9        -0.3028    4.2197   12.9799 C.ar      1 RES1    0.0000
     15 C10        0.0724    4.2622   11.6504 C.ar      1 RES1    0.0000
     16 C11        0.7679    3.1980   11.0715 C.ar      1 RES1    0.0000
     17 C12        1.0640    2.0785   11.8921 C.ar      1 RES1    0.0000
     18 C13        0.6945    2.0583   13.2120 C.ar      1 RES1    0.0000
     19 C14        0.8904    4.3822    8.9246 C.3       1 RES1    0.0000
     20 C15        1.7393    2.0435    9.1346 C.3       1 RES1    0.0000
     21 H1        -0.6122    4.0041   19.9103 H         1 RES1    0.0000
     22 H2         0.0521    4.0041   17.6521 H         1 RES1    0.0000
     23 H3        -1.7266    0.2868   17.1114 H         1 RES1    0.0000
     24 H4        -2.1822    0.1806   19.6240 H         1 RES1    0.0000
     25 H5        -0.9185    4.0360   15.5211 H         1 RES1    0.0000
     26 H6        -0.8224    5.0662   13.3265 H         1 RES1    0.0000
     27 H7        -0.2276    5.2043   11.1320 H         1 RES1    0.0000
     28 H8         1.5624    1.2427   11.5454 H         1 RES1    0.0000
     29 H9         0.8651    1.2745   13.7718 H         1 RES1    0.0000
     30 H10        1.1571    5.4486    9.3826 H         1 RES1    0.0000
     31 H11       -0.1532    4.4608    8.7783 H         1 RES1    0.0000
     32 H12        1.3583    4.1422    7.8878 H         1 RES1    0.0000
     33 H13        1.1394    1.1683    9.2236 H         1 RES1    0.0000
     34 H14        2.5653    1.6675    9.6053 H         1 RES1    0.0000
     35 H15        1.7927    2.1985    8.2058 H         1 RES1    0.0000
@<TRIPOS>BOND
     1    1    4 2
     2    2    4 2
     3    3    9 1
     4    4    6 1
     5    5   16 1
     6    6    7 ar
     7    7    8 ar
     8    8    9 ar
     9    9   10 ar
    10   10   11 ar
    11   11    6 ar
    12   12    3 2
    13   13   12 1
    14   14   13 ar
    15   15   14 ar
    16   16   15 ar
    17   17   16 ar
    18   18   13 ar
    19   19    5 1
    20   20    5 1
    21   21    7 1
    22   22    8 1
    23   23   10 1
    24   24   11 1
    25   25   12 1
    26   26   14 1
    27   27   15 1
    28   28   17 1
    29   29   18 1
    30   30   19 1
    31   31   19 1
    32   32   19 1
    33   33   20 1
    34   34   20 1
    35   35   20 1
    36   17   18 ar
@<TRIPOS>SUBSTRUCTURE
     1 RES1 1

@<TRIPOS>CRYSIN
   3.9890   10.6210   31.9320  90.0000  95.1000  90.0000  14 1

