# MOL2 file generated by ConQuest
# Please check atom types

@<TRIPOS>MOLECULE
MABZNA
    70    72     2
SMALL
NO_CHARGES
****
Generated from CSD

@<TRIPOS>ATOM
      1 C1        -2.5461    3.9345   -0.6543 C.ar      1 RES1    0.0000
      2 C2        -6.2522   11.7351    0.0433 C.ar      1 RES1    0.0000
      3 C3        -5.3793   12.5245    0.8176 C.ar      1 RES1    0.0000
      4 C4        -4.1706   11.9435    1.2490 C.ar      1 RES1    0.0000
      5 C5        -3.8606   10.6382    0.9422 C.ar      1 RES1    0.0000
      6 C6        -6.9169   14.4427    0.6913 C.3       1 RES1    0.0000
      7 C7        -4.7257   14.6484    1.8410 C.3       1 RES1    0.0000
      8 C8        -2.8767    4.8238   -1.6633 C.ar      1 RES1    0.0000
      9 C9        -3.1841    6.1229   -1.3239 C.ar      1 RES1    0.0000
     10 C10       -3.1588    6.5238    0.0180 C.ar      1 RES1    0.0000
     11 C11       -2.7935    5.6093    1.0063 C.ar      1 RES1    0.0000
     12 C12       -2.4936    4.3080    0.6732 C.ar      1 RES1    0.0000
     13 C13       -4.4132    8.4619   -0.1336 C.2       1 RES1    0.0000
     14 C14       -4.7285    9.8489    0.1841 C.ar      1 RES1    0.0000
     15 C15       -5.9127   10.4281   -0.2626 C.ar      1 RES1    0.0000
     16 H1        -7.1813   12.1171   -0.3520 H         1 RES1    0.0000
     17 H2        -3.4803   12.4986    1.8591 H         1 RES1    0.0000
     18 H3        -2.9295   10.1500    1.2996 H         1 RES1    0.0000
     19 H4        -6.9470   15.3555    0.8934 H         1 RES1    0.0000
     20 H5        -6.9517   14.5163   -0.3339 H         1 RES1    0.0000
     21 H6        -7.7591   13.7823    0.8844 H         1 RES1    0.0000
     22 H7        -5.0162   15.3949    2.0035 H         1 RES1    0.0000
     23 H8        -3.6903   14.6983    1.2905 H         1 RES1    0.0000
     24 H9        -4.4425   14.2243    2.7886 H         1 RES1    0.0000
     25 H10       -2.8991    4.4676   -2.7164 H         1 RES1    0.0000
     26 H11       -3.4264    6.8287   -2.1208 H         1 RES1    0.0000
     27 H12       -2.7501    5.9936    2.0486 H         1 RES1    0.0000
     28 H13       -2.1980    3.5782    1.3537 H         1 RES1    0.0000
     29 H14       -5.0701    7.8939   -0.9295 H         1 RES1    0.0000
     30 H15       -6.6067    9.8679   -0.7852 H         1 RES1    0.0000
     31 N1        -3.4411    7.8353    0.4115 N.2       1 RES1    0.0000
     32 N2        -2.1991    2.5593   -1.0306 N.pl3     1 RES1    0.0000
     33 N3        -5.6949   13.8197    1.1470 N.3       1 RES1    0.0000
     34 O1        -1.9388    1.7742   -0.1336 O.2       1 RES1    0.0000
     35 O2        -2.1609    2.2607   -2.2074 O.2       1 RES1    0.0000
     36 C16        3.7320    4.2963   -3.9113 C.ar      2 RES2    0.0000
     37 C17        3.7117    3.8846   -5.2560 C.ar      2 RES2    0.0000
     38 C18        0.9329   12.5094   -3.8166 C.ar      2 RES2    0.0000
     39 C19        3.3202    4.8516   -6.2280 C.ar      2 RES2    0.0000
     40 C20        2.9815    6.1240   -5.8588 C.ar      2 RES2    0.0000
     41 C21        4.4871    1.6453   -4.6378 C.3       2 RES2    0.0000
     42 C22        3.9127    2.1823   -6.9978 C.3       2 RES2    0.0000
     43 C23        2.1728   12.0738   -3.4267 C.ar      2 RES2    0.0000
     44 C24        2.5631   10.7863   -3.7705 C.ar      2 RES2    0.0000
     45 C25        1.6954    9.9679   -4.4898 C.ar      2 RES2    0.0000
     46 C26        0.4418   10.4487   -4.8878 C.ar      2 RES2    0.0000
     47 C27        0.0444   11.7238   -4.5295 C.ar      2 RES2    0.0000
     48 C28        2.5712    7.8479   -4.1099 C.2       2 RES2    0.0000
     49 C29        3.0012    6.5260   -4.5124 C.ar      2 RES2    0.0000
     50 C30        3.3773    5.5851   -3.5639 C.ar      2 RES2    0.0000
     51 H16        3.9903    3.6143   -3.1135 H         2 RES2    0.0000
     52 H17        3.3244    4.5757   -7.2739 H         2 RES2    0.0000
     53 H18        2.6985    6.8489   -6.5880 H         2 RES2    0.0000
     54 H19        4.6363    0.8483   -4.9907 H         2 RES2    0.0000
     55 H20        3.6549    1.3857   -4.1062 H         2 RES2    0.0000
     56 H21        5.3482    2.0669   -4.0792 H         2 RES2    0.0000
     57 H22        4.0651    1.3218   -6.9942 H         2 RES2    0.0000
     58 H23        2.7859    2.2451   -7.3461 H         2 RES2    0.0000
     59 H24        4.5471    2.6269   -7.5176 H         2 RES2    0.0000
     60 H25        2.8515   12.7032   -2.8789 H         2 RES2    0.0000
     61 H26        3.5614   10.4491   -3.4294 H         2 RES2    0.0000
     62 H27       -0.2137    9.7963   -5.4600 H         2 RES2    0.0000
     63 H28       -0.9466   12.0996   -4.7560 H         2 RES2    0.0000
     64 H29        2.6660    8.1198   -3.0052 H         2 RES2    0.0000
     65 H30        3.3909    5.8533   -2.5720 H         2 RES2    0.0000
     66 N4         2.0619    8.6890   -4.9266 N.2       2 RES2    0.0000
     67 N5         0.5130   13.8818   -3.4619 N.pl3     2 RES2    0.0000
     68 N6         4.0778    2.6303   -5.6323 N.3       2 RES2    0.0000
     69 O3        -0.5651   14.2815   -3.8427 O.2       2 RES2    0.0000
     70 O4         1.2905   14.5554   -2.8094 O.2       2 RES2    0.0000
@<TRIPOS>BOND
     1    1    8 ar
     2    2    3 ar
     3    3    4 ar
     4    4    5 ar
     5    5   14 ar
     6    6   19 1
     7    7   22 1
     8    8    9 ar
     9    9   10 ar
    10   10   11 ar
    11   11   12 ar
    12   12    1 ar
    13   13   14 1
    14   14   15 ar
    15   15    2 ar
    16   16    2 1
    17   17    4 1
    18   18    5 1
    19   20    6 1
    20   21    6 1
    21   23    7 1
    22   24    7 1
    23   25    8 1
    24   26    9 1
    25   27   11 1
    26   28   12 1
    27   29   13 1
    28   30   15 1
    29   31   10 1
    30   32    1 1
    31   33    3 1
    32   34   32 2
    33   35   32 2
    34   36   37 ar
    35   37   39 ar
    36   38   43 ar
    37   39   40 ar
    38   40   49 ar
    39   41   54 1
    40   42   57 1
    41   43   44 ar
    42   44   45 ar
    43   45   46 ar
    44   46   47 ar
    45   47   38 ar
    46   48   49 1
    47   49   50 ar
    48   50   36 ar
    49   51   36 1
    50   52   39 1
    51   53   40 1
    52   55   41 1
    53   56   41 1
    54   58   42 1
    55   59   42 1
    56   60   43 1
    57   61   44 1
    58   62   46 1
    59   63   47 1
    60   64   48 1
    61   65   50 1
    62   66   45 1
    63   67   38 1
    64   68   37 1
    65   69   67 2
    66   70   67 2
    67    6   33 1
    68    7   33 1
    69   13   31 2
    70   41   68 1
    71   42   68 1
    72   48   66 2
@<TRIPOS>SUBSTRUCTURE
     1 RES1 1
     2 RES2 36

@<TRIPOS>CRYSIN
   9.5090   16.2000    9.5050  91.6900 107.5200 101.0400   2 1

