# MOL2 file generated by ConQuest
# Please check atom types

@<TRIPOS>MOLECULE
MABZNA01
    70    72     2
SMALL
NO_CHARGES
****
Generated from CSD

@<TRIPOS>ATOM
      1 O1         4.2770   14.0884    0.1976 O.2       1 RES1    0.0000
      2 O2         3.1986   13.8707    2.0430 O.2       1 RES1    0.0000
      3 N1         4.5294    7.8582    0.7494 N.2       1 RES1    0.0000
      4 N2         3.8292   13.3990    1.1159 N.pl3     1 RES1    0.0000
      5 N3         5.8340    1.6043    1.4426 N.3       1 RES1    0.0000
      6 C1         4.0240   11.9636    1.0496 C.ar      1 RES1    0.0000
      7 C2         3.5324   11.1694    2.0706 C.ar      1 RES1    0.0000
      8 C3         3.6980    9.8057    1.9977 C.ar      1 RES1    0.0000
      9 C4         4.3549    9.2331    0.8973 C.ar      1 RES1    0.0000
     10 C5         4.8053   10.0677   -0.1369 C.ar      1 RES1    0.0000
     11 C6         4.6716   11.4146   -0.0596 C.ar      1 RES1    0.0000
     12 C7         4.9553    7.1636    1.7384 C.2       1 RES1    0.0000
     13 C8         5.1292    5.7390    1.6876 C.ar      1 RES1    0.0000
     14 C9         5.7829    5.0512    2.7063 C.ar      1 RES1    0.0000
     15 C10        6.0267    3.7054    2.6412 C.ar      1 RES1    0.0000
     16 C11        5.6081    2.9492    1.5287 C.ar      1 RES1    0.0000
     17 C12        4.9270    3.6406    0.5044 C.ar      1 RES1    0.0000
     18 C13        4.7005    4.9860    0.5772 C.ar      1 RES1    0.0000
     19 C14        6.6277    0.9232    2.4282 C.3       1 RES1    0.0000
     20 C15        5.5069    0.8943    0.2020 C.3       1 RES1    0.0000
     21 H1         2.8116   11.4749    2.8366 H         1 RES1    0.0000
     22 H2         3.0955    9.0245    2.7262 H         1 RES1    0.0000
     23 H3         5.6170    9.6352   -0.8830 H         1 RES1    0.0000
     24 H4         5.4119   12.0508   -0.7395 H         1 RES1    0.0000
     25 H5         5.6524    7.7118    2.4282 H         1 RES1    0.0000
     26 H6         6.2973    5.6031    3.4547 H         1 RES1    0.0000
     27 H7         6.7868    3.3148    3.4215 H         1 RES1    0.0000
     28 H8         4.2621    3.0991   -0.2539 H         1 RES1    0.0000
     29 H9         3.7639    5.4445   -0.0331 H         1 RES1    0.0000
     30 H10        6.2296    0.9971    3.3112 H         1 RES1    0.0000
     31 H11        6.9692    0.2222    2.2074 H         1 RES1    0.0000
     32 H12        7.5771    1.1002    2.5717 H         1 RES1    0.0000
     33 H13        5.7930    0.1810    0.3642 H         1 RES1    0.0000
     34 H14        4.3964    0.9238    0.1104 H         1 RES1    0.0000
     35 H15        6.4174    1.3456   -0.3642 H         1 RES1    0.0000
     36 O3        -0.7630   14.1003    2.9988 O.2       2 RES2    0.0000
     37 O4         0.2212   14.2188    4.8895 O.2       2 RES2    0.0000
     38 N4         0.9996    8.1253    3.6235 N.2       2 RES2    0.0000
     39 N5        -0.1248   13.6018    3.9138 N.pl3     2 RES2    0.0000
     40 N6         2.1001    1.8348    4.4877 N.3       2 RES2    0.0000
     41 C16        0.1509   12.1746    3.8509 C.ar      2 RES2    0.0000
     42 C17        0.7759   11.5731    4.9359 C.ar      2 RES2    0.0000
     43 C18        1.0361   10.2328    4.8917 C.ar      2 RES2    0.0000
     44 C19        0.6781    9.4741    3.7637 C.ar      2 RES2    0.0000
     45 C20        0.0650   10.1153    2.6798 C.ar      2 RES2    0.0000
     46 C21       -0.2150   11.4501    2.7339 C.ar      2 RES2    0.0000
     47 C22        0.8206    7.3248    4.6058 C.2       2 RES2    0.0000
     48 C23        1.1980    5.9310    4.5705 C.ar      2 RES2    0.0000
     49 C24        0.8308    5.0776    5.6169 C.ar      2 RES2    0.0000
     50 C25        1.1300    3.7474    5.6036 C.ar      2 RES2    0.0000
     51 C26        1.8274    3.1610    4.5142 C.ar      2 RES2    0.0000
     52 C27        2.2209    4.0349    3.4558 C.ar      2 RES2    0.0000
     53 C28        1.9144    5.3668    3.5021 C.ar      2 RES2    0.0000
     54 C29        1.7441    0.9674    5.6146 C.3       2 RES2    0.0000
     55 C30        2.8824    1.2455    3.4215 C.3       2 RES2    0.0000
     56 H16        1.5038   12.1311    5.6621 H         2 RES2    0.0000
     57 H17        1.8773    9.8798    5.5517 H         2 RES2    0.0000
     58 H18       -0.5836    9.4263    1.9867 H         2 RES2    0.0000
     59 H19       -0.9686   11.7771    2.0971 H         2 RES2    0.0000
     60 H20       -0.0685    7.5638    5.4083 H         2 RES2    0.0000
     61 H21       -0.0654    5.4900    6.4016 H         2 RES2    0.0000
     62 H22        0.4693    3.1353    6.3685 H         2 RES2    0.0000
     63 H23        3.0324    3.7144    2.7262 H         2 RES2    0.0000
     64 H24        2.5429    6.0027    2.7593 H         2 RES2    0.0000
     65 H25        2.7786    1.3486    6.2581 H         2 RES2    0.0000
     66 H26        0.5671    1.0386    5.8166 H         2 RES2    0.0000
     67 H27        1.9972    0.0578    5.5186 H         2 RES2    0.0000
     68 H28        2.9117    0.4568    3.4988 H         2 RES2    0.0000
     69 H29        2.5352    1.5317    2.5717 H         2 RES2    0.0000
     70 H30        3.8814    1.8230    3.3884 H         2 RES2    0.0000
@<TRIPOS>BOND
     1    1    4 2
     2    2    4 2
     3    3    9 1
     4    4    6 1
     5    5   16 1
     6    6    7 ar
     7    7    8 ar
     8    8    9 ar
     9    9   10 ar
    10   10   11 ar
    11   11    6 ar
    12   12    3 2
    13   13   12 1
    14   14   13 ar
    15   15   14 ar
    16   16   15 ar
    17   17   16 ar
    18   18   13 ar
    19   19    5 1
    20   20    5 1
    21   21    7 1
    22   22    8 1
    23   23   10 1
    24   24   11 1
    25   25   12 1
    26   26   14 1
    27   27   15 1
    28   28   17 1
    29   29   18 1
    30   30   19 1
    31   31   19 1
    32   32   19 1
    33   33   20 1
    34   34   20 1
    35   35   20 1
    36   36   39 2
    37   37   39 2
    38   38   44 1
    39   39   41 1
    40   40   51 1
    41   41   42 ar
    42   42   43 ar
    43   43   44 ar
    44   44   45 ar
    45   45   46 ar
    46   46   41 ar
    47   47   38 2
    48   48   47 1
    49   49   48 ar
    50   50   49 ar
    51   51   50 ar
    52   52   51 ar
    53   53   48 ar
    54   54   40 1
    55   55   40 1
    56   56   42 1
    57   57   43 1
    58   58   45 1
    59   59   46 1
    60   60   47 1
    61   61   49 1
    62   62   50 1
    63   63   52 1
    64   64   53 1
    65   65   54 1
    66   66   54 1
    67   67   54 1
    68   68   55 1
    69   69   55 1
    70   70   55 1
    71   17   18 ar
    72   52   53 ar
@<TRIPOS>SUBSTRUCTURE
     1 RES1 1
     2 RES2 36

@<TRIPOS>CRYSIN
   7.5070   16.7040   11.0510  92.7900  90.3000  96.5800   2 1

