# MOL2 file generated by ConQuest
# Please check atom types

@<TRIPOS>MOLECULE
MABZIZ
    32    33     1
SMALL
NO_CHARGES
****
Generated from CSD

@<TRIPOS>ATOM
      1 N1         5.4543    8.5183    3.1170 N.ar      1 RES1    0.0000
      2 C1         6.3000    9.5370    3.5026 C.ar      1 RES1    0.0000
      3 N2         5.8797   10.7552    3.2136 N.3       1 RES1    0.0000
      4 N3         7.4842    9.4247    4.1133 N.ar      1 RES1    0.0000
      5 C2         7.8597    8.1896    4.4650 C.ar      1 RES1    0.0000
      6 N4         8.9969    8.0285    5.1238 N.3       1 RES1    0.0000
      7 C3         9.8817    9.1314    5.4769 C.3       1 RES1    0.0000
      8 C4         7.0759    7.0261    4.1058 C.ar      1 RES1    0.0000
      9 N5         7.3839    5.7303    4.3060 N.2       1 RES1    0.0000
     10 O1         8.4564    5.4725    4.9624 O.2       1 RES1    0.0000
     11 C5         5.8633    7.3164    3.3901 C.ar      1 RES1    0.0000
     12 C6         3.5817    5.2317    1.5447 C.ar      1 RES1    0.0000
     13 C7         2.7638    4.2795    2.1387 C.ar      1 RES1    0.0000
     14 C8         2.5028    3.0768    1.4787 C.ar      1 RES1    0.0000
     15 C9         3.0554    2.8264    0.2523 C.ar      1 RES1    0.0000
     16 C10        3.8754    3.7705   -0.3426 C.ar      1 RES1    0.0000
     17 C11        4.1372    4.9665    0.3019 C.ar      1 RES1    0.0000
     18 C12        3.9217    6.5193    2.2442 C.3       1 RES1    0.0000
     19 O2         5.1414    6.2590    3.0047 O.3       1 RES1    0.0000
     20 H1         6.3740   11.4525    3.4238 H         1 RES1    0.0000
     21 H2         5.1051   10.8697    2.8111 H         1 RES1    0.0000
     22 H3         9.2302    7.2137    5.3602 H         1 RES1    0.0000
     23 H4        10.5268    9.2777    4.7545 H         1 RES1    0.0000
     24 H5        10.3618    8.9135    6.3027 H         1 RES1    0.0000
     25 H6         9.3525    9.9448    5.6128 H         1 RES1    0.0000
     26 H7         2.3826    4.4464    2.9935 H         1 RES1    0.0000
     27 H8         1.9381    2.4289    1.8826 H         1 RES1    0.0000
     28 H9         2.8769    2.0049   -0.1918 H         1 RES1    0.0000
     29 H10        4.2595    3.5961   -1.1951 H         1 RES1    0.0000
     30 H11        4.7012    5.6107   -0.1099 H         1 RES1    0.0000
     31 H12        4.0717    7.2425    1.5856 H         1 RES1    0.0000
     32 H13        3.1870    6.7889    2.8508 H         1 RES1    0.0000
@<TRIPOS>BOND
     1    1    2 ar
     2    2    3 1
     3    3   20 1
     4    4    2 ar
     5    5    4 ar
     6    6    5 1
     7    7    6 1
     8    8    5 ar
     9    9    8 1
    10   10    9 2
    11   11    1 ar
    12   12   13 ar
    13   13   14 ar
    14   14   15 ar
    15   15   16 ar
    16   16   17 ar
    17   17   12 ar
    18   18   12 1
    19   19   11 1
    20   21    3 1
    21   22    6 1
    22   23    7 1
    23   24    7 1
    24   25    7 1
    25   26   13 1
    26   27   14 1
    27   28   15 1
    28   29   16 1
    29   30   17 1
    30   31   18 1
    31   32   18 1
    32    8   11 ar
    33   18   19 1
@<TRIPOS>SUBSTRUCTURE
     1 RES1 1

@<TRIPOS>CRYSIN
   7.1122    7.3873   23.3867  90.0000  90.0000  90.0000  19 1

