# MOL2 file generated by ConQuest
# Please check atom types

@<TRIPOS>MOLECULE
MABZNA04
    70    72     2
SMALL
NO_CHARGES
****
Generated from CSD

@<TRIPOS>ATOM
      1 C1         6.5736    2.8550   23.7481 C.3       1 RES1    0.0000
      2 H1         7.5169    2.7379   23.5087 H         1 RES1    0.0000
      3 H2         6.4770    2.8181   24.7234 H         1 RES1    0.0000
      4 H3         6.2595    3.7233   23.4217 H         1 RES1    0.0000
      5 C2         5.3964    0.6702   23.9820 C.3       1 RES1    0.0000
      6 H4         4.4465    0.4714   23.8433 H         1 RES1    0.0000
      7 H5         5.5484    0.8982   24.9225 H         1 RES1    0.0000
      8 H6         5.9317   -0.1153   23.7446 H         1 RES1    0.0000
      9 N1         5.7837    1.7938   23.1418 N.3       1 RES1    0.0000
     10 C3         5.7026    1.6838   21.7859 C.ar      1 RES1    0.0000
     11 C4         6.2117    2.6957   20.9261 C.ar      1 RES1    0.0000
     12 H7         6.6579    3.4468   21.3002 H         1 RES1    0.0000
     13 C5         6.0674    2.6021   19.5635 C.ar      1 RES1    0.0000
     14 H8         6.4126    3.2935   19.0114 H         1 RES1    0.0000
     15 C6         5.4195    1.5048   18.9674 C.ar      1 RES1    0.0000
     16 C7         4.9532    0.4914   19.8055 C.ar      1 RES1    0.0000
     17 H9         4.5313   -0.2687   19.4213 H         1 RES1    0.0000
     18 C8         5.0888    0.5636   21.1769 C.ar      1 RES1    0.0000
     19 H10        4.7666   -0.1468   21.7185 H         1 RES1    0.0000
     20 C9         5.2412    1.4007   17.5351 C.2       1 RES1    0.0000
     21 H11        4.8985    0.5889   17.1810 H         1 RES1    0.0000
     22 N2         5.5235    2.3509   16.7201 N.2       1 RES1    0.0000
     23 C10        5.4334    2.1251   15.3393 C.ar      1 RES1    0.0000
     24 C11        4.9317    3.1531   14.5295 C.ar      1 RES1    0.0000
     25 H12        4.6205    3.9575   14.9274 H         1 RES1    0.0000
     26 C12        4.8865    3.0066   13.1561 C.ar      1 RES1    0.0000
     27 H13        4.5243    3.6920   12.6068 H         1 RES1    0.0000
     28 C13        5.3817    1.8354   12.5941 C.ar      1 RES1    0.0000
     29 C14        5.9144    0.8109   13.3632 C.ar      1 RES1    0.0000
     30 H14        6.2610    0.0266   12.9548 H         1 RES1    0.0000
     31 C15        5.9300    0.9576   14.7405 C.ar      1 RES1    0.0000
     32 H15        6.2801    0.2618   15.2838 H         1 RES1    0.0000
     33 N3         5.3541    1.6770   11.1423 N.pl3     1 RES1    0.0000
     34 O1         5.8873    0.6821   10.6558 O.2       1 RES1    0.0000
     35 O2         4.7784    2.5291   10.4679 O.2       1 RES1    0.0000
     36 C16        1.8257    5.6495    7.5012 C.3       2 RES2    0.0000
     37 H16        2.4039    6.3457    7.1257 H         2 RES2    0.0000
     38 H17        1.9486    5.6121    8.4726 H         2 RES2    0.0000
     39 H18        0.8901    5.8582    7.2981 H         2 RES2    0.0000
     40 C17        2.8901    3.4075    7.7516 C.3       2 RES2    0.0000
     41 H19        2.5505    2.5053    7.5791 H         2 RES2    0.0000
     42 H20        2.7560    3.6317    8.6968 H         2 RES2    0.0000
     43 H21        3.8468    3.4429    7.5407 H         2 RES2    0.0000
     44 N4         2.1732    4.3645    6.9184 N.3       2 RES2    0.0000
     45 C18        2.1272    4.2004    5.5627 C.ar      2 RES2    0.0000
     46 C19        1.5335    5.1823    4.7273 C.ar      2 RES2    0.0000
     47 H22        1.1649    5.9654    5.1180 H         2 RES2    0.0000
     48 C20        1.4820    5.0210    3.3641 C.ar      2 RES2    0.0000
     49 H23        1.0759    5.6942    2.8309 H         2 RES2    0.0000
     50 C21        2.0191    3.8794    2.7446 C.ar      2 RES2    0.0000
     51 C22        2.5892    2.9034    3.5632 C.ar      2 RES2    0.0000
     52 H24        2.9457    2.1180    3.1655 H         2 RES2    0.0000
     53 C23        2.6503    3.0463    4.9346 C.ar      2 RES2    0.0000
     54 H25        3.0473    2.3632    5.4610 H         2 RES2    0.0000
     55 C24        2.0389    3.7500    1.2985 C.2       2 RES2    0.0000
     56 H26        2.3131    2.9230    0.9202 H         2 RES2    0.0000
     57 N5         1.7028    4.7031    0.5106 N.2       2 RES2    0.0000
     58 C25        1.7172    4.4913   -0.8724 C.ar      2 RES2    0.0000
     59 C26        2.2646    5.4921   -1.6843 C.ar      2 RES2    0.0000
     60 H27        2.6096    6.2832   -1.2866 H         2 RES2    0.0000
     61 C27        2.3096    5.3443   -3.0584 C.ar      2 RES2    0.0000
     62 H28        2.7127    6.0079   -3.6055 H         2 RES2    0.0000
     63 C28        1.7504    4.2016   -3.6184 C.ar      2 RES2    0.0000
     64 C29        1.1645    3.2084   -2.8483 C.ar      2 RES2    0.0000
     65 H29        0.7742    2.4451   -3.2558 H         2 RES2    0.0000
     66 C30        1.1610    3.3538   -1.4725 C.ar      2 RES2    0.0000
     67 H30        0.7773    2.6759   -0.9286 H         2 RES2    0.0000
     68 N6         1.7420    4.0661   -5.0730 N.pl3     2 RES2    0.0000
     69 O3         1.1299    3.1245   -5.5759 O.2       2 RES2    0.0000
     70 O4         2.3359    4.9076   -5.7406 O.2       2 RES2    0.0000
@<TRIPOS>BOND
     1    1    2 1
     2    3    1 1
     3    4    1 1
     4    5    6 1
     5    7    5 1
     6    8    5 1
     7    9    1 1
     8   10    9 1
     9   11   10 ar
    10   12   11 1
    11   13   11 ar
    12   14   13 1
    13   15   13 ar
    14   16   15 ar
    15   17   16 1
    16   18   10 ar
    17   19   18 1
    18   20   15 1
    19   21   20 1
    20   22   20 2
    21   23   22 1
    22   24   23 ar
    23   25   24 1
    24   26   24 ar
    25   27   26 1
    26   28   26 ar
    27   29   28 ar
    28   30   29 1
    29   31   23 ar
    30   32   31 1
    31   33   28 1
    32   34   33 2
    33   35   33 2
    34   36   37 1
    35   38   36 1
    36   39   36 1
    37   40   41 1
    38   42   40 1
    39   43   40 1
    40   44   36 1
    41   45   44 1
    42   46   45 ar
    43   47   46 1
    44   48   46 ar
    45   49   48 1
    46   50   48 ar
    47   51   50 ar
    48   52   51 1
    49   53   45 ar
    50   54   53 1
    51   55   50 1
    52   56   55 1
    53   57   55 2
    54   58   57 1
    55   59   58 ar
    56   60   59 1
    57   61   59 ar
    58   62   61 1
    59   63   61 ar
    60   64   63 ar
    61   65   64 1
    62   66   58 ar
    63   67   66 1
    64   68   63 1
    65   69   68 2
    66   70   68 2
    67    5    9 1
    68   16   18 ar
    69   29   31 ar
    70   40   44 1
    71   51   53 ar
    72   64   66 ar
@<TRIPOS>SUBSTRUCTURE
     1 RES1 1
     2 RES2 36

@<TRIPOS>CRYSIN
   7.2283   10.9162   16.7373  88.4280  89.8890  89.0060   2 1

