# MOL2 file generated by ConQuest
# Please check atom types

@<TRIPOS>MOLECULE
MABZOX
    24    24     1
SMALL
NO_CHARGES
****
Generated from CSD

@<TRIPOS>ATOM
      1 C1         0.6613    1.3711    3.2596 C.ar      1 RES1    0.0000
      2 C2         0.6112    0.3894    4.2312 C.ar      1 RES1    0.0000
      3 C3         1.1956    0.5565    5.4638 C.ar      1 RES1    0.0000
      4 C4         1.8679    1.7258    5.7934 C.ar      1 RES1    0.0000
      5 C5         1.9363    2.7180    4.8085 C.ar      1 RES1    0.0000
      6 C6         1.3494    2.5391    3.5778 C.ar      1 RES1    0.0000
      7 C7         0.0054    1.1544    1.9642 C.2       1 RES1    0.0000
      8 C8         2.2846    0.9167    8.0700 C.3       1 RES1    0.0000
      9 C9         2.9855    3.1544    7.4432 C.3       1 RES1    0.0000
     10 H1         0.1522   -0.4581    4.0388 H         1 RES1    0.0000
     11 H2         3.6214    3.0331    8.1919 H         1 RES1    0.0000
     12 H3         2.3118    3.6954    7.6585 H         1 RES1    0.0000
     13 H4         3.5008    3.5840    6.6488 H         1 RES1    0.0000
     14 H5         1.1876   -0.2043    6.0582 H         1 RES1    0.0000
     15 H6         2.4537    3.5407    4.9723 H         1 RES1    0.0000
     16 H7         1.4838    3.2312    2.9148 H         1 RES1    0.0000
     17 H8        -0.3957    0.2909    1.7717 H         1 RES1    0.0000
     18 H9        -0.5351    2.6369   -0.8001 H         1 RES1    0.0000
     19 H10        2.5082    0.0433    7.7728 H         1 RES1    0.0000
     20 H11        1.3040    0.8604    8.4015 H         1 RES1    0.0000
     21 H12        2.9778    1.0956    8.6872 H         1 RES1    0.0000
     22 N1        -0.0103    2.0514    1.0726 N.2       1 RES1    0.0000
     23 N2         2.4712    1.8904    7.0222 N.3       1 RES1    0.0000
     24 O1        -0.7242    1.6422   -0.0838 O.3       1 RES1    0.0000
@<TRIPOS>BOND
     1    1    2 ar
     2    2    3 ar
     3    3    4 ar
     4    4    5 ar
     5    5    6 ar
     6    6    1 ar
     7    7    1 1
     8    8   19 1
     9    9   11 1
    10   10    2 1
    11   12    9 1
    12   13    9 1
    13   14    3 1
    14   15    5 1
    15   16    6 1
    16   17    7 1
    17   18   24 1
    18   20    8 1
    19   21    8 1
    20   22    7 2
    21   23    4 1
    22   24   22 1
    23    8   23 1
    24    9   23 1
@<TRIPOS>SUBSTRUCTURE
     1 RES1 1

@<TRIPOS>CRYSIN
   7.7050    6.1900   19.1490  90.0000  95.8000  90.0000  14 1

