# MOL2 file generated by ConQuest
# Please check atom types

@<TRIPOS>MOLECULE
MABZNA03
   136   140     4
SMALL
NO_CHARGES
****
Generated from CSD

@<TRIPOS>ATOM
      1 O1         2.3276    6.8521   -0.1183 O.2       1 RES1    0.0000
      2 O2         2.0832    8.9441    0.3703 O.2       1 RES1    0.0000
      3 N1         8.2943    8.2611    1.3761 N.2       1 RES1    0.0000
      4 N2         2.7841    7.8868    0.2706 N.pl3     1 RES1    0.0000
      5 N3        14.3061    9.7015    3.1380 N.3       1 RES1    0.0000
      6 C1         4.2179    8.0151    0.5280 C.ar      1 RES1    0.0000
      7 C2         4.6744    9.2829    0.9463 C.ar      1 RES1    0.0000
      8 C3         6.0375    9.3627    1.2362 C.ar      1 RES1    0.0000
      9 C4         6.9184    8.2503    1.1156 C.ar      1 RES1    0.0000
     10 C5         6.3525    7.0603    0.6919 C.ar      1 RES1    0.0000
     11 C6         5.0023    6.9330    0.3951 C.ar      1 RES1    0.0000
     12 C7         8.8151    9.2257    2.0286 C.2       1 RES1    0.0000
     13 C8        10.1654    9.3120    2.3317 C.ar      1 RES1    0.0000
     14 C9        10.6862   10.4017    3.1457 C.ar      1 RES1    0.0000
     15 C10       12.0364   10.4286    3.3730 C.ar      1 RES1    0.0000
     16 C11       12.9880    9.6011    2.8605 C.ar      1 RES1    0.0000
     17 C12       12.4736    8.6204    2.0039 C.ar      1 RES1    0.0000
     18 C13       11.1620    8.4564    1.7488 C.ar      1 RES1    0.0000
     19 C14       14.7304   10.8030    4.0317 C.3       1 RES1    0.0000
     20 C15       15.2898    8.7477    2.5350 C.3       1 RES1    0.0000
     21 H1         3.7935   10.1201    0.9973 H         1 RES1    0.0000
     22 H2         6.7512   10.1848    1.6080 H         1 RES1    0.0000
     23 H3         7.0727    6.4087    0.9355 H         1 RES1    0.0000
     24 H4         4.6937    6.1389    0.3866 H         1 RES1    0.0000
     25 H5         8.1657    9.9475    2.6440 H         1 RES1    0.0000
     26 H6         9.9017   10.9940    3.4480 H         1 RES1    0.0000
     27 H7        12.0878   11.1558    3.8037 H         1 RES1    0.0000
     28 H8        13.1809    7.8220    1.5771 H         1 RES1    0.0000
     29 H9        10.6733    7.7897    1.1906 H         1 RES1    0.0000
     30 H10       14.2739   10.7890    4.9942 H         1 RES1    0.0000
     31 H11       14.5954   11.4687    3.3475 H         1 RES1    0.0000
     32 H12       15.5599   10.7566    3.7650 H         1 RES1    0.0000
     33 H13       15.1098    8.7715    1.6080 H         1 RES1    0.0000
     34 H14       14.9169    7.8868    2.7059 H         1 RES1    0.0000
     35 H15       16.0742    8.8362    2.9610 H         1 RES1    0.0000
     36 O3         2.1925    9.2624    4.3850 O.2       2 RES2    0.0000
     37 O4         2.2568    7.3031    3.5586 O.2       2 RES2    0.0000
     38 N4         8.2557    7.9882    5.2803 N.2       2 RES2    0.0000
     39 N5         2.8162    8.2018    4.0549 N.pl3     2 RES2    0.0000
     40 N6        14.2482    6.5263    7.0669 N.3       2 RES2    0.0000
     41 C16        4.1986    8.1274    4.4685 C.ar      2 RES2    0.0000
     42 C17        4.9187    7.0085    4.1044 C.ar      2 RES2    0.0000
     43 C18        6.2754    6.9427    4.3796 C.ar      2 RES2    0.0000
     44 C19        6.8733    8.0141    5.0097 C.ar      2 RES2    0.0000
     45 C20        6.1789    9.1696    5.3097 C.ar      2 RES2    0.0000
     46 C21        4.8673    9.2440    5.0275 C.ar      2 RES2    0.0000
     47 C22        8.7508    7.0021    5.8825 C.2       2 RES2    0.0000
     48 C23       10.2232    6.8165    6.1206 C.ar      2 RES2    0.0000
     49 C24       10.6604    5.8433    6.8837 C.ar      2 RES2    0.0000
     50 C25       12.0042    5.6168    7.2231 C.ar      2 RES2    0.0000
     51 C26       12.9366    6.5964    6.7252 C.ar      2 RES2    0.0000
     52 C27       12.4672    7.6645    5.8794 C.ar      2 RES2    0.0000
     53 C28       11.0977    7.7314    5.6104 C.ar      2 RES2    0.0000
     54 C29       14.8140    5.4614    7.8779 C.3       2 RES2    0.0000
     55 C30       15.2127    7.4185    6.5281 C.3       2 RES2    0.0000
     56 H16        4.5651    6.5058    3.1542 H         2 RES2    0.0000
     57 H17        7.2013    6.1713    4.0279 H         2 RES2    0.0000
     58 H18        6.6226   10.0446    5.6668 H         2 RES2    0.0000
     59 H19        8.0371    6.5705    6.4399 H         2 RES2    0.0000
     60 H20       10.1589    5.2219    7.2826 H         2 RES2    0.0000
     61 H21       12.2807    5.0924    7.7619 H         2 RES2    0.0000
     62 H22       12.9880    8.4262    5.2803 H         2 RES2    0.0000
     63 H23       10.8019    8.3938    4.9633 H         2 RES2    0.0000
     64 H24       15.1741    5.2219    7.0893 H         2 RES2    0.0000
     65 H25       15.8814    5.5995    8.2181 H         2 RES2    0.0000
     66 H26       14.2739    4.8874    8.1794 H         2 RES2    0.0000
     67 H27       14.9169    8.2967    7.0893 H         2 RES2    0.0000
     68 H28       14.9169    7.2178    5.6050 H         2 RES2    0.0000
     69 H29       16.0742    7.2502    7.0893 H         2 RES2    0.0000
     70 O5        13.8689    5.1118    3.7650 O.2       3 RES3    0.0000
     71 O6        13.7403    3.3392    5.0213 O.2       3 RES3    0.0000
     72 N7         7.7542    3.9693    3.1512 N.2       3 RES3    0.0000
     73 N8        13.2388    4.2660    4.2814 N.pl3     3 RES3    0.0000
     74 N9         1.6203    2.5182    1.9196 N.3       3 RES3    0.0000
     75 C31       11.8178    4.1516    4.0325 C.ar      3 RES3    0.0000
     76 C32       11.1041    3.1418    4.6378 C.ar      3 RES3    0.0000
     77 C33        9.7153    3.0673    4.3294 C.ar      3 RES3    0.0000
     78 C34        9.0980    3.9650    3.5083 C.ar      3 RES3    0.0000
     79 C35        9.8503    5.0784    2.9880 C.ar      3 RES3    0.0000
     80 C36       11.2520    5.0956    3.2091 C.ar      3 RES3    0.0000
     81 C37        7.1627    2.8375    3.1419 C.2       3 RES3    0.0000
     82 C38        5.7031    2.7911    2.8334 C.ar      3 RES3    0.0000
     83 C39        5.0087    1.6119    3.0476 C.ar      3 RES3    0.0000
     84 C40        3.6456    1.5148    2.8156 C.ar      3 RES3    0.0000
     85 C41        2.9384    2.5527    2.2165 C.ar      3 RES3    0.0000
     86 C42        3.6778    3.7923    2.0619 C.ar      3 RES3    0.0000
     87 C43        4.9894    3.8603    2.3216 C.ar      3 RES3    0.0000
     88 C44        0.9323    1.2397    2.0727 C.3       3 RES3    0.0000
     89 C45        0.9066    3.7039    1.4217 C.3       3 RES3    0.0000
     90 H30       11.4449    2.3952    5.1875 H         3 RES3    0.0000
     91 H31        9.1945    2.1902    4.8628 H         3 RES3    0.0000
     92 H32        9.4517    5.7613    2.7368 H         3 RES3    0.0000
     93 H33       11.7021    5.9016    2.7677 H         3 RES3    0.0000
     94 H34        5.5295    1.1113    3.3475 H         3 RES3    0.0000
     95 H35        3.3434    1.2192    3.3862 H         3 RES3    0.0000
     96 H36        3.2791    4.8227    1.4844 H         3 RES3    0.0000
     97 H37        5.5295    4.7903    2.2188 H         3 RES3    0.0000
     98 H38        1.4788    0.6797    1.0978 H         3 RES3    0.0000
     99 H39        1.0930    1.1760    3.0615 H         3 RES3    0.0000
    100 H40        0.1286    1.5212    1.9637 H         3 RES3    0.0000
    101 H41        0.9002    3.9164    0.5180 H         3 RES3    0.0000
    102 H42        1.2216    4.4882    1.7395 H         3 RES3    0.0000
    103 H43        0.0643    3.2367    1.7704 H         3 RES3    0.0000
    104 O7        13.8817    0.2773    7.5872 O.2       4 RES4    0.0000
    105 O8        13.7467    1.9863    8.8296 O.2       4 RES4    0.0000
    106 N10        7.6899    1.3119    7.1489 N.2       4 RES4    0.0000
    107 N11       13.2323    1.1900    8.1222 N.pl3     4 RES4    0.0000
    108 N12        1.6782    2.9993    5.8029 N.3       4 RES4    0.0000
    109 C46       11.7985    1.2202    7.8717 C.ar      4 RES4    0.0000
    110 C47       11.0205    2.2322    8.4438 C.ar      4 RES4    0.0000
    111 C48        9.6896    2.2830    8.2567 C.ar      4 RES4    0.0000
    112 C49        9.0916    1.2871    7.4303 C.ar      4 RES4    0.0000
    113 C50        9.8696    0.3301    6.9386 C.ar      4 RES4    0.0000
    114 C51       11.1748    0.2147    7.1705 C.ar      4 RES4    0.0000
    115 C52        7.0984    2.4297    6.9579 C.2       4 RES4    0.0000
    116 C53        5.7482    2.6055    6.7090 C.ar      4 RES4    0.0000
    117 C54        5.1823    3.8171    6.1995 C.ar      4 RES4    0.0000
    118 C55        3.8707    3.9477    5.9258 C.ar      4 RES4    0.0000
    119 C56        2.9770    2.8472    6.1129 C.ar      4 RES4    0.0000
    120 C57        3.4785    1.6982    6.6092 C.ar      4 RES4    0.0000
    121 C58        4.8287    1.5633    6.8991 C.ar      4 RES4    0.0000
    122 C59        1.0995    4.2875    5.3004 C.3       4 RES4    0.0000
    123 C60        0.7844    1.8449    5.8547 C.3       4 RES4    0.0000
    124 H44       11.4449    2.7620    8.8907 H         4 RES4    0.0000
    125 H45        9.1302    3.0641    8.6974 H         4 RES4    0.0000
    126 H46        9.6446   -0.5071    6.5404 H         4 RES4    0.0000
    127 H47       11.7021   -0.4747    6.9579 H         4 RES4    0.0000
    128 H48        3.5363    4.7256    5.6359 H         4 RES4    0.0000
    129 H49        3.0220    0.8415    6.8651 H         4 RES4    0.0000
    130 H50        5.2081    0.8415    7.2826 H         4 RES4    0.0000
    131 H51        0.3215    4.0459    5.7983 H         4 RES4    0.0000
    132 H52        1.7360    4.8874    5.1566 H         4 RES4    0.0000
    133 H53        0.7716    4.3803    4.5072 H         4 RES4    0.0000
    134 H54        1.2859    1.0142    6.1230 H         4 RES4    0.0000
    135 H55        0.4501    2.0283    6.4399 H         4 RES4    0.0000
    136 H56        0.1286    2.1578    5.1566 H         4 RES4    0.0000
@<TRIPOS>BOND
     1    1    4 2
     2    2    4 2
     3    3    9 1
     4    4    6 1
     5    5   16 1
     6    6    7 ar
     7    7    8 ar
     8    8    9 ar
     9    9   10 ar
    10   10   11 ar
    11   11    6 ar
    12   12    3 2
    13   13   12 1
    14   14   13 ar
    15   15   14 ar
    16   16   15 ar
    17   17   16 ar
    18   18   13 ar
    19   19    5 1
    20   20    5 1
    21   21    7 1
    22   22    8 1
    23   23   10 1
    24   24   11 1
    25   25   12 1
    26   26   14 1
    27   27   15 1
    28   28   17 1
    29   29   18 1
    30   30   19 1
    31   31   19 1
    32   32   19 1
    33   33   20 1
    34   34   20 1
    35   35   20 1
    36   36   39 2
    37   37   39 2
    38   38   44 1
    39   39   41 1
    40   40   51 1
    41   41   42 ar
    42   42   43 ar
    43   43   44 ar
    44   44   45 ar
    45   45   46 ar
    46   46   41 ar
    47   47   38 2
    48   48   47 1
    49   49   48 ar
    50   50   49 ar
    51   51   50 ar
    52   52   51 ar
    53   53   48 ar
    54   54   40 1
    55   55   40 1
    56   56   42 1
    57   57   43 1
    58   58   45 1
    59   59   47 1
    60   60   49 1
    61   61   50 1
    62   62   52 1
    63   63   53 1
    64   64   54 1
    65   65   54 1
    66   66   54 1
    67   67   55 1
    68   68   55 1
    69   69   55 1
    70   70   73 2
    71   71   73 2
    72   72   78 1
    73   73   75 1
    74   74   85 1
    75   75   76 ar
    76   76   77 ar
    77   77   78 ar
    78   78   79 ar
    79   79   80 ar
    80   80   75 ar
    81   81   72 2
    82   82   81 1
    83   83   82 ar
    84   84   83 ar
    85   85   84 ar
    86   86   85 ar
    87   87   82 ar
    88   88   74 1
    89   89   74 1
    90   90   76 1
    91   91   77 1
    92   92   79 1
    93   93   80 1
    94   94   83 1
    95   95   84 1
    96   96   86 1
    97   97   87 1
    98   98   88 1
    99   99   88 1
   100  100   88 1
   101  101   89 1
   102  102   89 1
   103  103   89 1
   104  104  107 2
   105  105  107 2
   106  106  112 1
   107  107  109 1
   108  108  119 1
   109  109  110 ar
   110  110  111 ar
   111  111  112 ar
   112  112  113 ar
   113  113  114 ar
   114  114  109 ar
   115  115  106 2
   116  116  115 1
   117  117  116 ar
   118  118  117 ar
   119  119  118 ar
   120  120  119 ar
   121  121  116 ar
   122  122  108 1
   123  123  108 1
   124  124  110 1
   125  125  111 1
   126  126  113 1
   127  127  114 1
   128  128  118 1
   129  129  120 1
   130  130  121 1
   131  131  122 1
   132  132  122 1
   133  133  122 1
   134  134  123 1
   135  135  123 1
   136  136  123 1
   137   17   18 ar
   138   52   53 ar
   139   86   87 ar
   140  120  121 ar
@<TRIPOS>SUBSTRUCTURE
     1 RES1 1
     2 RES2 36
     3 RES3 70
     4 RES4 104

@<TRIPOS>CRYSIN
  64.2970   10.7890    7.7310  90.0000  90.0000  90.0000  19 1

