# MOL2 file generated by ConQuest
# Please check atom types

@<TRIPOS>MOLECULE
MACBEY
    39    41     1
SMALL
NO_CHARGES
****
Generated from CSD

@<TRIPOS>ATOM
      1 O1         3.5820    4.8952    5.7240 O.2       1 RES1    0.0000
      2 O2         4.5940    6.8930    8.9206 O.3       1 RES1    0.0000
      3 N1         2.9447    8.4726    8.6500 N.ar      1 RES1    0.0000
      4 N2         1.3088   10.0087    8.2731 N.3       1 RES1    0.0000
      5 N3         1.5195    8.3909    6.6800 N.ar      1 RES1    0.0000
      6 N4         1.7600    6.6476    5.1489 N.3       1 RES1    0.0000
      7 N5         3.9100    5.5602    6.7699 N.2       1 RES1    0.0000
      8 C1         1.9333    8.9248    7.8249 C.ar      1 RES1    0.0000
      9 C2         2.1344    7.2855    6.2644 C.ar      1 RES1    0.0000
     10 C3         3.2273    6.7067    7.0220 C.ar      1 RES1    0.0000
     11 C4         3.5727    7.4013    8.2143 C.ar      1 RES1    0.0000
     12 C5         0.7545    6.9760    4.1972 C.ar      1 RES1    0.0000
     13 C6         0.0494    8.1694    4.1558 C.ar      1 RES1    0.0000
     14 C7        -0.8962    8.3676    3.1556 C.ar      1 RES1    0.0000
     15 C8        -1.1457    7.3892    2.2060 C.ar      1 RES1    0.0000
     16 C9        -0.4623    6.1961    2.2526 C.ar      1 RES1    0.0000
     17 C10        0.4903    5.9879    3.2422 C.ar      1 RES1    0.0000
     18 C11        3.7847    6.7055   11.2085 C.ar      1 RES1    0.0000
     19 C12        3.2554    5.4416   10.9271 C.ar      1 RES1    0.0000
     20 C13        2.3221    4.8537   11.7833 C.ar      1 RES1    0.0000
     21 C14        1.9371    5.5109   12.9290 C.ar      1 RES1    0.0000
     22 C15        2.4728    6.7377   13.2397 C.ar      1 RES1    0.0000
     23 C16        3.3939    7.3564   12.3742 C.ar      1 RES1    0.0000
     24 C17        4.7724    7.3634   10.2856 C.3       1 RES1    0.0000
     25 H1         0.6414   10.3535    7.8155 H         1 RES1    0.0000
     26 H2         1.5633   10.3821    9.0279 H         1 RES1    0.0000
     27 H3         2.2058    5.9084    4.9774 H         1 RES1    0.0000
     28 H4         0.2106    8.8447    4.8054 H         1 RES1    0.0000
     29 H5        -1.3781    9.1858    3.1222 H         1 RES1    0.0000
     30 H6        -1.7888    7.5421    1.5244 H         1 RES1    0.0000
     31 H7        -0.6403    5.5187    1.6111 H         1 RES1    0.0000
     32 H8         0.9668    5.1666    3.2716 H         1 RES1    0.0000
     33 H9         3.5340    4.9785   10.1455 H         1 RES1    0.0000
     34 H10        1.9541    4.0031   11.5739 H         1 RES1    0.0000
     35 H11        1.2974    5.1143   13.5091 H         1 RES1    0.0000
     36 H12        2.2194    7.1725   14.0453 H         1 RES1    0.0000
     37 H13        3.7462    8.2134   12.5835 H         1 RES1    0.0000
     38 H14        4.6485    8.3451   10.3149 H         1 RES1    0.0000
     39 H15        5.6929    7.1604   10.5870 H         1 RES1    0.0000
@<TRIPOS>BOND
     1    1    7 2
     2    2   11 1
     3    3    8 ar
     4    4    8 1
     5    5    8 ar
     6    6    9 1
     7    7   10 1
     8    9    5 ar
     9   10    9 ar
    10   11    3 ar
    11   12    6 1
    12   13   12 ar
    13   14   13 ar
    14   15   14 ar
    15   16   15 ar
    16   17   12 ar
    17   18   19 ar
    18   19   20 ar
    19   20   21 ar
    20   21   22 ar
    21   22   23 ar
    22   23   18 ar
    23   24    2 1
    24   25    4 1
    25   26    4 1
    26   27    6 1
    27   28   13 1
    28   29   14 1
    29   30   15 1
    30   31   16 1
    31   32   17 1
    32   33   19 1
    33   34   20 1
    34   35   21 1
    35   36   22 1
    36   37   23 1
    37   38   24 1
    38   39   24 1
    39   10   11 ar
    40   16   17 ar
    41   18   24 1
@<TRIPOS>SUBSTRUCTURE
     1 RES1 1

@<TRIPOS>CRYSIN
   4.7622    5.8123   13.5635  79.8510  87.3460  89.6920   1 1

