# MOL2 file generated by ConQuest
# Please check atom types

@<TRIPOS>MOLECULE
MACBAU
    45    47     1
SMALL
NO_CHARGES
****
Generated from CSD

@<TRIPOS>ATOM
      1 N1         8.4550    3.9686    4.6458 N.ar      1 RES1    0.0000
      2 O1         4.5569    2.9693    2.2902 O.2       1 RES1    0.0000
      3 C1         9.1852    3.5783    3.5399 C.ar      1 RES1    0.0000
      4 N2        10.4937    3.6375    3.7027 N.3       1 RES1    0.0000
      5 N3         8.7178    3.1733    2.3529 N.ar      1 RES1    0.0000
      6 C2         7.3850    3.1014    2.2256 C.ar      1 RES1    0.0000
      7 C3         7.5718    2.4826   -0.1783 C.3       1 RES1    0.0000
      8 C4         7.4059    3.6418   -1.1424 C.3       1 RES1    0.0000
      9 C5         8.0481    3.3468   -2.4948 C.3       1 RES1    0.0000
     10 C6         7.5342    2.0616   -3.0978 C.3       1 RES1    0.0000
     11 C7         7.7104    0.8981   -2.1274 C.3       1 RES1    0.0000
     12 C8         7.0499    1.1927   -0.7822 C.3       1 RES1    0.0000
     13 N4         6.8509    2.7492    1.0669 N.3       1 RES1    0.0000
     14 N5         5.1619    3.3507    3.3752 N.2       1 RES1    0.0000
     15 O2         6.3630    4.2045    5.5454 O.3       1 RES1    0.0000
     16 C9         6.4982    3.4086    3.3370 C.ar      1 RES1    0.0000
     17 C10        7.1592    3.8617    4.5294 C.ar      1 RES1    0.0000
     18 C11        6.8985    6.0316    7.0606 C.ar      1 RES1    0.0000
     19 C12        7.1444    6.9645    6.0602 C.ar      1 RES1    0.0000
     20 C13        7.1338    8.3125    6.3312 C.ar      1 RES1    0.0000
     21 C14        6.8687    8.7612    7.6200 C.ar      1 RES1    0.0000
     22 C15        6.6192    7.8518    8.6232 C.ar      1 RES1    0.0000
     23 C16        6.6288    6.4957    8.3485 C.ar      1 RES1    0.0000
     24 C17        6.9745    4.5605    6.8132 C.3       1 RES1    0.0000
     25 H1        11.0307    3.4161    3.0424 H         1 RES1    0.0000
     26 H2        10.8298    3.9013    4.4730 H         1 RES1    0.0000
     27 H3         8.5435    2.3716    0.0291 H         1 RES1    0.0000
     28 H4         7.8205    4.4522   -0.7531 H         1 RES1    0.0000
     29 H5         6.4416    3.8244   -1.2715 H         1 RES1    0.0000
     30 H6         7.8607    4.0955   -3.1142 H         1 RES1    0.0000
     31 H7         9.0295    3.2846   -2.3820 H         1 RES1    0.0000
     32 H8         8.0263    1.8703   -3.9355 H         1 RES1    0.0000
     33 H9         6.5751    2.1627   -3.3216 H         1 RES1    0.0000
     34 H10        8.6760    0.7283   -1.9891 H         1 RES1    0.0000
     35 H11        7.3097    0.0804   -2.5185 H         1 RES1    0.0000
     36 H12        6.0698    1.2614   -0.9059 H         1 RES1    0.0000
     37 H13        7.2262    0.4436   -0.1592 H         1 RES1    0.0000
     38 H14        5.9756    2.6679    1.0432 H         1 RES1    0.0000
     39 H15        7.3210    6.6657    5.1752 H         1 RES1    0.0000
     40 H16        7.3081    8.9373    5.6372 H         1 RES1    0.0000
     41 H17        6.8599    9.6920    7.8083 H         1 RES1    0.0000
     42 H18        6.4410    8.1556    9.5054 H         1 RES1    0.0000
     43 H19        6.4505    5.8739    9.0443 H         1 RES1    0.0000
     44 H20        7.9229    4.2763    6.8105 H         1 RES1    0.0000
     45 H21        6.5137    4.0805    7.5463 H         1 RES1    0.0000
@<TRIPOS>BOND
     1    1    3 ar
     2    2   14 2
     3    3    4 1
     4    4   25 1
     5    5    3 ar
     6    6    5 ar
     7    7    8 1
     8    8    9 1
     9    9   10 1
    10   10   11 1
    11   11   12 1
    12   12    7 1
    13   13    6 1
    14   14   16 1
    15   15   17 1
    16   16    6 ar
    17   17    1 ar
    18   18   19 ar
    19   19   20 ar
    20   20   21 ar
    21   21   22 ar
    22   22   23 ar
    23   23   18 ar
    24   24   15 1
    25   26    4 1
    26   27    7 1
    27   28    8 1
    28   29    8 1
    29   30    9 1
    30   31    9 1
    31   32   10 1
    32   33   10 1
    33   34   11 1
    34   35   11 1
    35   36   12 1
    36   37   12 1
    37   38   13 1
    38   39   19 1
    39   40   20 1
    40   41   21 1
    41   42   22 1
    42   43   23 1
    43   44   24 1
    44   45   24 1
    45    7   13 1
    46   16   17 ar
    47   18   24 1
@<TRIPOS>SUBSTRUCTURE
     1 RES1 1

@<TRIPOS>CRYSIN
   8.2656   10.6077   10.6743  64.8410  71.0210  87.2750   2 1

