# MOL2 file generated by ConQuest
# Please check atom types

@<TRIPOS>MOLECULE
MADKOT
    23    23     1
SMALL
NO_CHARGES
****
Generated from CSD

@<TRIPOS>ATOM
      1 C1         1.5588    5.1917    5.0789 C.ar      1 RES1    0.0000
      2 C2         1.8827    4.1580    4.2363 C.ar      1 RES1    0.0000
      3 C3         1.2672    4.0688    3.0128 C.ar      1 RES1    0.0000
      4 C4         0.3435    5.0406    2.6977 C.ar      1 RES1    0.0000
      5 C5         0.0930    6.0480    3.5910 C.ar      1 RES1    0.0000
      6 C6         1.5598    2.9500    2.0450 C.3       1 RES1    0.0000
      7 C7         2.3505    3.4976    0.8709 C.3       1 RES1    0.0000
      8 C8         3.7195    3.9858    1.2220 C.3       1 RES1    0.0000
      9 N1         0.6860    6.1436    4.7801 N.ar      1 RES1    0.0000
     10 N2         2.4748    2.4159   -0.1633 N.pl3     1 RES1    0.0000
     11 O1         0.3858    2.3910    1.5285 O.3       1 RES1    0.0000
     12 O2         2.9621    1.3644    0.1685 O.2       1 RES1    0.0000
     13 O3         2.1078    2.6714   -1.2887 O.2       1 RES1    0.0000
     14 H1         1.9776    5.2483    5.9221 H         1 RES1    0.0000
     15 H2         2.5110    3.5020    4.4886 H         1 RES1    0.0000
     16 H3        -0.1155    4.9734    1.8767 H         1 RES1    0.0000
     17 H4        -0.5206    6.7123    3.3236 H         1 RES1    0.0000
     18 H5         2.0501    2.2763    2.4860 H         1 RES1    0.0000
     19 H6         1.8465    4.2157    0.5271 H         1 RES1    0.0000
     20 H7         3.6490    4.7383    1.8146 H         1 RES1    0.0000
     21 H8         4.1804    4.2503    0.4230 H         1 RES1    0.0000
     22 H9         4.2087    3.2827    1.6551 H         1 RES1    0.0000
     23 H10       -0.0137    1.9950    2.1251 H         1 RES1    0.0000
@<TRIPOS>BOND
     1    1    2 ar
     2    2    3 ar
     3    3    4 ar
     4    4    5 ar
     5    5    9 ar
     6    6    3 1
     7    7    6 1
     8    8    7 1
     9    9    1 ar
    10   10    7 1
    11   11    6 1
    12   12   10 2
    13   13   10 2
    14   14    1 1
    15   15    2 1
    16   16    4 1
    17   17    5 1
    18   18    6 1
    19   19    7 1
    20   20    8 1
    21   21    8 1
    22   22    8 1
    23   23   11 1
@<TRIPOS>SUBSTRUCTURE
     1 RES1 1

@<TRIPOS>CRYSIN
   9.7855   10.4946   16.7860  90.0000  90.0000  90.0000  61 1

