# MOL2 file generated by ConQuest
# Please check atom types

@<TRIPOS>MOLECULE
MADLUA
    43    46     1
SMALL
NO_CHARGES
****
Generated from CSD

@<TRIPOS>ATOM
      1 C1         7.2555    0.4903   -0.5832 C.ar      1 RES1    0.0000
      2 H1         7.1359   -0.4009   -0.3451 H         1 RES1    0.0000
      3 C2         7.2491    0.8489   -1.9140 C.ar      1 RES1    0.0000
      4 H2         7.1213    0.1989   -2.5674 H         1 RES1    0.0000
      5 C3         7.4290    2.1498   -2.2790 C.ar      1 RES1    0.0000
      6 H3         7.4265    2.3870   -3.1784 H         1 RES1    0.0000
      7 C4         7.6137    3.1113   -1.3112 C.ar      1 RES1    0.0000
      8 H4         7.7327    4.0002   -1.5577 H         1 RES1    0.0000
      9 C5         7.6212    2.7616    0.0201 C.ar      1 RES1    0.0000
     10 H5         7.7509    3.4164    0.6669 H         1 RES1    0.0000
     11 C6         7.4384    1.4471    0.4023 C.ar      1 RES1    0.0000
     12 C7         7.4333    1.0446    1.8555 C.3       1 RES1    0.0000
     13 H6         7.8536    0.1621    1.9261 H         1 RES1    0.0000
     14 C8         6.0213    0.9653    2.5343 C.3       1 RES1    0.0000
     15 C9         4.9300    1.6140    1.6918 C.3       1 RES1    0.0000
     16 H7         5.2018    2.5132    1.4504 H         1 RES1    0.0000
     17 H8         4.8109    1.1069    0.8745 H         1 RES1    0.0000
     18 C10        3.7562    2.2577    3.6301 C.ar      1 RES1    0.0000
     19 C11        2.5591    2.6873    4.1739 C.ar      1 RES1    0.0000
     20 H9         1.7643    2.5627    3.7077 H         1 RES1    0.0000
     21 C12        2.5462    3.2966    5.4037 C.ar      1 RES1    0.0000
     22 H10        1.7434    3.6025    5.7621 H         1 RES1    0.0000
     23 C13        3.7191    3.4563    6.1089 C.ar      1 RES1    0.0000
     24 H11        3.7136    3.8868    6.9327 H         1 RES1    0.0000
     25 C14        4.8973    2.9764    5.5889 C.ar      1 RES1    0.0000
     26 H12        5.6782    3.0499    6.0886 H         1 RES1    0.0000
     27 C15        4.9469    2.3852    4.3324 C.ar      1 RES1    0.0000
     28 C16        6.2253    1.8172    3.7889 C.3       1 RES1    0.0000
     29 H13        6.6762    1.2889    4.4796 H         1 RES1    0.0000
     30 C17        7.8568    3.5841    4.2804 C.3       1 RES1    0.0000
     31 H14        8.2350    2.9772    4.9203 H         1 RES1    0.0000
     32 H15        7.2439    4.1759    4.7244 H         1 RES1    0.0000
     33 H16        8.5586    4.0976    3.8733 H         1 RES1    0.0000
     34 C18        5.6687   -0.4677    2.8626 C.2       1 RES1    0.0000
     35 C19        5.1361   -2.5715    1.9380 C.3       1 RES1    0.0000
     36 H17        5.9388   -3.0283    2.1966 H         1 RES1    0.0000
     37 H18        4.8122   -2.9357    1.1100 H         1 RES1    0.0000
     38 H19        4.4691   -2.6849    2.6187 H         1 RES1    0.0000
     39 N1         7.1473    2.8303    3.2542 N.3       1 RES1    0.0000
     40 O1         5.6445   -0.9359    3.9502 O.2       1 RES1    0.0000
     41 O2         5.4165   -1.1610    1.7676 O.3       1 RES1    0.0000
     42 O3         8.1711    1.9519    2.6712 O.3       1 RES1    0.0000
     43 O4         3.6953    1.6675    2.3981 O.3       1 RES1    0.0000
@<TRIPOS>BOND
     1    1    2 1
     2    3    1 ar
     3    4    3 1
     4    5    3 ar
     5    6    5 1
     6    7    5 ar
     7    8    7 1
     8    9    7 ar
     9   10    9 1
    10   11    1 ar
    11   12   11 1
    12   13   12 1
    13   14   12 1
    14   15   14 1
    15   16   15 1
    16   17   15 1
    17   18   19 ar
    18   19   20 1
    19   21   19 ar
    20   22   21 1
    21   23   21 ar
    22   24   23 1
    23   25   23 ar
    24   26   25 1
    25   27   18 ar
    26   28   14 1
    27   29   28 1
    28   30   31 1
    29   32   30 1
    30   33   30 1
    31   34   14 1
    32   35   36 1
    33   37   35 1
    34   38   35 1
    35   39   28 1
    36   40   34 2
    37   41   34 1
    38   42   12 1
    39   43   15 1
    40    9   11 ar
    41   18   43 1
    42   25   27 ar
    43   27   28 1
    44   30   39 1
    45   35   41 1
    46   39   42 1
@<TRIPOS>SUBSTRUCTURE
     1 RES1 1

@<TRIPOS>CRYSIN
   8.9770    7.9860   23.3210  90.0000  90.7580  90.0000 231 1

