# MOL2 file generated by ConQuest
# Please check atom types

@<TRIPOS>MOLECULE
MADMAH
    38    41     1
SMALL
NO_CHARGES
****
Generated from CSD

@<TRIPOS>ATOM
      1 C1         5.5777    5.1762    2.0078 C.3       1 RES1    0.0000
      2 H1         6.3616    4.5895    2.0534 H         1 RES1    0.0000
      3 C2         5.9651    6.5172    1.4396 C.ar      1 RES1    0.0000
      4 C3         7.1512    7.1506    1.8192 C.ar      1 RES1    0.0000
      5 H2         7.6960    6.7529    2.4596 H         1 RES1    0.0000
      6 C4         7.5302    8.3557    1.2626 C.ar      1 RES1    0.0000
      7 H3         8.3157    8.7690    1.5393 H         1 RES1    0.0000
      8 C5         6.7416    8.9445    0.2966 C.ar      1 RES1    0.0000
      9 H4         6.9918    9.7611   -0.0723 H         1 RES1    0.0000
     10 C6         5.5941    8.3319   -0.1204 C.ar      1 RES1    0.0000
     11 H5         5.0768    8.7211   -0.7875 H         1 RES1    0.0000
     12 C7         5.1978    7.1270    0.4494 C.ar      1 RES1    0.0000
     13 C8         3.4531    5.5858    0.7950 C.3       1 RES1    0.0000
     14 H6         2.7100    5.1734    0.3281 H         1 RES1    0.0000
     15 H7         3.1048    6.0128    1.5924 H         1 RES1    0.0000
     16 C9         4.4584    4.5052    1.1978 C.3       1 RES1    0.0000
     17 C10        3.7973    3.5537    2.2428 C.3       1 RES1    0.0000
     18 H8         2.8546    3.8033    2.3342 H         1 RES1    0.0000
     19 C11        3.8736    2.0720    1.9729 C.ar      1 RES1    0.0000
     20 C12        2.8926    1.4782    1.2178 C.ar      1 RES1    0.0000
     21 H9         2.1990    1.9948    0.8764 H         1 RES1    0.0000
     22 C13        2.9264    0.1161    0.9611 C.ar      1 RES1    0.0000
     23 H10        2.2718   -0.2769    0.4295 H         1 RES1    0.0000
     24 C14        3.9272   -0.6460    1.4927 C.ar      1 RES1    0.0000
     25 H11        3.9462   -1.5618    1.3324 H         1 RES1    0.0000
     26 C15        4.8973   -0.0737    2.2536 C.ar      1 RES1    0.0000
     27 H12        5.5656   -0.6034    2.6249 H         1 RES1    0.0000
     28 C16        4.8984    1.2906    2.4804 C.ar      1 RES1    0.0000
     29 H13        5.5835    1.6825    2.9722 H         1 RES1    0.0000
     30 C17        5.8348    5.4369    4.4400 C.3       1 RES1    0.0000
     31 H14        6.5590    4.8113    4.3694 H         1 RES1    0.0000
     32 H15        5.3671    5.2940    5.2665 H         1 RES1    0.0000
     33 H16        6.1811    6.3323    4.4209 H         1 RES1    0.0000
     34 C18        4.9860    3.8508    0.0008 C.1       1 RES1    0.0000
     35 N1         4.9186    5.2470    3.3247 N.3       1 RES1    0.0000
     36 N2         5.4083    3.4132   -0.9486 N.1       1 RES1    0.0000
     37 O1         4.0494    6.5726   -0.0468 O.3       1 RES1    0.0000
     38 O2         4.4639    3.8560    3.4663 O.3       1 RES1    0.0000
@<TRIPOS>BOND
     1    1    2 1
     2    3    1 1
     3    4    3 ar
     4    5    4 1
     5    6    4 ar
     6    7    6 1
     7    8    6 ar
     8    9    8 1
     9   10    8 ar
    10   11   10 1
    11   12    3 ar
    12   13   14 1
    13   15   13 1
    14   16    1 1
    15   17   16 1
    16   18   17 1
    17   19   17 1
    18   20   19 ar
    19   21   20 1
    20   22   20 ar
    21   23   22 1
    22   24   22 ar
    23   25   24 1
    24   26   24 ar
    25   27   26 1
    26   28   19 ar
    27   29   28 1
    28   30   31 1
    29   32   30 1
    30   33   30 1
    31   34   16 1
    32   35    1 1
    33   36   34 3
    34   37   12 1
    35   38   17 1
    36   10   12 ar
    37   13   16 1
    38   13   37 1
    39   26   28 ar
    40   30   35 1
    41   35   38 1
@<TRIPOS>SUBSTRUCTURE
     1 RES1 1

@<TRIPOS>CRYSIN
  10.5569   17.7474    8.3068  90.0000  90.0000  90.0000  29 1

