# MOL2 file generated by ConQuest
# Please check atom types

@<TRIPOS>MOLECULE
MADMEL
    30    31     1
SMALL
NO_CHARGES
****
Generated from CSD

@<TRIPOS>ATOM
      1 C1         2.5848    7.9585    9.5843 C.3       1 RES1    0.0000
      2 C2         1.2865    8.1658   11.4668 C.2       1 RES1    0.0000
      3 C3         1.9424    6.8644   11.5390 C.2       1 RES1    0.0000
      4 H1         1.8429    6.2342   12.2155 H         1 RES1    0.0000
      5 C4         2.7087    6.7461   10.4578 C.2       1 RES1    0.0000
      6 H2         3.2480    6.0115   10.2693 H         1 RES1    0.0000
      7 C5         1.9277    7.6490    8.2380 C.3       1 RES1    0.0000
      8 H3         1.0555    7.2532    8.3918 H         1 RES1    0.0000
      9 H4         2.4685    7.0010    7.7592 H         1 RES1    0.0000
     10 C6         1.7670    8.9046    7.3784 C.3       1 RES1    0.0000
     11 H5         1.4136    8.6577    6.5098 H         1 RES1    0.0000
     12 H6         1.1331    9.5049    7.8009 H         1 RES1    0.0000
     13 C7         3.1015    9.6221    7.1970 C.3       1 RES1    0.0000
     14 H7         2.9625   10.4385    6.6924 H         1 RES1    0.0000
     15 H8         3.7052    9.0564    6.6913 H         1 RES1    0.0000
     16 C8         3.7327    9.9613    8.5446 C.3       1 RES1    0.0000
     17 H9         3.1732   10.6022    9.0097 H         1 RES1    0.0000
     18 H10        4.6006   10.3703    8.3997 H         1 RES1    0.0000
     19 C9         3.8993    8.7119    9.4100 C.3       1 RES1    0.0000
     20 H11        4.5527    8.1238    8.9996 H         1 RES1    0.0000
     21 H12        4.2368    8.9699   10.2817 H         1 RES1    0.0000
     22 C10       -0.6345   10.5197   13.0119 C.2       1 RES1    0.0000
     23 C11       -0.9584   11.9391   12.6602 C.3       1 RES1    0.0000
     24 H13       -1.8837   12.1125   12.8481 H         1 RES1    0.0000
     25 H14       -0.7893   12.0840   11.7261 H         1 RES1    0.0000
     26 H15       -0.4103   12.5305   13.1808 H         1 RES1    0.0000
     27 N1         0.4808    8.5914   12.3749 N.2       1 RES1    0.0000
     28 O1         1.6531    8.8216   10.3516 O.3       1 RES1    0.0000
     29 O2         0.0588    9.9271   12.0100 O.3       1 RES1    0.0000
     30 O3        -0.9214    9.9778   14.0423 O.2       1 RES1    0.0000
@<TRIPOS>BOND
     1    1    5 1
     2    2    3 1
     3    3    4 1
     4    5    3 2
     5    6    5 1
     6    7    1 1
     7    8    7 1
     8    9    7 1
     9   10    7 1
    10   11   10 1
    11   12   10 1
    12   13   10 1
    13   14   13 1
    14   15   13 1
    15   16   13 1
    16   17   16 1
    17   18   16 1
    18   19    1 1
    19   20   19 1
    20   21   19 1
    21   22   23 1
    22   23   24 1
    23   25   23 1
    24   26   23 1
    25   27    2 2
    26   28    1 1
    27   29   22 1
    28   30   22 2
    29    2   28 1
    30   16   19 1
    31   27   29 1
@<TRIPOS>SUBSTRUCTURE
     1 RES1 1

@<TRIPOS>CRYSIN
   9.6440   10.1700   11.3730  90.0000  97.4800  90.0000 231 1

