# MOL2 file generated by ConQuest
# Please check atom types

@<TRIPOS>MOLECULE
MAFPOA01
    39    41     1
SMALL
NO_CHARGES
****
Generated from CSD

@<TRIPOS>ATOM
      1 O1         3.8608   -1.3182    8.0874 O.2       1 RES1    0.0000
      2 O2         3.5886    0.6498    7.2276 O.2       1 RES1    0.0000
      3 N1         1.9196    0.0905   10.2089 N.3       1 RES1    0.0000
      4 N2         3.1557   -0.3832    7.7214 N.pl3     1 RES1    0.0000
      5 C1         1.3563   -0.9283    9.3173 C.3       1 RES1    0.0000
      6 H1         1.8118   -1.7763    9.5013 H         1 RES1    0.0000
      7 C2        -0.1423   -1.1645    9.4416 C.ar      1 RES1    0.0000
      8 C3        -0.7286   -2.2420    8.7671 C.ar      1 RES1    0.0000
      9 H2        -0.1957   -2.8166    8.2667 H         1 RES1    0.0000
     10 C4        -2.0997   -2.4625    8.8365 C.ar      1 RES1    0.0000
     11 H3        -2.4787   -3.1889    8.3965 H         1 RES1    0.0000
     12 C5        -2.9020   -1.5905    9.5678 C.ar      1 RES1    0.0000
     13 H4        -3.8231   -1.7169    9.5952 H         1 RES1    0.0000
     14 C6        -2.3257   -0.5358   10.2539 C.ar      1 RES1    0.0000
     15 H5        -2.8652    0.0356   10.7525 H         1 RES1    0.0000
     16 C7        -0.9443   -0.3151   10.2111 C.ar      1 RES1    0.0000
     17 C8        -0.3309    0.8104   10.9983 C.3       1 RES1    0.0000
     18 H6        -0.1986    0.5288   11.9180 H         1 RES1    0.0000
     19 H7        -0.9336    1.5701   11.0010 H         1 RES1    0.0000
     20 C9         1.0054    1.2242   10.3967 C.3       1 RES1    0.0000
     21 H8         0.8480    1.6489    9.5399 H         1 RES1    0.0000
     22 H9         1.4263    1.8766   10.9790 H         1 RES1    0.0000
     23 C10        1.6715   -0.5271    7.8728 C.3       1 RES1    0.0000
     24 H10        1.3416   -1.2043    7.2613 H         1 RES1    0.0000
     25 H11        1.2354    0.3130    7.6618 H         1 RES1    0.0000
     26 C11        2.4233   -0.4557   11.4733 C.3       1 RES1    0.0000
     27 H12        2.9460   -1.2529   11.2938 H         1 RES1    0.0000
     28 H13        1.6745   -0.7090   12.0368 H         1 RES1    0.0000
     29 C12        3.2818    0.5536   12.2044 C.ar      1 RES1    0.0000
     30 C13        3.1101    0.7854   13.5680 C.ar      1 RES1    0.0000
     31 H14        2.4348    0.3421   14.0282 H         1 RES1    0.0000
     32 C14        3.9409    1.6754   14.2472 C.ar      1 RES1    0.0000
     33 H15        3.8153    1.8237   15.1579 H         1 RES1    0.0000
     34 C15        4.9551    2.3416   13.5708 C.ar      1 RES1    0.0000
     35 H16        5.5113    2.9320   14.0254 H         1 RES1    0.0000
     36 C16        5.1325    2.1179   12.2064 C.ar      1 RES1    0.0000
     37 H17        5.8101    2.5608   11.7468 H         1 RES1    0.0000
     38 C17        4.2991    1.2346   11.5297 C.ar      1 RES1    0.0000
     39 H18        4.4199    1.0953   10.6171 H         1 RES1    0.0000
@<TRIPOS>BOND
     1    1    4 2
     2    2    4 2
     3    3    5 1
     4    4   23 1
     5    5    6 1
     6    7    5 1
     7    8    7 ar
     8    9    8 1
     9   10    8 ar
    10   11   10 1
    11   12   10 ar
    12   13   12 1
    13   14   12 ar
    14   15   14 1
    15   16    7 ar
    16   17   16 1
    17   18   17 1
    18   19   17 1
    19   20    3 1
    20   21   20 1
    21   22   20 1
    22   23    5 1
    23   24   23 1
    24   25   23 1
    25   26    3 1
    26   27   26 1
    27   28   26 1
    28   29   26 1
    29   30   29 ar
    30   31   30 1
    31   32   30 ar
    32   33   32 1
    33   34   32 ar
    34   35   34 1
    35   36   34 ar
    36   37   36 1
    37   38   29 ar
    38   39   38 1
    39   14   16 ar
    40   17   20 1
    41   36   38 ar
@<TRIPOS>SUBSTRUCTURE
     1 RES1 1

@<TRIPOS>CRYSIN
   9.7355   10.7914   27.6200  90.0000  90.0000  90.0000  61 1

