# MOL2 file generated by ConQuest
# Please check atom types

@<TRIPOS>MOLECULE
MAFPOA
    78    82     2
SMALL
NO_CHARGES
****
Generated from CSD

@<TRIPOS>ATOM
      1 O1        -1.2800    2.7396    0.4766 O.2       1 RES1    0.0000
      2 O2        -1.7184    1.9543    2.4360 O.2       1 RES1    0.0000
      3 O3         0.0138    6.5327    8.5789 O.2       2 RES2    0.0000
      4 O4         1.9704    5.6796    8.2612 O.2       2 RES2    0.0000
      5 N1        -0.9950    2.5539    1.6543 N.pl3     1 RES1    0.0000
      6 N2         1.4927    0.9976    1.6212 N.3       1 RES1    0.0000
      7 N3         1.1776    6.3421    8.9200 N.pl3     2 RES2    0.0000
      8 N4         1.0499    4.8853   11.4210 N.3       2 RES2    0.0000
      9 C1         0.3089    3.0880    2.1685 C.3       1 RES1    0.0000
     10 H1         0.1371    3.7395    2.8933 H         1 RES1    0.0000
     11 H2         0.7849    3.5582    1.4398 H         1 RES1    0.0000
     12 C2         1.1817    1.9431    2.7001 C.3       1 RES1    0.0000
     13 H3         0.6502    1.4517    3.3897 H         1 RES1    0.0000
     14 C3         2.3940    2.5529    3.3965 C.ar      1 RES1    0.0000
     15 C4         2.2271    3.1890    4.6366 C.ar      1 RES1    0.0000
     16 H4         1.3701    3.1926    5.0480 H         1 RES1    0.0000
     17 C5         3.2923    3.8133    5.2732 C.ar      1 RES1    0.0000
     18 H5         3.1654    4.2463    6.1096 H         1 RES1    0.0000
     19 C6         4.5488    3.7990    4.6736 C.ar      1 RES1    0.0000
     20 H6         5.2807    4.2378    5.0914 H         1 RES1    0.0000
     21 C7         4.7321    3.1421    3.4633 C.ar      1 RES1    0.0000
     22 H7         5.5995    3.1147    3.0745 H         1 RES1    0.0000
     23 C8         3.6635    2.5190    2.8045 C.ar      1 RES1    0.0000
     24 C9         3.8839    1.7965    1.4910 C.3       1 RES1    0.0000
     25 H8         4.3442    0.9380    1.6663 H         1 RES1    0.0000
     26 H9         4.4718    2.3449    0.9139 H         1 RES1    0.0000
     27 C10        2.5667    1.5199    0.7528 C.3       1 RES1    0.0000
     28 H10        2.2546    2.3596    0.3309 H         1 RES1    0.0000
     29 H11        2.7380    0.8662    0.0295 H         1 RES1    0.0000
     30 C11        1.8231   -0.3473    2.1394 C.3       1 RES1    0.0000
     31 H12        2.6014   -0.2815    2.7476 H         1 RES1    0.0000
     32 H13        2.0755   -0.9356    1.3846 H         1 RES1    0.0000
     33 C12        0.6575   -0.9588    2.8821 C.ar      1 RES1    0.0000
     34 C13       -0.5545   -1.1850    2.2170 C.ar      1 RES1    0.0000
     35 H14       -0.6344   -0.9696    1.2960 H         1 RES1    0.0000
     36 C14       -1.6397   -1.7231    2.8986 C.ar      1 RES1    0.0000
     37 H15       -2.4580   -1.8752    2.4403 H         1 RES1    0.0000
     38 C15       -1.5299   -2.0399    4.2525 C.ar      1 RES1    0.0000
     39 H16       -2.2738   -2.4012    4.7191 H         1 RES1    0.0000
     40 C16       -0.3347   -1.8266    4.9159 C.ar      1 RES1    0.0000
     41 H17       -0.2575   -2.0456    5.8378 H         1 RES1    0.0000
     42 C17        0.7578   -1.2891    4.2315 C.ar      1 RES1    0.0000
     43 H18        1.5779   -1.1478    4.6915 H         1 RES1    0.0000
     44 C18        1.6533    6.9413   10.2099 C.3       2 RES2    0.0000
     45 H19        0.9145    7.4443   10.6357 H         2 RES2    0.0000
     46 H20        2.3932    7.5739   10.0291 H         2 RES2    0.0000
     47 C19        2.1394    5.8350   11.1597 C.3       2 RES2    0.0000
     48 H21        2.8709    5.3362   10.6948 H         2 RES2    0.0000
     49 C20        2.7403    6.4849   12.3989 C.ar      2 RES2    0.0000
     50 C21        3.9877    7.1182   12.3172 C.ar      2 RES2    0.0000
     51 H22        4.4667    7.0972   11.4965 H         2 RES2    0.0000
     52 C22        4.5373    7.7757   13.4101 C.ar      2 RES2    0.0000
     53 H23        5.3802    8.2087   13.3360 H         2 RES2    0.0000
     54 C23        3.8413    7.7945   14.6175 C.ar      2 RES2    0.0000
     55 H24        4.2008    8.2542   15.3667 H         2 RES2    0.0000
     56 C24        2.6215    7.1405   14.7228 C.ar      2 RES2    0.0000
     57 H25        2.1663    7.1334   15.5558 H         2 RES2    0.0000
     58 C25        2.0488    6.4886   13.6181 C.ar      2 RES2    0.0000
     59 C26        0.7167    5.7751   13.7579 C.3       2 RES2    0.0000
     60 H26        0.0919    6.3505   14.2677 H         2 RES2    0.0000
     61 H27        0.8485    4.9405   14.2736 H         2 RES2    0.0000
     62 C27        0.0924    5.4339   12.4021 C.3       2 RES2    0.0000
     63 H28       -0.6325    4.7747   12.5423 H         2 RES2    0.0000
     64 H29       -0.3157    6.2533   12.0243 H         2 RES2    0.0000
     65 C28        1.5609    3.5617   11.8331 C.3       2 RES2    0.0000
     66 H30        0.7983    2.9651   12.0401 H         2 RES2    0.0000
     67 H31        2.1054    3.6601   12.6546 H         2 RES2    0.0000
     68 C29        2.4044    2.9381   10.7429 C.ar      2 RES2    0.0000
     69 C30        1.8497    2.7059    9.4802 C.ar      2 RES2    0.0000
     70 H32        0.9331    2.9026    9.3201 H         2 RES2    0.0000
     71 C31        2.6371    2.1876    8.4576 C.ar      2 RES2    0.0000
     72 H33        2.2571    2.0310    7.6006 H         2 RES2    0.0000
     73 C32        3.9787    1.8978    8.6825 C.ar      2 RES2    0.0000
     74 H34        4.5173    1.5581    7.9768 H         2 RES2    0.0000
     75 C33        4.5304    2.1056    9.9379 C.ar      2 RES2    0.0000
     76 H35        5.4426    1.8937   10.0980 H         2 RES2    0.0000
     77 C34        3.7441    2.6261   10.9619 C.ar      2 RES2    0.0000
     78 H36        4.1262    2.7699   11.8195 H         2 RES2    0.0000
@<TRIPOS>BOND
     1    1    5 2
     2    2    5 2
     3    3    7 2
     4    4    7 2
     5    5    9 1
     6    6   12 1
     7    7   44 1
     8    8   47 1
     9    9   10 1
    10   11    9 1
    11   12    9 1
    12   13   12 1
    13   14   12 1
    14   15   14 ar
    15   16   15 1
    16   17   15 ar
    17   18   17 1
    18   19   17 ar
    19   20   19 1
    20   21   19 ar
    21   22   21 1
    22   23   14 ar
    23   24   23 1
    24   25   24 1
    25   26   24 1
    26   27    6 1
    27   28   27 1
    28   29   27 1
    29   30    6 1
    30   31   30 1
    31   32   30 1
    32   33   30 1
    33   34   33 ar
    34   35   34 1
    35   36   34 ar
    36   37   36 1
    37   38   36 ar
    38   39   38 1
    39   40   38 ar
    40   41   40 1
    41   42   33 ar
    42   43   42 1
    43   44   45 1
    44   46   44 1
    45   47   44 1
    46   48   47 1
    47   49   47 1
    48   50   49 ar
    49   51   50 1
    50   52   50 ar
    51   53   52 1
    52   54   52 ar
    53   55   54 1
    54   56   54 ar
    55   57   56 1
    56   58   49 ar
    57   59   58 1
    58   60   59 1
    59   61   59 1
    60   62    8 1
    61   63   62 1
    62   64   62 1
    63   65    8 1
    64   66   65 1
    65   67   65 1
    66   68   65 1
    67   69   68 ar
    68   70   69 1
    69   71   69 ar
    70   72   71 1
    71   73   71 ar
    72   74   73 1
    73   75   73 ar
    74   76   75 1
    75   77   68 ar
    76   78   77 1
    77   21   23 ar
    78   24   27 1
    79   40   42 ar
    80   56   58 ar
    81   59   62 1
    82   75   77 ar
@<TRIPOS>SUBSTRUCTURE
     1 RES1 1
     2 RES2 3

@<TRIPOS>CRYSIN
  19.4563    7.7135   19.7186  90.0000  92.7540  90.0000 231 1

