# MOL2 file generated by ConQuest
# Please check atom types

@<TRIPOS>MOLECULE
MAFVEV
    61    59     2
SMALL
NO_CHARGES
****
Generated from CSD

@<TRIPOS>ATOM
      1 O1        -3.1530    4.4152    6.8081 O.2       1 RES1    0.0000
      2 O2        -2.5533    6.4538    6.6307 O.2       1 RES1    0.0000
      3 O3        -4.1153    6.6926    9.3303 O.2       1 RES1    0.0000
      4 O4        -1.0935    5.6713   11.8610 O.2       1 RES1    0.0000
      5 O5        -0.3878    3.5635   12.0277 O.3       1 RES1    0.0000
      6 N1        -2.6292    5.4173    7.2136 N.pl3     1 RES1    0.0000
      7 N2        -3.3344    4.9482   10.5596 N.am      1 RES1    0.0000
      8 N3        -4.7551    3.7776   13.7367 N.3       1 RES1    0.0000
      9 N4        -3.7585    1.8637   13.2011 N.2       1 RES1    0.0000
     10 C1         0.6990    4.8239    9.2109 C.ar      1 RES1    0.0000
     11 C2         2.0739    4.4664    9.0807 C.ar      1 RES1    0.0000
     12 C3         2.4743    3.1916    8.8119 C.ar      1 RES1    0.0000
     13 C4         1.5540    2.2040    8.6430 C.ar      1 RES1    0.0000
     14 C5         0.1576    2.4895    8.7000 C.ar      1 RES1    0.0000
     15 C6        -0.1755    3.7975    9.0001 C.ar      1 RES1    0.0000
     16 C7        -1.6482    4.0811    9.1453 C.3       1 RES1    0.0000
     17 C8        -2.1653    5.4061    8.6398 C.3       1 RES1    0.0000
     18 C9        -3.3291    5.8004    9.5077 C.2       1 RES1    0.0000
     19 C10       -4.1672    5.2541   11.7492 C.3       1 RES1    0.0000
     20 C11       -4.1342    3.9792   12.4999 C.2       1 RES1    0.0000
     21 C12       -4.4935    2.5109   14.0659 C.2       1 RES1    0.0000
     22 C13       -3.5505    2.8015   12.2192 C.2       1 RES1    0.0000
     23 C14       -2.7269    2.6191   10.9963 C.3       1 RES1    0.0000
     24 H1        -3.2587    2.2272   10.2864 H         1 RES1    0.0000
     25 H2        -1.9767    2.0330   11.1791 H         1 RES1    0.0000
     26 C15       -2.2400    3.9722   10.5930 C.3       1 RES1    0.0000
     27 C16       -5.4288    4.7755   14.4950 C.3       1 RES1    0.0000
     28 C17       -4.5133    5.7614   15.1080 C.ar      1 RES1    0.0000
     29 C18       -3.1762    5.5955   15.1027 C.ar      1 RES1    0.0000
     30 H3        -2.7988    4.8280   14.7370 H         1 RES1    0.0000
     31 C19       -2.3747    6.5728   15.6426 C.ar      1 RES1    0.0000
     32 H4        -1.4509    6.4723   15.6351 H         1 RES1    0.0000
     33 C20       -4.0297    8.1023   15.5888 C.ar      1 RES1    0.0000
     34 H5        -4.2324    8.9871   15.3855 H         1 RES1    0.0000
     35 C21       -2.9322    7.6875   16.1868 C.ar      1 RES1    0.0000
     36 H6        -2.2469    8.2711   15.9545 H         1 RES1    0.0000
     37 C22       -4.8614    6.9757   15.3027 C.ar      1 RES1    0.0000
     38 C23       -1.1973    4.4897   11.5760 C.2       1 RES1    0.0000
     39 C24        0.7453    4.0026   12.8505 C.3       1 RES1    0.0000
     40 H7         1.5420    2.9885   12.2665 H         1 RES1    0.0000
     41 H8         0.6249    4.4165   13.7615 H         1 RES1    0.0000
     42 H9         1.5253    5.0516   12.0051 H         1 RES1    0.0000
     43 H10        0.1355    6.0428    9.3830 H         1 RES1    0.0000
     44 H11        1.5827    1.1753    8.7441 H         1 RES1    0.0000
     45 H12       -0.7174    1.2747    8.8409 H         1 RES1    0.0000
     46 H13       -2.1012    3.5054    8.7785 H         1 RES1    0.0000
     47 H14       -1.4825    6.2526    8.9388 H         1 RES1    0.0000
     48 H15       -5.0326    2.1121   14.9607 H         1 RES1    0.0000
     49 H16       -5.6676    4.0762   15.0392 H         1 RES1    0.0000
     50 H17       -6.1763    5.3923   13.9013 H         1 RES1    0.0000
     51 H18       -5.7277    7.0038   15.1769 H         1 RES1    0.0000
     52 H19        3.5335    2.5869    8.9269 H         1 RES1    0.0000
     53 H20        2.6887    5.2409    9.2926 H         1 RES1    0.0000
     54 H21       -3.4220    6.0848   12.5945 H         1 RES1    0.0000
     55 H22       -5.3325    6.0387   11.3093 H         1 RES1    0.0000
     56 C25       -3.6434    5.3163   16.2191 Du        2 SUP2    0.0000
     57 H23       -3.6451    4.4409   16.5353 Du        2 SUP2    0.0000
     58 C26       -2.8058    6.3246   16.7676 Du        2 SUP2    0.0000
     59 H24       -2.2076    6.1408   17.4559 Du        2 SUP2    0.0000
     60 C27       -4.2467    7.8888   16.0728 Du        2 SUP2    0.0000
     61 H25       -4.6933    8.5919   16.4858 Du        2 SUP2    0.0000
@<TRIPOS>BOND
     1    1    6 2
     2    2    6 2
     3    3   18 2
     4    4   38 2
     5    5   38 1
     6    6   17 1
     7    7   18 1
     8    8   20 1
     9    9   21 2
    10   10   11 ar
    11   11   12 ar
    12   12   13 ar
    13   13   14 ar
    14   14   15 ar
    15   15   10 ar
    16   16   15 1
    17   17   16 1
    18   18   17 1
    19   19    7 1
    20   20   19 1
    21   21    8 1
    22   22    9 1
    23   23   22 1
    24   24   23 1
    25   25   23 1
    26   26    7 1
    27   27    8 1
    28   28   27 1
    29   29   28 ar
    30   30   29 1
    31   31   29 ar
    32   32   31 1
    33   33   34 1
    34   35   31 ar
    35   36   35 1
    36   37   28 ar
    37   38   26 1
    38   39    5 1
    39   40   39 1
    40   41   39 1
    41   42   39 1
    42   43   10 1
    43   44   13 1
    44   45   14 1
    45   46   16 1
    46   47   17 1
    47   48   21 1
    48   49   27 1
    49   50   27 1
    50   51   37 1
    51   52   12 1
    52   53   11 1
    53   54   19 1
    54   55   19 1
    55   16   26 1
    56   20   22 2
    57   23   26 1
    58   33   35 ar
    59   33   37 ar
@<TRIPOS>SUBSTRUCTURE
     1 RES1 1
     2 SUP2 56

@<TRIPOS>CRYSIN
   9.0680   11.6150   11.7740 107.3600 100.3500 106.6300   2 1

