# MOL2 file generated by ConQuest
# Please check atom types

@<TRIPOS>MOLECULE
MAFVIZ
    85    92     1
SMALL
NO_CHARGES
****
Generated from CSD

@<TRIPOS>ATOM
      1 O1         5.8205   -0.9364    1.1924 O.2       1 RES1    0.0000
      2 O2         7.0873    0.4027    2.2820 O.2       1 RES1    0.0000
      3 O3         4.6940   -0.4757    4.4834 O.2       1 RES1    0.0000
      4 O4         2.7559    2.6510    3.8111 O.2       1 RES1    0.0000
      5 O5         1.2186    2.9828    2.2466 O.3       1 RES1    0.0000
      6 N1         3.7050    3.7077   -1.0549 N.pl3     1 RES1    0.0000
      7 N2         4.7760    3.1295    0.7964 N.2       1 RES1    0.0000
      8 N3         5.9995    0.0255    1.9036 N.pl3     1 RES1    0.0000
      9 N4         2.8039   -0.0182    3.2730 N.am      1 RES1    0.0000
     10 N5        -0.6746   -0.7023    4.3433 N.3       1 RES1    0.0000
     11 N6        -1.1839   -0.1019    2.2514 N.2       1 RES1    0.0000
     12 C1         3.2943    4.4553   -2.2829 C.3       1 RES1    0.0000
     13 C2         1.7608    4.2989   -2.3984 C.ar      1 RES1    0.0000
     14 C3         0.9734    4.3292   -1.2708 C.ar      1 RES1    0.0000
     15 C4        -0.4092    4.2067   -1.3620 C.ar      1 RES1    0.0000
     16 C5        -1.0110    4.0551   -2.5807 C.ar      1 RES1    0.0000
     17 C6        -0.2598    4.0514   -3.6929 C.ar      1 RES1    0.0000
     18 C7         1.1234    4.1703   -3.6169 C.ar      1 RES1    0.0000
     19 C8         3.6968    5.9376   -2.0808 C.ar      1 RES1    0.0000
     20 C9         2.7780    6.9032   -1.7016 C.ar      1 RES1    0.0000
     21 C10        3.1958    8.2108   -1.4428 C.ar      1 RES1    0.0000
     22 C11        4.5137    8.5638   -1.5738 C.ar      1 RES1    0.0000
     23 C12        5.4201    7.6225   -1.9742 C.ar      1 RES1    0.0000
     24 C13        5.0219    6.3246   -2.2388 C.ar      1 RES1    0.0000
     25 C14        4.0147    3.8658   -3.4950 C.ar      1 RES1    0.0000
     26 C15        4.0033    4.5488   -4.7117 C.ar      1 RES1    0.0000
     27 C16        4.5626    3.9968   -5.8413 C.ar      1 RES1    0.0000
     28 C17        5.1693    2.7535   -5.7870 C.ar      1 RES1    0.0000
     29 C18        5.2236    2.0924   -4.5988 C.ar      1 RES1    0.0000
     30 C19        4.6549    2.6261   -3.4561 C.ar      1 RES1    0.0000
     31 C20        4.6528    4.0308   -0.1534 C.2       1 RES1    0.0000
     32 C21        3.2294    2.4685   -0.6610 C.2       1 RES1    0.0000
     33 C22        3.8780    2.1494    0.4755 C.2       1 RES1    0.0000
     34 C23        3.7027    0.9449    1.3486 C.3       1 RES1    0.0000
     35 C24        4.7915    0.7739    2.3930 C.3       1 RES1    0.0000
     36 C25        4.1341    0.0085    3.5209 C.2       1 RES1    0.0000
     37 C26        1.8613   -0.4500    4.3055 C.3       1 RES1    0.0000
     38 C27        0.5055   -0.3894    3.7103 C.2       1 RES1    0.0000
     39 C28       -1.6362   -0.5022    3.4083 C.2       1 RES1    0.0000
     40 C29        0.1774   -0.0364    2.4525 C.2       1 RES1    0.0000
     41 C30        1.1943    0.3603    1.4348 C.3       1 RES1    0.0000
     42 C31        2.4042    0.9037    2.1879 C.3       1 RES1    0.0000
     43 C32        2.1469    2.2695    2.8520 C.2       1 RES1    0.0000
     44 C33        0.9187    4.2734    2.8783 C.3       1 RES1    0.0000
     45 C34       -0.8618   -1.0832    5.7305 C.3       1 RES1    0.0000
     46 C35       -0.6723    0.0667    6.6955 C.ar      1 RES1    0.0000
     47 C36       -0.3047   -0.2038    8.0006 C.ar      1 RES1    0.0000
     48 C37       -0.2081    0.7994    8.9282 C.ar      1 RES1    0.0000
     49 C38       -0.4633    2.0949    8.5676 C.ar      1 RES1    0.0000
     50 C39       -0.7998    2.3957    7.2881 C.ar      1 RES1    0.0000
     51 C40       -0.9056    1.3840    6.3366 C.ar      1 RES1    0.0000
     52 H1         1.3412    4.3814   -0.3954 H         1 RES1    0.0000
     53 H2        -0.8154    4.2164   -0.5257 H         1 RES1    0.0000
     54 H3        -1.9697    3.9459   -2.5981 H         1 RES1    0.0000
     55 H4        -0.6863    3.9410   -4.6248 H         1 RES1    0.0000
     56 H5         1.6578    4.1497   -4.4445 H         1 RES1    0.0000
     57 H6         1.8222    6.7212   -1.6357 H         1 RES1    0.0000
     58 H7         2.5052    8.8234   -1.2621 H         1 RES1    0.0000
     59 H8         4.7917    9.5281   -1.3664 H         1 RES1    0.0000
     60 H9         6.3854    7.8602   -2.0898 H         1 RES1    0.0000
     61 H10        5.6831    5.6332   -2.5199 H         1 RES1    0.0000
     62 H11        3.5648    5.3772   -4.6878 H         1 RES1    0.0000
     63 H12        4.5555    4.4117   -6.6907 H         1 RES1    0.0000
     64 H13        5.5418    2.3556   -6.6190 H         1 RES1    0.0000
     65 H14        5.6692    1.2555   -4.5466 H         1 RES1    0.0000
     66 H15        4.7177    2.1046   -2.5546 H         1 RES1    0.0000
     67 H16        5.1489    4.8629   -0.2064 H         1 RES1    0.0000
     68 H17        2.5297    2.0172   -1.0970 H         1 RES1    0.0000
     69 H18        3.7306    0.1310    0.7972 H         1 RES1    0.0000
     70 H19        5.1217    1.5672    2.7284 H         1 RES1    0.0000
     71 H20        2.1583   -1.3561    4.5944 H         1 RES1    0.0000
     72 H21        1.9391    0.1019    5.1983 H         1 RES1    0.0000
     73 H22       -2.4705   -0.5398    3.6038 H         1 RES1    0.0000
     74 H23        0.8762    1.0371    0.8624 H         1 RES1    0.0000
     75 H24        1.5859   -0.5798    0.7690 H         1 RES1    0.0000
     76 H25        1.6603    4.7283    3.1216 H         1 RES1    0.0000
     77 H26        0.2871    4.6640    2.3526 H         1 RES1    0.0000
     78 H27        0.0585    4.0357    3.5800 H         1 RES1    0.0000
     79 H28       -1.7478   -1.4228    5.7892 H         1 RES1    0.0000
     80 H29       -0.1707   -1.8814    5.9521 H         1 RES1    0.0000
     81 H30       -0.1512   -1.1815    8.2070 H         1 RES1    0.0000
     82 H31        0.0247    0.6720    9.8992 H         1 RES1    0.0000
     83 H32       -0.4428    2.8227    9.2649 H         1 RES1    0.0000
     84 H33       -0.9631    3.3382    6.9883 H         1 RES1    0.0000
     85 H34       -1.1545    1.5284    5.4155 H         1 RES1    0.0000
@<TRIPOS>BOND
     1    1    8 2
     2    2    8 2
     3    3   36 2
     4    4   43 2
     5    5   43 1
     6    6   12 1
     7    7   31 2
     8    8   35 1
     9    9   36 1
    10   10   38 1
    11   11   39 2
    12   12   13 1
    13   13   14 ar
    14   14   15 ar
    15   15   16 ar
    16   16   17 ar
    17   17   18 ar
    18   18   13 ar
    19   19   12 1
    20   20   19 ar
    21   21   20 ar
    22   22   21 ar
    23   23   22 ar
    24   24   19 ar
    25   25   12 1
    26   26   25 ar
    27   27   26 ar
    28   28   27 ar
    29   29   28 ar
    30   30   25 ar
    31   31    6 1
    32   32    6 1
    33   33    7 1
    34   34   33 1
    35   35   34 1
    36   36   35 1
    37   37    9 1
    38   38   37 1
    39   39   10 1
    40   40   11 1
    41   41   40 1
    42   42    9 1
    43   43   42 1
    44   44    5 1
    45   45   10 1
    46   46   45 1
    47   47   46 ar
    48   48   47 ar
    49   49   48 ar
    50   50   49 ar
    51   51   46 ar
    52   52   14 1
    53   53   15 1
    54   54   16 1
    55   55   17 1
    56   56   18 1
    57   57   20 1
    58   58   21 1
    59   59   22 1
    60   60   23 1
    61   61   24 1
    62   62   26 1
    63   63   27 1
    64   64   28 1
    65   65   29 1
    66   66   30 1
    67   67   31 1
    68   68   32 1
    69   69   34 1
    70   70   35 1
    71   71   37 1
    72   72   37 1
    73   73   39 1
    74   74   41 1
    75   75   41 1
    76   76   44 1
    77   77   44 1
    78   78   44 1
    79   79   45 1
    80   80   45 1
    81   81   47 1
    82   82   48 1
    83   83   49 1
    84   84   50 1
    85   85   51 1
    86   23   24 ar
    87   29   30 ar
    88   32   33 2
    89   34   42 1
    90   38   40 2
    91   41   42 1
    92   50   51 ar
@<TRIPOS>SUBSTRUCTURE
     1 RES1 1

@<TRIPOS>CRYSIN
  13.1310   12.1300   22.2300  90.0000 102.2600  90.0000 231 1

