# MOL2 file generated by ConQuest
# Please check atom types

@<TRIPOS>MOLECULE
MAFWIC
    47    50     1
SMALL
NO_CHARGES
****
Generated from CSD

@<TRIPOS>ATOM
      1 O1         2.9909    0.4188   13.0752 O.3       1 RES1    0.0000
      2 O2         8.0921    2.5326    7.7357 O.3       1 RES1    0.0000
      3 N1         4.0546    0.3682   12.1384 N.2       1 RES1    0.0000
      4 N2         0.6035   -0.3532   14.0924 N.3       1 RES1    0.0000
      5 H1         1.2219   -0.5541   13.5301 H         1 RES1    0.0000
      6 C1         2.5641    1.7072   13.2050 C.2       1 RES1    0.0000
      7 C2         3.3171    2.5116   12.4030 C.2       1 RES1    0.0000
      8 C3         4.2350    1.6243   11.7654 C.2       1 RES1    0.0000
      9 C4         1.4446    1.9519   14.1287 C.ar      1 RES1    0.0000
     10 C5         1.2878    3.2522   14.6364 C.ar      1 RES1    0.0000
     11 H2         1.9037    3.9058   14.3961 H         1 RES1    0.0000
     12 C6         0.2476    3.5948   15.4824 C.ar      1 RES1    0.0000
     13 H3         0.1653    4.4640   15.8029 H         1 RES1    0.0000
     14 C7        -0.6700    2.6199   15.8434 C.ar      1 RES1    0.0000
     15 H4        -1.3781    2.8401   16.4051 H         1 RES1    0.0000
     16 C8        -0.5450    1.3244   15.3804 C.ar      1 RES1    0.0000
     17 H5        -1.1727    0.6873   15.6362 H         1 RES1    0.0000
     18 C9         0.5120    0.9469   14.5290 C.ar      1 RES1    0.0000
     19 C10       -0.2984   -1.4030   14.5386 C.3       1 RES1    0.0000
     20 H6        -0.0572   -2.2321   14.1193 H         1 RES1    0.0000
     21 H7        -1.1990   -1.1736   14.3006 H         1 RES1    0.0000
     22 H8        -0.2328   -1.4962   15.4921 H         1 RES1    0.0000
     23 C11        3.2189    3.9751   12.1707 C.ar      1 RES1    0.0000
     24 C12        2.0789    4.5263   11.5718 C.ar      1 RES1    0.0000
     25 H9         1.3593    3.9761   11.3609 H         1 RES1    0.0000
     26 C13        2.0114    5.8825   11.2896 C.ar      1 RES1    0.0000
     27 H10        1.2490    6.2380   10.8930 H         1 RES1    0.0000
     28 C14        3.0824    6.7049   11.5972 C.ar      1 RES1    0.0000
     29 H11        3.0399    7.6133   11.4013 H         1 RES1    0.0000
     30 C15        4.2181    6.1813   12.1994 C.ar      1 RES1    0.0000
     31 H12        4.9360    6.7360   12.4034 H         1 RES1    0.0000
     32 C16        4.2804    4.8205   12.4963 C.ar      1 RES1    0.0000
     33 H13        5.0349    4.4742   12.9149 H         1 RES1    0.0000
     34 C17        5.2800    1.8960   10.7447 C.ar      1 RES1    0.0000
     35 C18        5.1645    2.9439    9.8201 C.ar      1 RES1    0.0000
     36 H14        4.4384    3.5230    9.8699 H         1 RES1    0.0000
     37 C19        6.1150    3.1250    8.8357 C.ar      1 RES1    0.0000
     38 H15        6.0282    3.8255    8.2301 H         1 RES1    0.0000
     39 C20        7.2013    2.2627    8.7473 C.ar      1 RES1    0.0000
     40 C21        7.3484    1.2194    9.6642 C.ar      1 RES1    0.0000
     41 H16        8.0767    0.6439    9.6125 H         1 RES1    0.0000
     42 C22        6.3866    1.0557   10.6585 C.ar      1 RES1    0.0000
     43 H17        6.4859    0.3690   11.2783 H         1 RES1    0.0000
     44 C23        9.0709    1.5461    7.4255 C.3       1 RES1    0.0000
     45 H18        9.5604    1.8156    6.6452 H         1 RES1    0.0000
     46 H19        8.6368    0.7066    7.2572 H         1 RES1    0.0000
     47 H20        9.6748    1.4516    8.1653 H         1 RES1    0.0000
@<TRIPOS>BOND
     1    1    3 1
     2    2   39 1
     3    3    8 2
     4    4    5 1
     5    6    1 1
     6    7    6 2
     7    8    7 1
     8    9    6 1
     9   10    9 ar
    10   11   10 1
    11   12   10 ar
    12   13   12 1
    13   14   12 ar
    14   15   14 1
    15   16   14 ar
    16   17   16 1
    17   18    4 1
    18   19    4 1
    19   20   19 1
    20   21   19 1
    21   22   19 1
    22   23    7 1
    23   24   23 ar
    24   25   24 1
    25   26   24 ar
    26   27   26 1
    27   28   26 ar
    28   29   28 1
    29   30   28 ar
    30   31   30 1
    31   32   23 ar
    32   33   32 1
    33   34    8 1
    34   35   34 ar
    35   36   35 1
    36   37   35 ar
    37   38   37 1
    38   39   37 ar
    39   40   39 ar
    40   41   40 1
    41   42   34 ar
    42   43   42 1
    43   44    2 1
    44   45   44 1
    45   46   44 1
    46   47   44 1
    47    9   18 ar
    48   16   18 ar
    49   30   32 ar
    50   40   42 ar
@<TRIPOS>SUBSTRUCTURE
     1 RES1 1

@<TRIPOS>CRYSIN
   6.1840    9.2360   16.2220  89.4080  86.3010  82.7190   2 1

