# MOL2 file generated by ConQuest
# Please check atom types

@<TRIPOS>MOLECULE
MAGPOC
    42    45     1
SMALL
NO_CHARGES
****
Generated from CSD

@<TRIPOS>ATOM
      1 C1         3.6041    6.0494    0.2591 C.ar      1 RES1    0.0000
      2 C2         4.4979    7.0932    0.4457 C.ar      1 RES1    0.0000
      3 C3         4.5712    8.1489   -0.5249 C.ar      1 RES1    0.0000
      4 C4         5.3923    9.2901   -0.3627 C.ar      1 RES1    0.0000
      5 H1         5.9639    9.3478    0.3951 H         1 RES1    0.0000
      6 C5         5.3828   10.3159   -1.2746 C.ar      1 RES1    0.0000
      7 H2         5.9363   11.0758   -1.1331 H         1 RES1    0.0000
      8 C6         4.5618   10.2528   -2.4179 C.ar      1 RES1    0.0000
      9 H3         4.5735   10.9582   -3.0535 H         1 RES1    0.0000
     10 C7         3.7472    9.1667   -2.6053 C.ar      1 RES1    0.0000
     11 H4         3.1948    9.1250   -3.3763 H         1 RES1    0.0000
     12 C8         3.7179    8.1109   -1.6710 C.ar      1 RES1    0.0000
     13 C9         2.8447    7.0013   -1.8324 C.ar      1 RES1    0.0000
     14 H5         2.2878    6.9541   -2.6014 H         1 RES1    0.0000
     15 C10        2.7906    6.0087   -0.9093 C.ar      1 RES1    0.0000
     16 H6         2.2001    5.2754   -1.0440 H         1 RES1    0.0000
     17 C11        2.4011    4.2363    1.4562 C.ar      1 RES1    0.0000
     18 C12        1.1107    4.7785    1.3896 C.ar      1 RES1    0.0000
     19 H7         0.9828    5.6732    1.0962 H         1 RES1    0.0000
     20 C13        0.0220    4.0041    1.7527 C.ar      1 RES1    0.0000
     21 H8        -0.8536    4.3677    1.6882 H         1 RES1    0.0000
     22 C14        0.1898    2.7047    2.2094 C.ar      1 RES1    0.0000
     23 H9        -0.5614    2.1866    2.4738 H         1 RES1    0.0000
     24 C15        1.4605    2.1756    2.2747 C.ar      1 RES1    0.0000
     25 H10        1.5833    1.2864    2.5845 H         1 RES1    0.0000
     26 C16        2.5608    2.9288    1.8922 C.ar      1 RES1    0.0000
     27 H11        3.4304    2.5468    1.9296 H         1 RES1    0.0000
     28 C17        5.3429    7.1352    1.6745 C.ar      1 RES1    0.0000
     29 C18        6.7360    7.2425    1.5975 C.ar      1 RES1    0.0000
     30 H12        7.1573    7.2610    0.7457 H         1 RES1    0.0000
     31 C19        7.5102    7.3220    2.7452 C.ar      1 RES1    0.0000
     32 H13        8.4569    7.4012    2.6875 H         1 RES1    0.0000
     33 C20        6.8776    7.2835    3.9767 C.ar      1 RES1    0.0000
     34 C21        5.5060    7.1571    4.1034 C.ar      1 RES1    0.0000
     35 H14        5.0944    7.1236    4.9600 H         1 RES1    0.0000
     36 C22        4.7482    7.0811    2.9442 C.ar      1 RES1    0.0000
     37 H15        3.8051    6.9904    3.0120 H         1 RES1    0.0000
     38 N1         3.5392    4.9889    1.1654 N.pl3     1 RES1    0.0000
     39 N2         7.7056    7.3676    5.1849 N.pl3     1 RES1    0.0000
     40 O1         8.9271    7.3752    5.0476 O.2       1 RES1    0.0000
     41 O2         7.1394    7.4281    6.2758 O.2       1 RES1    0.0000
     42 H16        4.3059    4.7436    1.5237 H         1 RES1    0.0000
@<TRIPOS>BOND
     1    1    2 ar
     2    2    3 ar
     3    3    4 ar
     4    4    5 1
     5    6    4 ar
     6    7    6 1
     7    8    6 ar
     8    9    8 1
     9   10    8 ar
    10   11   10 1
    11   12    3 ar
    12   13   12 ar
    13   14   13 1
    14   15    1 ar
    15   16   15 1
    16   17   18 ar
    17   18   19 1
    18   20   18 ar
    19   21   20 1
    20   22   20 ar
    21   23   22 1
    22   24   22 ar
    23   25   24 1
    24   26   17 ar
    25   27   26 1
    26   28    2 1
    27   29   28 ar
    28   30   29 1
    29   31   29 ar
    30   32   31 1
    31   33   31 ar
    32   34   33 ar
    33   35   34 1
    34   36   28 ar
    35   37   36 1
    36   38    1 1
    37   39   33 1
    38   40   39 2
    39   41   39 2
    40   42   38 1
    41   10   12 ar
    42   13   15 ar
    43   17   38 1
    44   24   26 ar
    45   34   36 ar
@<TRIPOS>SUBSTRUCTURE
     1 RES1 1

@<TRIPOS>CRYSIN
  31.9236    6.8352   15.4850  90.0000  96.8340  90.0000  15 1

