# MOL2 file generated by ConQuest
# Please check atom types

@<TRIPOS>MOLECULE
MAGVOH
    55    56     1
SMALL
NO_CHARGES
****
Generated from CSD

@<TRIPOS>ATOM
      1 O1         3.7345    0.0814    0.2926 O.3       1 RES1    0.0000
      2 O2         6.4015   -3.6771    2.7124 O.3       1 RES1    0.0000
      3 O3         1.3975    0.2818    1.8540 O.3       1 RES1    0.0000
      4 O4         7.3824   -1.7959    1.8972 O.2       1 RES1    0.0000
      5 O5        -0.1063   -1.3871    1.8486 O.2       1 RES1    0.0000
      6 O6         2.3006    0.1518    4.3849 O.3       1 RES1    0.0000
      7 O7         4.1211   -2.6006    2.8603 O.3       1 RES1    0.0000
      8 N1         5.1400   -1.8802    2.1660 N.am      1 RES1    0.0000
      9 C1         6.4166   -2.4239    2.2751 C.2       1 RES1    0.0000
     10 O8         4.9205    1.9953    0.2764 O.2       1 RES1    0.0000
     11 O9         1.0240   -0.9257    5.8761 O.2       1 RES1    0.0000
     12 C2         3.6478   -1.8911    4.0416 C.3       1 RES1    0.0000
     13 H1         3.3332   -2.5767    4.6981 H         1 RES1    0.0000
     14 C3         5.0518   -0.4167    2.3053 C.3       1 RES1    0.0000
     15 H2         5.7929   -0.0159    1.7654 H         1 RES1    0.0000
     16 C4         3.7308    0.1062    1.7395 C.3       1 RES1    0.0000
     17 H3         3.6238    1.0567    2.0310 H         1 RES1    0.0000
     18 C5         2.4232   -1.0646    3.6140 C.3       1 RES1    0.0000
     19 H4         1.6027   -1.6173    3.7619 H         1 RES1    0.0000
     20 C6         1.4737    0.1072    5.4615 C.2       1 RES1    0.0000
     21 C7         2.4707   -0.6549    2.1466 C.3       1 RES1    0.0000
     22 H5         2.3707   -1.4665    1.5711 H         1 RES1    0.0000
     23 C8         4.7764   -1.1212    4.6981 C.3       1 RES1    0.0000
     24 H6         5.5186   -1.7403    4.9119 H         1 RES1    0.0000
     25 H7         4.4560   -0.7203    5.5446 H         1 RES1    0.0000
     26 C9         0.1356   -0.2103    1.7708 C.2       1 RES1    0.0000
     27 C10        4.3355    1.1331   -0.3142 C.2       1 RES1    0.0000
     28 C11        5.2805   -0.0238    3.7760 C.3       1 RES1    0.0000
     29 H8         6.2471    0.1250    3.9336 H         1 RES1    0.0000
     30 H9         4.8041    0.8205    3.9725 H         1 RES1    0.0000
     31 C12       -0.8399    0.8860    1.5689 C.3       1 RES1    0.0000
     32 H10       -0.3658    1.7423    1.5225 H         1 RES1    0.0000
     33 H11       -1.4723    0.9039    2.3172 H         1 RES1    0.0000
     34 H12       -1.3295    0.7382    0.7321 H         1 RES1    0.0000
     35 C13        8.3530   -4.5998    1.5387 C.3       1 RES1    0.0000
     36 H13        7.7366   -5.0533    0.9254 H         1 RES1    0.0000
     37 H14        9.1617   -5.1416    1.6477 H         1 RES1    0.0000
     38 H15        8.5920   -3.7237    1.1726 H         1 RES1    0.0000
     39 C14        1.2452    1.4714    6.0003 C.3       1 RES1    0.0000
     40 H16        1.7462    2.1223    5.4647 H         1 RES1    0.0000
     41 H17        1.5514    1.5111    6.9300 H         1 RES1    0.0000
     42 H18        0.2902    1.6828    5.9614 H         1 RES1    0.0000
     43 C15        7.6801   -4.4183    2.8873 C.3       1 RES1    0.0000
     44 C16        8.5506   -3.7287    3.8969 C.3       1 RES1    0.0000
     45 H19        8.8325   -2.8575    3.5460 H         1 RES1    0.0000
     46 H20        9.3419   -4.2794    4.0772 H         1 RES1    0.0000
     47 H21        8.0473   -3.5987    4.7283 H         1 RES1    0.0000
     48 C17        7.1983   -5.7657    3.4142 C.3       1 RES1    0.0000
     49 H22        6.6354   -6.1973    2.7383 H         1 RES1    0.0000
     50 H23        6.6776   -5.6288    4.2327 H         1 RES1    0.0000
     51 H24        7.9717   -6.3352    3.6086 H         1 RES1    0.0000
     52 C18        4.1397    1.0557   -1.8021 C.3       1 RES1    0.0000
     53 H25        3.6581    0.2312   -2.0246 H         1 RES1    0.0000
     54 H26        5.0124    1.0537   -2.2470 H         1 RES1    0.0000
     55 H27        3.6209    1.8296   -2.1034 H         1 RES1    0.0000
@<TRIPOS>BOND
     1    1   16 1
     2    2    9 1
     3    3   21 1
     4    4    9 2
     5    5   26 2
     6    6   18 1
     7    7    8 1
     8    8    9 1
     9   10   27 2
    10   11   20 2
    11   12    7 1
    12   13   12 1
    13   14    8 1
    14   15   14 1
    15   16   14 1
    16   17   16 1
    17   18   12 1
    18   19   18 1
    19   20    6 1
    20   21   16 1
    21   22   21 1
    22   23   12 1
    23   24   23 1
    24   25   23 1
    25   26    3 1
    26   27    1 1
    27   28   14 1
    28   29   28 1
    29   30   28 1
    30   31   26 1
    31   32   31 1
    32   33   31 1
    33   34   31 1
    34   35   36 1
    35   37   35 1
    36   38   35 1
    37   39   20 1
    38   40   39 1
    39   41   39 1
    40   42   39 1
    41   43    2 1
    42   44   43 1
    43   45   44 1
    44   46   44 1
    45   47   44 1
    46   48   43 1
    47   49   48 1
    48   50   48 1
    49   51   48 1
    50   52   27 1
    51   53   52 1
    52   54   52 1
    53   55   52 1
    54   18   21 1
    55   23   28 1
    56   35   43 1
@<TRIPOS>SUBSTRUCTURE
     1 RES1 1

@<TRIPOS>CRYSIN
  18.4320    9.9220   10.8403  90.0000  95.0810  90.0000  14 1

