# MOL2 file generated by ConQuest
# Please check atom types

@<TRIPOS>MOLECULE
MAHHUZ
    46    41     2
SMALL
NO_CHARGES
****
Generated from CSD

@<TRIPOS>ATOM
      1 O1         4.7957    2.4779    4.9100 O.2       1 RES1    0.0000
      2 O2         5.3328    1.6300    2.9955 O.2       1 RES1    0.0000
      3 N1         2.5208    0.1904    2.8165 N.2       1 RES1    0.0000
      4 N2         4.5487    2.1757    3.7535 N.pl3     1 RES1    0.0000
      5 C1         2.3302    1.5979    2.7457 C.ar      1 RES1    0.0000
      6 C2         1.1497    2.0539    2.1421 C.ar      1 RES1    0.0000
      7 C3         0.9369    3.4237    2.0472 C.ar      1 RES1    0.0000
      8 H1         0.1560    3.7218    1.6397 H         1 RES1    0.0000
      9 C4         1.8261    4.3661    2.5285 C.ar      1 RES1    0.0000
     10 C5         2.9975    3.9105    3.1285 C.ar      1 RES1    0.0000
     11 H2         3.6157    4.5168    3.4674 H         1 RES1    0.0000
     12 C6         3.2342    2.5601    3.2179 C.ar      1 RES1    0.0000
     13 C7         0.1058    1.0995    1.6351 C.3       1 RES1    0.0000
     14 H3         0.4040    0.1974    1.7723 H         1 RES1    0.0000
     15 H4        -0.0379    1.2499    0.6982 H         1 RES1    0.0000
     16 H5        -0.7157    1.2415    2.1118 H         1 RES1    0.0000
     17 H6        -0.6370    1.5957    1.2830 Du        2 SUP2    0.0000
     18 H7        -0.1948    0.5417    2.3564 Du        2 SUP2    0.0000
     19 H8         0.4821    0.5515    0.9428 Du        2 SUP2    0.0000
     20 C8         1.5513    5.8362    2.3874 C.3       1 RES1    0.0000
     21 H9         2.2738    6.3350    2.7751 H         1 RES1    0.0000
     22 H10        0.7330    6.0537    2.8404 H         1 RES1    0.0000
     23 H11        1.4706    6.0593    1.4571 H         1 RES1    0.0000
     24 H12        0.7115    5.9627    1.9397 Du        2 SUP2    0.0000
     25 H13        2.2520    6.2455    1.8751 Du        2 SUP2    0.0000
     26 H14        1.5139    6.2399    3.2577 Du        2 SUP2    0.0000
     27 N1B        3.2286   -0.1904    3.7767 N.2       1 RES1    0.0000
     28 C1B        3.4192   -1.5979    3.8475 C.ar      1 RES1    0.0000
     29 C2B        4.5997   -2.0539    4.4511 C.ar      1 RES1    0.0000
     30 C3B        4.8126   -3.4237    4.5460 C.ar      1 RES1    0.0000
     31 H1B        5.5935   -3.7218    4.9535 H         1 RES1    0.0000
     32 C4B        3.9234   -4.3661    4.0647 C.ar      1 RES1    0.0000
     33 C5B        2.7519   -3.9105    3.4647 C.ar      1 RES1    0.0000
     34 H2B        2.1337   -4.5168    3.1258 H         1 RES1    0.0000
     35 C6B        2.5152   -2.5601    3.3753 C.ar      1 RES1    0.0000
     36 N2B        1.2007   -2.1757    2.8397 N.pl3     1 RES1    0.0000
     37 O1B        0.9537   -2.4779    1.6832 O.2       1 RES1    0.0000
     38 O2B        0.4166   -1.6300    3.5977 O.2       1 RES1    0.0000
     39 C8B        4.1981   -5.8362    4.2058 C.3       1 RES1    0.0000
     40 H9B        3.4756   -6.3350    3.8181 H         1 RES1    0.0000
     41 H10B       5.0164   -6.0537    3.7528 H         1 RES1    0.0000
     42 H11B       4.2789   -6.0593    5.1361 H         1 RES1    0.0000
     43 C7B        5.6436   -1.0995    4.9581 C.3       1 RES1    0.0000
     44 H3B        5.3455   -0.1974    4.8209 H         1 RES1    0.0000
     45 H4B        5.7873   -1.2499    5.8950 H         1 RES1    0.0000
     46 H5B        6.4651   -1.2415    4.4814 H         1 RES1    0.0000
@<TRIPOS>BOND
     1    1    4 2
     2    2    4 2
     3    3    5 1
     4    4   12 1
     5    5    6 ar
     6    6    7 ar
     7    7    8 1
     8    9    7 ar
     9   10    9 ar
    10   11   10 1
    11   12    5 ar
    12   13    6 1
    13   14   13 1
    14   15   13 1
    15   16   13 1
    16   20    9 1
    17   21   20 1
    18   22   20 1
    19   23   20 1
    20   27    3 2
    21   28   27 1
    22   29   28 ar
    23   30   29 ar
    24   31   30 1
    25   32   30 ar
    26   33   32 ar
    27   34   33 1
    28   35   28 ar
    29   36   35 1
    30   37   36 2
    31   38   36 2
    32   39   32 1
    33   40   39 1
    34   41   39 1
    35   42   39 1
    36   43   29 1
    37   44   43 1
    38   45   43 1
    39   46   43 1
    40   10   12 ar
    41   33   35 ar
@<TRIPOS>SUBSTRUCTURE
     1 RES1 1
     2 SUP2 17

@<TRIPOS>CRYSIN
   8.5440   13.9970    7.1610  90.0000 112.9700  90.0000  14 1

