# MOL2 file generated by ConQuest
# Please check atom types

@<TRIPOS>MOLECULE
MAJPIW
    66    70     2
SMALL
NO_CHARGES
****
Generated from CSD

@<TRIPOS>ATOM
      1 O1        -0.3535    3.9168   10.6922 O.3       1 RES1    0.0000
      2 O2        -3.5108    3.2247   10.9919 O.2       1 RES1    0.0000
      3 O3        -2.7031    1.5374    9.9250 O.2       1 RES1    0.0000
      4 N1        -2.8428    2.7343   10.1086 N.pl3     1 RES1    0.0000
      5 C1         0.0861    4.3321    8.2888 C.ar      1 RES1    0.0000
      6 C2         0.1641    5.7331    8.3648 C.ar      1 RES1    0.0000
      7 C3        -0.4231    6.5116    9.4016 C.ar      1 RES1    0.0000
      8 C4        -0.3610    7.8673    9.4073 C.ar      1 RES1    0.0000
      9 C5         0.3033    8.5582    8.3691 C.ar      1 RES1    0.0000
     10 C6         0.8828    7.8848    7.3825 C.ar      1 RES1    0.0000
     11 C7         0.8479    6.4541    7.3251 C.ar      1 RES1    0.0000
     12 C8         1.4204    5.7591    6.2868 C.ar      1 RES1    0.0000
     13 C9         1.3492    4.3864    6.1721 C.ar      1 RES1    0.0000
     14 C10        1.9218    3.6937    5.0894 C.ar      1 RES1    0.0000
     15 C11        1.8268    2.3532    4.9690 C.ar      1 RES1    0.0000
     16 C12        1.1092    1.6250    5.9312 C.ar      1 RES1    0.0000
     17 C13        0.5500    2.2299    6.9981 C.ar      1 RES1    0.0000
     18 C14        0.6396    3.6398    7.1946 C.ar      1 RES1    0.0000
     19 C15       -0.6396    3.5257    9.3600 C.3       1 RES1    0.0000
     20 C16       -2.1303    3.6519    9.1693 C.3       1 RES1    0.0000
     21 O4         4.3865    0.2335   11.0894 O.3       2 RES2    0.0000
     22 O5         2.3184    2.9150   11.5297 O.2       2 RES2    0.0000
     23 O6         1.2976    1.2322   10.6922 O.2       2 RES2    0.0000
     24 N2         2.0545    1.7336   11.5010 N.pl3     2 RES2    0.0000
     25 C17        4.7743    0.0449   13.5316 C.ar      2 RES2    0.0000
     26 C18        4.7416   -1.3711   13.5933 C.ar      2 RES2    0.0000
     27 C19        4.0218   -2.1865   12.6812 C.ar      2 RES2    0.0000
     28 C20        3.9914   -3.5423   12.8046 C.ar      2 RES2    0.0000
     29 C21        4.7193   -4.1912   13.8328 C.ar      2 RES2    0.0000
     30 C22        5.4093   -3.4585   14.7204 C.ar      2 RES2    0.0000
     31 C23        5.4368   -2.0375   14.6559 C.ar      2 RES2    0.0000
     32 C24        6.0742   -1.2809   15.6153 C.ar      2 RES2    0.0000
     33 C25        6.0556    0.0959   15.6282 C.ar      2 RES2    0.0000
     34 C26        6.6802    0.8554   16.6535 C.ar      2 RES2    0.0000
     35 C27        6.6454    2.1915   16.6650 C.ar      2 RES2    0.0000
     36 C28        5.9814    2.8861   15.6311 C.ar      2 RES2    0.0000
     37 C29        5.3829    2.2162   14.6272 C.ar      2 RES2    0.0000
     38 C30        5.3854    0.7908   14.5555 C.ar      2 RES2    0.0000
     39 C31        4.1378    0.7909   12.3744 C.3       2 RES2    0.0000
     40 C32        2.6508    0.8654   12.5651 C.3       2 RES2    0.0000
     41 H1         0.4627    3.8582   10.8285 H         1 RES1    0.0000
     42 H2        -0.8677    6.0727   10.1043 H         1 RES1    0.0000
     43 H3        -0.7634    8.3498   10.1071 H         1 RES1    0.0000
     44 H4         0.3357    9.4977    8.3777 H         1 RES1    0.0000
     45 H5         1.3275    8.3599    6.7041 H         1 RES1    0.0000
     46 H6         1.8824    6.2404    5.6243 H         1 RES1    0.0000
     47 H7         2.3845    4.1788    4.4298 H         1 RES1    0.0000
     48 H8         2.2368    1.9112    4.2476 H         1 RES1    0.0000
     49 H9         1.0169    0.6951    5.8294 H         1 RES1    0.0000
     50 H10        0.0890    1.7078    7.6291 H         1 RES1    0.0000
     51 H11       -0.3911    2.5737    9.2553 H         1 RES1    0.0000
     52 H12       -2.4077    4.5768    9.3370 H         1 RES1    0.0000
     53 H13       -2.3645    3.4257    8.2457 H         1 RES1    0.0000
     54 H14        5.2050    0.1821   10.9647 H         2 RES2    0.0000
     55 H15        3.5557   -1.7803   11.9728 H         2 RES2    0.0000
     56 H16        3.4823   -4.0530   12.2008 H         2 RES2    0.0000
     57 H17        4.7181   -5.1290   13.8944 H         2 RES2    0.0000
     58 H18        5.8870   -3.8948   15.4016 H         2 RES2    0.0000
     59 H19        6.5456   -1.7268   16.2936 H         2 RES2    0.0000
     60 H20        7.1313    0.4052   17.3447 H         2 RES2    0.0000
     61 H21        7.0616    2.6684   17.3605 H         2 RES2    0.0000
     62 H22        5.9551    3.8265   15.6440 H         2 RES2    0.0000
     63 H23        4.9490    2.7047   13.9518 H         2 RES2    0.0000
     64 H24        4.4913    1.7151   12.3772 H         2 RES2    0.0000
     65 H25        2.2644   -0.0330   12.5135 H         2 RES2    0.0000
     66 H26        2.4484    1.2375   13.4484 H         2 RES2    0.0000
@<TRIPOS>BOND
     1    1   19 1
     2    2    4 2
     3    3    4 2
     4    4   20 1
     5    5    6 ar
     6    6    7 ar
     7    7    8 ar
     8    8    9 ar
     9    9   10 ar
    10   10   11 ar
    11   11    6 ar
    12   12   11 ar
    13   13   12 ar
    14   14   13 ar
    15   15   14 ar
    16   16   15 ar
    17   17   16 ar
    18   18    5 ar
    19   19    5 1
    20   20   19 1
    21   21   39 1
    22   22   24 2
    23   23   24 2
    24   24   40 1
    25   25   26 ar
    26   26   27 ar
    27   27   28 ar
    28   28   29 ar
    29   29   30 ar
    30   30   31 ar
    31   31   26 ar
    32   32   31 ar
    33   33   32 ar
    34   34   33 ar
    35   35   34 ar
    36   36   35 ar
    37   37   36 ar
    38   38   25 ar
    39   39   25 1
    40   40   39 1
    41   41    1 1
    42   42    7 1
    43   43    8 1
    44   44    9 1
    45   45   10 1
    46   46   12 1
    47   47   14 1
    48   48   15 1
    49   49   16 1
    50   50   17 1
    51   51   19 1
    52   52   20 1
    53   53   20 1
    54   54   21 1
    55   55   27 1
    56   56   28 1
    57   57   29 1
    58   58   30 1
    59   59   32 1
    60   60   34 1
    61   61   35 1
    62   62   36 1
    63   63   37 1
    64   64   39 1
    65   65   40 1
    66   66   40 1
    67   13   18 ar
    68   17   18 ar
    69   33   38 ar
    70   37   38 ar
@<TRIPOS>SUBSTRUCTURE
     1 RES1 1
     2 RES2 21

@<TRIPOS>CRYSIN
   9.4780    9.8510   14.5140  90.2200  98.6900 100.0900   2 1

