# MOL2 file generated by ConQuest
# Please check atom types

@<TRIPOS>MOLECULE
MAJTEX
    18    19     1
SMALL
NO_CHARGES
****
Generated from CSD

@<TRIPOS>ATOM
      1 N1         3.4053    2.0930    4.8402 N.am      1 RES1    0.0000
      2 C1         2.0787    2.3167    4.5790 C.2       1 RES1    0.0000
      3 O1         1.6307    2.7436    3.5305 O.2       1 RES1    0.0000
      4 C2         3.6467    1.6544    6.1414 C.2       1 RES1    0.0000
      5 O2         4.7330    1.3552    6.5621 O.2       1 RES1    0.0000
      6 C3         2.2915    1.6297    6.7985 C.ar      1 RES1    0.0000
      7 C4         1.8373    1.3130    8.0720 C.ar      1 RES1    0.0000
      8 C5         0.4798    1.3026    8.3526 C.ar      1 RES1    0.0000
      9 C6        -0.4388    1.6272    7.3619 C.ar      1 RES1    0.0000
     10 C7        -0.0164    1.9745    6.0810 C.ar      1 RES1    0.0000
     11 C8         1.3441    1.9690    5.8316 C.ar      1 RES1    0.0000
     12 N2         2.7567    1.0137    9.1763 N.pl3     1 RES1    0.0000
     13 O3         3.8443    1.5732    9.1866 O.2       1 RES1    0.0000
     14 O4         2.3666    0.2386   10.0436 O.2       1 RES1    0.0000
     15 H1         4.0693    2.2691    4.3984 H         1 RES1    0.0000
     16 H2         0.1776    1.0738    9.2228 H         1 RES1    0.0000
     17 H3        -1.3679    1.6126    7.5617 H         1 RES1    0.0000
     18 H4        -0.6404    2.2064    5.4036 H         1 RES1    0.0000
@<TRIPOS>BOND
     1    1    2 1
     2    2    3 2
     3    4    1 1
     4    5    4 2
     5    6    4 1
     6    7    6 ar
     7    8    7 ar
     8    9    8 ar
     9   10    9 ar
    10   11    2 1
    11   12    7 1
    12   13   12 2
    13   14   12 2
    14   15    1 1
    15   16    8 1
    16   17    9 1
    17   18   10 1
    18    6   11 ar
    19   10   11 ar
@<TRIPOS>SUBSTRUCTURE
     1 RES1 1

@<TRIPOS>CRYSIN
   8.2208   13.0786   13.9233  90.0000  90.0000  90.0000  61 1

