# MOL2 file generated by ConQuest
# Please check atom types

@<TRIPOS>MOLECULE
MAKFUB
    96   102     2
SMALL
NO_CHARGES
****
Generated from CSD

@<TRIPOS>ATOM
      1 C1         6.1974    9.5071   14.8065 C.ar      1 RES1    0.0000
      2 H1         6.2104   10.1804   15.4774 H         1 RES1    0.0000
      3 C2         6.2505    8.1682   15.1897 C.ar      1 RES1    0.0000
      4 C3         6.2009    7.1953   14.1782 C.ar      1 RES1    0.0000
      5 C4         6.1305    7.5679   12.8294 C.ar      1 RES1    0.0000
      6 H2         6.1148    6.8931   12.1610 H         1 RES1    0.0000
      7 C5         6.0839    8.8958   12.4545 C.ar      1 RES1    0.0000
      8 C6         6.1250    9.8831   13.4708 C.ar      1 RES1    0.0000
      9 C7         6.1400   11.3654   13.1607 C.3       1 RES1    0.0000
     10 H3         7.0259   11.7331   13.4059 H         1 RES1    0.0000
     11 H4         5.4618   11.8143   13.7243 H         1 RES1    0.0000
     12 C8         5.8589   11.7010   11.6941 C.3       1 RES1    0.0000
     13 H5         4.8841   11.6582   11.5255 H         1 RES1    0.0000
     14 H6         6.1648   12.6228   11.5007 H         1 RES1    0.0000
     15 C9         6.5794   10.7191   10.7757 C.3       1 RES1    0.0000
     16 H7         7.5468   10.6936   11.0268 H         1 RES1    0.0000
     17 C10        5.9712    9.3071   10.9879 C.3       1 RES1    0.0000
     18 H8         4.9938    9.3912   10.7957 H         1 RES1    0.0000
     19 C11        6.5108    8.2405   10.0259 C.3       1 RES1    0.0000
     20 H9         5.9718    7.4150   10.1237 H         1 RES1    0.0000
     21 H10        7.4444    8.0245   10.2734 H         1 RES1    0.0000
     22 C12        6.4737    8.6922    8.5557 C.3       1 RES1    0.0000
     23 H11        6.9345    8.0224    7.9910 H         1 RES1    0.0000
     24 H12        5.5335    8.7560    8.2515 H         1 RES1    0.0000
     25 C13        7.1566   10.0518    8.3965 C.3       1 RES1    0.0000
     26 C14        6.4634   11.0797    9.3043 C.3       1 RES1    0.0000
     27 H13        5.4906   11.0701    9.0733 H         1 RES1    0.0000
     28 C15        7.0328   12.4288    8.8257 C.3       1 RES1    0.0000
     29 H14        7.8474   12.6677    9.3350 H         1 RES1    0.0000
     30 H15        6.3638   13.1511    8.9342 H         1 RES1    0.0000
     31 C16        7.3669   12.2038    7.3202 C.3       1 RES1    0.0000
     32 H16        6.8487   12.8281    6.7519 H         1 RES1    0.0000
     33 H17        8.3316   12.3490    7.1527 H         1 RES1    0.0000
     34 C17        6.9769   10.7392    7.0124 C.3       1 RES1    0.0000
     35 C18        8.6642    9.9430    8.6972 C.3       1 RES1    0.0000
     36 H18        8.7922    9.5665    9.5932 H         1 RES1    0.0000
     37 H19        9.0706   10.8327    8.6559 H         1 RES1    0.0000
     38 H20        9.0880    9.3591    8.0346 H         1 RES1    0.0000
     39 C19        5.5710   10.6703    6.5456 C.1       1 RES1    0.0000
     40 C20        4.4513   10.6132    6.1329 C.1       1 RES1    0.0000
     41 H21        3.5609   10.5675    5.8040 H         1 RES1    0.0000
     42 N1         6.2197    5.7880   14.4894 N.pl3     1 RES1    0.0000
     43 O1         6.2116    4.9642   13.5850 O.2       1 RES1    0.0000
     44 O2         6.2339    5.4446   15.7067 O.2       1 RES1    0.0000
     45 O3         6.3608    7.8913   16.5127 O.3       1 RES1    0.0000
     46 H22        6.3341    7.1006   16.6221 H         1 RES1    0.0000
     47 O4         7.8287   10.2120    5.9814 O.3       1 RES1    0.0000
     48 H23        7.4494    9.4361    5.6354 H         1 RES1    0.0000
     49 C21        2.9328    5.7829    1.6824 C.ar      2 RES2    0.0000
     50 H24        2.9563    5.1158    1.0068 H         2 RES2    0.0000
     51 C22        2.9578    7.1113    1.3134 C.ar      2 RES2    0.0000
     52 C23        2.9054    8.0748    2.3320 C.ar      2 RES2    0.0000
     53 C24        2.8453    7.6979    3.6760 C.ar      2 RES2    0.0000
     54 H25        2.8205    8.3689    4.3480 H         2 RES2    0.0000
     55 C25        2.8209    6.3617    4.0485 C.ar      2 RES2    0.0000
     56 C26        2.8753    5.3898    3.0181 C.ar      2 RES2    0.0000
     57 C27        2.9220    3.9096    3.3294 C.3       2 RES2    0.0000
     58 H26        3.8382    3.5760    3.1584 H         2 RES2    0.0000
     59 H27        2.3090    3.4348    2.7140 H         2 RES2    0.0000
     60 C28        2.5355    3.5772    4.7665 C.3       2 RES2    0.0000
     61 H28        1.5570    3.6722    4.8797 H         2 RES2    0.0000
     62 H29        2.7812    2.6392    4.9705 H         2 RES2    0.0000
     63 C29        3.2561    4.5155    5.7250 C.3       2 RES2    0.0000
     64 H30        4.2301    4.5170    5.4998 H         2 RES2    0.0000
     65 C30        2.6976    5.9399    5.5081 C.3       2 RES2    0.0000
     66 H31        1.7170    5.8815    5.6956 H         2 RES2    0.0000
     67 C31        3.2570    6.9902    6.4913 C.3       2 RES2    0.0000
     68 H32        4.1999    7.1819    6.2591 H         2 RES2    0.0000
     69 H33        2.7434    7.8320    6.3947 H         2 RES2    0.0000
     70 C32        3.1848    6.5216    7.9533 C.3       2 RES2    0.0000
     71 H34        3.6612    7.1690    8.5309 H         2 RES2    0.0000
     72 H35        2.2392    6.4910    8.2433 H         2 RES2    0.0000
     73 C33        3.8096    5.1430    8.1171 C.3       2 RES2    0.0000
     74 C34        3.0957    4.1436    7.1916 C.3       2 RES2    0.0000
     75 H36        2.1197    4.2005    7.4003 H         2 RES2    0.0000
     76 C35        3.5809    2.7598    7.6856 C.3       2 RES2    0.0000
     77 H37        4.3697    2.4595    7.1681 H         2 RES2    0.0000
     78 H38        2.8631    2.0831    7.5984 H         2 RES2    0.0000
     79 C36        3.9527    2.9812    9.1806 C.3       2 RES2    0.0000
     80 H39        3.4375    2.3676    9.7618 H         2 RES2    0.0000
     81 H40        4.9189    2.8210    9.3256 H         2 RES2    0.0000
     82 C37        3.5936    4.4505    9.4918 C.3       2 RES2    0.0000
     83 C38        5.3279    5.2042    7.8295 C.3       2 RES2    0.0000
     84 H41        5.4783    5.6227    6.9570 H         2 RES2    0.0000
     85 H42        5.6965    4.2967    7.8248 H         2 RES2    0.0000
     86 H43        5.7711    5.7318    8.5262 H         2 RES2    0.0000
     87 C39        2.1871    4.5206    9.9492 C.1       2 RES2    0.0000
     88 C40        1.0723    4.5437   10.3713 C.1       2 RES2    0.0000
     89 H44        0.1843    4.5619   10.7085 H         2 RES2    0.0000
     90 N2         2.9085    9.4902    2.0219 N.pl3     2 RES2    0.0000
     91 O5         2.8847   10.3093    2.9377 O.2       2 RES2    0.0000
     92 O6         2.9247    9.8384    0.8168 O.2       2 RES2    0.0000
     93 O7         3.0538    7.3966   -0.0144 O.3       2 RES2    0.0000
     94 H45        3.0957    8.2341   -0.1191 H         2 RES2    0.0000
     95 O8         4.4440    4.9546   10.5336 O.3       2 RES2    0.0000
     96 H46        4.1613    5.6676   10.7875 H         2 RES2    0.0000
@<TRIPOS>BOND
     1    1    2 1
     2    3    1 ar
     3    4    3 ar
     4    5    4 ar
     5    6    5 1
     6    7    5 ar
     7    8    1 ar
     8    9    8 1
     9   10    9 1
    10   11    9 1
    11   12    9 1
    12   13   12 1
    13   14   12 1
    14   15   12 1
    15   16   15 1
    16   17    7 1
    17   18   17 1
    18   19   17 1
    19   20   19 1
    20   21   19 1
    21   22   19 1
    22   23   22 1
    23   24   22 1
    24   25   22 1
    25   26   15 1
    26   27   26 1
    27   28   26 1
    28   29   28 1
    29   30   28 1
    30   31   28 1
    31   32   31 1
    32   33   31 1
    33   34   25 1
    34   35   25 1
    35   36   35 1
    36   37   35 1
    37   38   35 1
    38   39   34 1
    39   40   39 3
    40   41   40 1
    41   42    4 1
    42   43   42 2
    43   44   42 2
    44   45    3 1
    45   46   45 1
    46   47   34 1
    47   48   47 1
    48   49   50 1
    49   51   49 ar
    50   52   51 ar
    51   53   52 ar
    52   54   53 1
    53   55   53 ar
    54   56   49 ar
    55   57   56 1
    56   58   57 1
    57   59   57 1
    58   60   57 1
    59   61   60 1
    60   62   60 1
    61   63   60 1
    62   64   63 1
    63   65   55 1
    64   66   65 1
    65   67   65 1
    66   68   67 1
    67   69   67 1
    68   70   67 1
    69   71   70 1
    70   72   70 1
    71   73   70 1
    72   74   63 1
    73   75   74 1
    74   76   74 1
    75   77   76 1
    76   78   76 1
    77   79   76 1
    78   80   79 1
    79   81   79 1
    80   82   73 1
    81   83   73 1
    82   84   83 1
    83   85   83 1
    84   86   83 1
    85   87   82 1
    86   88   87 3
    87   89   88 1
    88   90   52 1
    89   91   90 2
    90   92   90 2
    91   93   51 1
    92   94   93 1
    93   95   82 1
    94   96   95 1
    95    7    8 ar
    96   15   17 1
    97   25   26 1
    98   31   34 1
    99   55   56 ar
   100   63   65 1
   101   73   74 1
   102   79   82 1
@<TRIPOS>SUBSTRUCTURE
     1 RES1 1
     2 RES2 49

@<TRIPOS>CRYSIN
   6.6285   21.3873   11.7896  90.0000  90.0780  90.0000   4 1

