# MOL2 file generated by ConQuest
# Please check atom types

@<TRIPOS>MOLECULE
MAKFOV
    47    49     1
SMALL
NO_CHARGES
****
Generated from CSD

@<TRIPOS>ATOM
      1 O1        13.5015    0.4618   20.3801 O.3       1 RES1    0.0000
      2 H1        12.9170    0.1366   20.8532 H         1 RES1    0.0000
      3 O2        15.1958    0.6344   16.0539 O.3       1 RES1    0.0000
      4 H2        15.5507    0.3719   15.3625 H         1 RES1    0.0000
      5 N1        11.7992    1.3150   16.8059 N.3       1 RES1    0.0000
      6 N2        13.8300    0.8976   15.8103 N.2       1 RES1    0.0000
      7 N3         9.2843    2.4106   15.9483 N.3       1 RES1    0.0000
      8 N4        13.0649    0.4943   19.0595 N.2       1 RES1    0.0000
      9 C1        13.7752    1.1997   18.2642 C.2       1 RES1    0.0000
     10 C2         7.1485    2.5869   14.6602 C.ar      1 RES1    0.0000
     11 C3        11.3592    2.6761   17.2231 C.3       1 RES1    0.0000
     12 H3        11.7003    3.3354   16.5984 H         1 RES1    0.0000
     13 H4        11.7145    2.8795   18.1029 H         1 RES1    0.0000
     14 C4        14.9561    2.0263   18.5752 C.ar      1 RES1    0.0000
     15 C5        11.1966    0.9271   15.5313 C.3       1 RES1    0.0000
     16 H5        11.4472    0.0142   15.3190 H         1 RES1    0.0000
     17 H6        11.5298    1.5036   14.8255 H         1 RES1    0.0000
     18 C6        15.9254    1.6373   19.4994 C.ar      1 RES1    0.0000
     19 H7        15.8520    0.8195   19.9371 H         1 RES1    0.0000
     20 C7         9.8602    2.7435   17.2581 C.3       1 RES1    0.0000
     21 H8         9.5258    2.1233   17.9252 H         1 RES1    0.0000
     22 H9         9.5841    3.6370   17.5145 H         1 RES1    0.0000
     23 C8        13.1936    1.1571   16.8849 C.2       1 RES1    0.0000
     24 C9         7.2615    3.6979   13.8521 C.ar      1 RES1    0.0000
     25 H10        7.7884    4.4115   14.1305 H         1 RES1    0.0000
     26 C10        7.8125    2.5437   16.0093 C.3       1 RES1    0.0000
     27 H11        7.5919    3.3561   16.4918 H         1 RES1    0.0000
     28 H12        7.4520    1.7963   16.5116 H         1 RES1    0.0000
     29 C11       15.1219    3.2514   17.9270 C.ar      1 RES1    0.0000
     30 H13       14.4964    3.5234   17.2954 H         1 RES1    0.0000
     31 C12        9.6848    1.0365   15.6071 C.3       1 RES1    0.0000
     32 H14        9.2980    0.7888   14.7524 H         1 RES1    0.0000
     33 H15        9.3478    0.4239   16.2806 H         1 RES1    0.0000
     34 C13       17.1316    3.6908   19.1296 C.ar      1 RES1    0.0000
     35 H16       17.8484    4.2501   19.3250 H         1 RES1    0.0000
     36 C14       17.0015    2.4716   19.7645 C.ar      1 RES1    0.0000
     37 H17       17.6445    2.2061   20.3813 H         1 RES1    0.0000
     38 C15        6.3475    1.5474   14.2371 C.ar      1 RES1    0.0000
     39 H18        6.2478    0.7911   14.7702 H         1 RES1    0.0000
     40 C16       16.1978    4.0633   18.2115 C.ar      1 RES1    0.0000
     41 H19       16.2868    4.8769   17.7712 H         1 RES1    0.0000
     42 C17        5.6908    1.6302   13.0189 C.ar      1 RES1    0.0000
     43 H20        5.1606    0.9224   12.7326 H         1 RES1    0.0000
     44 C18        5.8172    2.7465   12.2311 C.ar      1 RES1    0.0000
     45 H21        5.3641    2.8009   11.4197 H         1 RES1    0.0000
     46 C19        6.6081    3.7735   12.6418 C.ar      1 RES1    0.0000
     47 H22        6.7084    4.5262   12.1048 H         1 RES1    0.0000
@<TRIPOS>BOND
     1    1    2 1
     2    3    4 1
     3    5   11 1
     4    6    3 1
     5    7   20 1
     6    8    1 1
     7    9    8 2
     8   10   24 ar
     9   11   12 1
    10   13   11 1
    11   14    9 1
    12   15    5 1
    13   16   15 1
    14   17   15 1
    15   18   14 ar
    16   19   18 1
    17   20   11 1
    18   21   20 1
    19   22   20 1
    20   23    5 1
    21   24   25 1
    22   26    7 1
    23   27   26 1
    24   28   26 1
    25   29   14 ar
    26   30   29 1
    27   31    7 1
    28   32   31 1
    29   33   31 1
    30   34   35 1
    31   36   18 ar
    32   37   36 1
    33   38   10 ar
    34   39   38 1
    35   40   29 ar
    36   41   40 1
    37   42   38 ar
    38   43   42 1
    39   44   42 ar
    40   45   44 1
    41   46   24 ar
    42   47   46 1
    43    6   23 2
    44    9   23 1
    45   10   26 1
    46   15   31 1
    47   34   36 ar
    48   34   40 ar
    49   44   46 ar
@<TRIPOS>SUBSTRUCTURE
     1 RES1 1

@<TRIPOS>CRYSIN
  15.1911    5.9128   20.0082  90.0000  99.3288  90.0000  14 1

