# MOL2 file generated by ConQuest
# Please check atom types

@<TRIPOS>MOLECULE
MALFEN
    51    52     1
SMALL
NO_CHARGES
****
Generated from CSD

@<TRIPOS>ATOM
      1 C1        11.7427    1.4973    7.9090 C.ar      1 RES1    0.0000
      2 C2        12.9905    1.6792    8.5086 C.ar      1 RES1    0.0000
      3 H1        13.3766    2.5261    8.5275 H         1 RES1    0.0000
      4 C3        13.6460    0.6218    9.0655 C.ar      1 RES1    0.0000
      5 C4        13.0797   -0.6590    8.9650 C.ar      1 RES1    0.0000
      6 C5        11.8518   -0.8100    8.3651 C.ar      1 RES1    0.0000
      7 H2        11.4854   -1.6636    8.3145 H         1 RES1    0.0000
      8 C6        11.1287    0.2576    7.8289 C.ar      1 RES1    0.0000
      9 C7        15.3959    1.9883    9.8788 C.3       1 RES1    0.0000
     10 H3        16.2270    1.9199   10.3550 H         1 RES1    0.0000
     11 H4        14.7888    2.5452   10.3716 H         1 RES1    0.0000
     12 H5        15.5541    2.3737    9.0138 H         1 RES1    0.0000
     13 C8        13.4029   -2.9972    9.2938 C.3       1 RES1    0.0000
     14 H6        14.0251   -3.5956    9.7131 H         1 RES1    0.0000
     15 H7        13.3609   -3.1877    8.3538 H         1 RES1    0.0000
     16 H8        12.5334   -3.1150    9.6844 H         1 RES1    0.0000
     17 C9         9.7893   -0.0704    7.1558 C.3       1 RES1    0.0000
     18 C10       10.0207   -0.8494    5.8664 C.2       1 RES1    0.0000
     19 C11        9.8366   -2.1858    5.8116 C.2       1 RES1    0.0000
     20 C12        8.7444   -2.1892    7.9816 C.2       1 RES1    0.0000
     21 C13        8.8862   -0.8509    8.1011 C.2       1 RES1    0.0000
     22 C14        8.2312   -0.1455    9.2025 C.2       1 RES1    0.0000
     23 C15        8.1056    1.9043   10.3577 C.3       1 RES1    0.0000
     24 H9         8.4959    2.7816   10.3460 H         1 RES1    0.0000
     25 H10        8.2803    1.4878   11.2053 H         1 RES1    0.0000
     26 H11        7.1579    1.9736   10.2251 H         1 RES1    0.0000
     27 C16       10.5175   -0.1273    4.6978 C.2       1 RES1    0.0000
     28 C17       11.5759    1.8593    3.9855 C.3       1 RES1    0.0000
     29 H12       11.7797    2.7409    4.3045 H         1 RES1    0.0000
     30 H13       11.0268    1.9208    3.2004 H         1 RES1    0.0000
     31 H14       12.3917    1.3995    3.7714 H         1 RES1    0.0000
     32 C18        8.0043   -3.1081    8.9014 C.3       1 RES1    0.0000
     33 H15        8.0656   -4.0078    8.5728 H         1 RES1    0.0000
     34 H16        7.0816   -2.8448    8.9428 H         1 RES1    0.0000
     35 H17        8.3896   -3.0604    9.7796 H         1 RES1    0.0000
     36 C19       10.0883   -3.1115    4.6672 C.3       1 RES1    0.0000
     37 H18        9.2598   -3.3003    4.2199 H         1 RES1    0.0000
     38 H19       10.4694   -3.9299    4.9948 H         1 RES1    0.0000
     39 H20       10.6982   -2.7002    4.0508 H         1 RES1    0.0000
     40 N1        11.1620    2.7206    7.3622 N.pl3     1 RES1    0.0000
     41 N2         9.3189   -2.8308    6.9103 N.pl3     1 RES1    0.0000
     42 O1        11.9346    3.5928    6.9686 O.2       1 RES1    0.0000
     43 O2         9.9519    2.8596    7.3073 O.2       1 RES1    0.0000
     44 O3        14.8344    0.7015    9.7252 O.3       1 RES1    0.0000
     45 O4        13.8303   -1.6574    9.4861 O.3       1 RES1    0.0000
     46 O5        10.6543   -0.5553    3.5773 O.2       1 RES1    0.0000
     47 O6        10.8713    1.1328    5.0047 O.3       1 RES1    0.0000
     48 O7         7.4025   -0.5907    9.9575 O.2       1 RES1    0.0000
     49 O8         8.6794    1.1123    9.3085 O.3       1 RES1    0.0000
     50 H21        9.3614    0.7274    6.9643 H         1 RES1    0.0000
     51 H22        9.3151   -3.7065    6.9250 H         1 RES1    0.0000
@<TRIPOS>BOND
     1    1    2 ar
     2    2    3 1
     3    4    2 ar
     4    5    4 ar
     5    6    5 ar
     6    7    6 1
     7    8    1 ar
     8    9   10 1
     9   11    9 1
    10   12    9 1
    11   13   14 1
    12   15   13 1
    13   16   13 1
    14   17    8 1
    15   18   17 1
    16   19   18 2
    17   20   21 2
    18   21   17 1
    19   22   21 1
    20   23   24 1
    21   25   23 1
    22   26   23 1
    23   27   18 1
    24   28   29 1
    25   30   28 1
    26   31   28 1
    27   32   20 1
    28   33   32 1
    29   34   32 1
    30   35   32 1
    31   36   19 1
    32   37   36 1
    33   38   36 1
    34   39   36 1
    35   40    1 1
    36   41   19 1
    37   42   40 2
    38   43   40 2
    39   44    4 1
    40   45    5 1
    41   46   27 2
    42   47   27 1
    43   48   22 2
    44   49   22 1
    45   50   17 1
    46   51   41 1
    47    6    8 ar
    48    9   44 1
    49   13   45 1
    50   20   41 1
    51   23   49 1
    52   28   47 1
@<TRIPOS>SUBSTRUCTURE
     1 RES1 1

@<TRIPOS>CRYSIN
  14.4830    8.6600   15.1036  90.0000  90.0870  90.0000  14 1

