# MOL2 file generated by ConQuest
# Please check atom types

@<TRIPOS>MOLECULE
MALHEM
    30    31     1
SMALL
NO_CHARGES
****
Generated from CSD

@<TRIPOS>ATOM
      1 C1         0.5372    3.6296   15.8570 C.2       1 RES1    0.0000
      2 H1        -0.2588    3.3995   16.3216 H         1 RES1    0.0000
      3 C2         0.9134    5.0408   15.5863 C.3       1 RES1    0.0000
      4 H2         0.2050    5.4732   15.0288 H         1 RES1    0.0000
      5 C3         2.1618    4.8296   14.7460 C.3       1 RES1    0.0000
      6 H3         2.9251    5.3056   15.1823 H         1 RES1    0.0000
      7 C4         1.1559    5.8788   16.8428 C.3       1 RES1    0.0000
      8 H4         1.4125    6.8080   16.5761 H         1 RES1    0.0000
      9 C5         0.0130    5.9403   17.8568 C.3       1 RES1    0.0000
     10 H5        -0.0451    6.8368   18.2709 H         1 RES1    0.0000
     11 H6        -0.8531    5.7271   17.4265 H         1 RES1    0.0000
     12 C6         1.7725    4.9476   18.9072 C.3       1 RES1    0.0000
     13 C7         2.2395    3.5691   19.2466 C.3       1 RES1    0.0000
     14 H7         1.9562    3.3440   20.1576 H         1 RES1    0.0000
     15 H8         3.2171    3.5324   19.1900 H         1 RES1    0.0000
     16 H9         1.8513    2.9275   18.6163 H         1 RES1    0.0000
     17 C8         2.2939    5.9780   19.8788 C.3       1 RES1    0.0000
     18 H10        2.0394    5.7261   20.7898 H         1 RES1    0.0000
     19 H11        1.9100    6.8536   19.6627 H         1 RES1    0.0000
     20 H12        3.2704    6.0246   19.8122 H         1 RES1    0.0000
     21 C9         2.0818    5.2679   13.2896 C.2       1 RES1    0.0000
     22 C10        3.2089    4.8742   12.3988 C.3       1 RES1    0.0000
     23 H13        4.0435    5.2600   12.7381 H         1 RES1    0.0000
     24 H14        3.0404    5.2064   11.4918 H         1 RES1    0.0000
     25 H15        3.2845    3.8974   12.3806 H         1 RES1    0.0000
     26 N1         1.3457    2.7520   15.4288 N.2       1 RES1    0.0000
     27 O1         2.4260    3.4065   14.7783 O.3       1 RES1    0.0000
     28 O2         2.2254    5.2858   17.5772 O.3       1 RES1    0.0000
     29 O3         0.3578    4.9565   18.8183 O.3       1 RES1    0.0000
     30 O4         1.1548    5.9542   12.9159 O.2       1 RES1    0.0000
@<TRIPOS>BOND
     1    1    2 1
     2    3    1 1
     3    4    3 1
     4    5    3 1
     5    6    5 1
     6    7    3 1
     7    8    7 1
     8    9    7 1
     9   10    9 1
    10   11    9 1
    11   12   13 1
    12   13   14 1
    13   15   13 1
    14   16   13 1
    15   17   12 1
    16   18   17 1
    17   19   17 1
    18   20   17 1
    19   21    5 1
    20   22   21 1
    21   23   22 1
    22   24   22 1
    23   25   22 1
    24   26    1 2
    25   27    5 1
    26   28    7 1
    27   29    9 1
    28   30   21 2
    29   12   28 1
    30   12   29 1
    31   26   27 1
@<TRIPOS>SUBSTRUCTURE
     1 RES1 1

@<TRIPOS>CRYSIN
   5.4370    9.9170   20.2000  90.0000  90.0000  90.0000  19 1

