# MOL2 file generated by ConQuest
# Please check atom types

@<TRIPOS>MOLECULE
MALNIZ
    37    39     1
SMALL
NO_CHARGES
****
Generated from CSD

@<TRIPOS>ATOM
      1 C1         3.5167    4.2129    4.8446 C.ar      1 RES1    0.0000
      2 C2         4.7067    4.9598    5.0752 C.ar      1 RES1    0.0000
      3 H1         5.5411    5.0397    4.3518 H         1 RES1    0.0000
      4 C3         4.9176    5.5779    6.2689 C.ar      1 RES1    0.0000
      5 H2         5.7604    6.0117    6.4240 H         1 RES1    0.0000
      6 C4         3.9700    5.4964    7.3183 C.ar      1 RES1    0.0000
      7 C5         4.1555    6.1286    8.5728 C.ar      1 RES1    0.0000
      8 H3         5.0551    6.6621    8.7213 H         1 RES1    0.0000
      9 C6         3.2049    6.0253    9.5483 C.ar      1 RES1    0.0000
     10 H4         3.2772    6.4367   10.3734 H         1 RES1    0.0000
     11 C7         2.0618    5.2714    9.3460 C.ar      1 RES1    0.0000
     12 H5         1.3216    5.1832   10.1217 H         1 RES1    0.0000
     13 C8         1.8401    4.6361    8.1527 C.ar      1 RES1    0.0000
     14 H6         0.9541    4.1351    7.9981 H         1 RES1    0.0000
     15 C9         2.7948    4.7384    7.1100 C.ar      1 RES1    0.0000
     16 C10        2.6052    4.1133    5.8472 C.ar      1 RES1    0.0000
     17 H7         1.8786    3.6311    5.7362 H         1 RES1    0.0000
     18 C11        3.2713    3.5338    3.5093 C.3       1 RES1    0.0000
     19 H8         2.4890    3.2492    3.5399 H         1 RES1    0.0000
     20 C12        3.4029    4.4836    2.3356 C.3       1 RES1    0.0000
     21 H9         3.0995    4.0647    1.4784 H         1 RES1    0.0000
     22 H10        4.1543    4.7611    2.2211 H         1 RES1    0.0000
     23 N1         2.4902    5.6540    2.4484 N.pl3     1 RES1    0.0000
     24 O1         2.9234    6.7164    2.1013 O.2       1 RES1    0.0000
     25 O2         1.3589    5.4965    2.8348 O.2       1 RES1    0.0000
     26 O3         5.5073    2.7310    2.8534 O.3       1 RES1    0.0000
     27 C13        5.7746    2.3002    1.5916 C.2       1 RES1    0.0000
     28 O4         6.7957    2.5774    1.0274 O.2       1 RES1    0.0000
     29 C14        4.6326    1.5205    1.1297 C.2       1 RES1    0.0000
     30 H11        4.6936    1.0769    0.2836 H         1 RES1    0.0000
     31 C15        3.7122    1.5241    2.0524 C.2       1 RES1    0.0000
     32 H12        2.8150    1.1630    2.1006 H         1 RES1    0.0000
     33 C16        4.1715    2.2907    3.2476 C.3       1 RES1    0.0000
     34 C17        4.3108    1.4214    4.4823 C.3       1 RES1    0.0000
     35 H13        4.7973    0.6246    4.2596 H         1 RES1    0.0000
     36 H14        3.4390    1.1845    4.8056 H         1 RES1    0.0000
     37 H15        4.7843    1.9067    5.1619 H         1 RES1    0.0000
@<TRIPOS>BOND
     1    1    2 ar
     2    2    3 1
     3    4    2 ar
     4    5    4 1
     5    6    4 ar
     6    7    6 ar
     7    8    7 1
     8    9    7 ar
     9   10    9 1
    10   11    9 ar
    11   12   11 1
    12   13   11 ar
    13   14   13 1
    14   15    6 ar
    15   16    1 ar
    16   17   16 1
    17   18    1 1
    18   19   18 1
    19   20   18 1
    20   21   20 1
    21   22   20 1
    22   23   20 1
    23   24   23 2
    24   25   23 2
    25   26   27 1
    26   27   28 2
    27   29   27 1
    28   30   29 1
    29   31   29 2
    30   32   31 1
    31   33   18 1
    32   34   33 1
    33   35   34 1
    34   36   34 1
    35   37   34 1
    36   13   15 ar
    37   15   16 ar
    38   26   33 1
    39   31   33 1
@<TRIPOS>SUBSTRUCTURE
     1 RES1 1

@<TRIPOS>CRYSIN
   5.9263   14.3580   17.7263  90.0000  90.0000  90.0000  19 1

