# MOL2 file generated by ConQuest
# Please check atom types

@<TRIPOS>MOLECULE
MALQUM
   208   198     2
SMALL
NO_CHARGES
****
Generated from CSD

@<TRIPOS>ATOM
      1 O1         1.5582    8.7128    2.8262 O.2       1 RES1    0.0000
      2 O2         2.3563   10.5367    1.9882 O.2       1 RES1    0.0000
      3 O3        17.2119   16.2091    9.5799 O.2       1 RES1    0.0000
      4 O4        16.1125   17.0536    7.9339 O.2       1 RES1    0.0000
      5 O5         9.2078    1.5943   15.9267 O.2       1 RES1    0.0000
      6 O6        11.1123    2.3932   16.5258 O.2       1 RES1    0.0000
      7 N1         2.6395    2.7835    9.4171 N.3       1 RES1    0.0000
      8 N2         2.4231    9.5677    2.7398 N.pl3     1 RES1    0.0000
      9 N3         9.5701   16.1407    2.2999 N.3       1 RES1    0.0000
     10 N4        16.3236   16.1784    8.7414 N.pl3     1 RES1    0.0000
     11 N5        16.5502    9.3328   15.8008 N.3       1 RES1    0.0000
     12 N6        10.1291    2.3855   15.8031 N.pl3     1 RES1    0.0000
     13 C1         3.7287    3.6136    9.3108 C.ar      1 RES1    0.0000
     14 C2         3.8055    4.6016    8.3249 C.ar      1 RES1    0.0000
     15 C3         4.8975    5.4442    8.2099 C.ar      1 RES1    0.0000
     16 C4         5.9498    5.3526    9.1040 C.ar      1 RES1    0.0000
     17 C5         5.9068    4.3725   10.0952 C.ar      1 RES1    0.0000
     18 C6         4.8256    3.5187   10.1867 C.ar      1 RES1    0.0000
     19 C7         4.9066    6.4369    7.1610 C.1       1 RES1    0.0000
     20 C8         4.8949    7.2480    6.2771 C.1       1 RES1    0.0000
     21 C9         4.8359    8.2464    5.2550 C.ar      1 RES1    0.0000
     22 C10        3.6713    8.4218    4.5129 C.ar      1 RES1    0.0000
     23 C11        3.6307    9.4279    3.5684 C.ar      1 RES1    0.0000
     24 C12        4.6837   10.2729    3.3434 C.ar      1 RES1    0.0000
     25 C13        5.8481   10.1036    4.0665 C.ar      1 RES1    0.0000
     26 C14        5.9253    9.0723    5.0025 C.ar      1 RES1    0.0000
     27 C15        6.9389   11.0144    3.8862 C.1       1 RES1    0.0000
     28 C16        7.7726   11.8671    3.8205 C.1       1 RES1    0.0000
     29 C17        8.7678   12.9020    3.8779 C.ar      1 RES1    0.0000
     30 C18        8.6967   13.9975    3.0368 C.ar      1 RES1    0.0000
     31 C19        9.6402   15.0388    3.1118 C.ar      1 RES1    0.0000
     32 C20       10.6598   14.9102    4.0731 C.ar      1 RES1    0.0000
     33 C21       10.7214   13.8041    4.9095 C.ar      1 RES1    0.0000
     34 C22        9.7796   12.7939    4.8312 C.ar      1 RES1    0.0000
     35 C23       11.7808   13.7321    5.8695 C.1       1 RES1    0.0000
     36 C24       12.6627   13.7039    6.6780 C.1       1 RES1    0.0000
     37 C25       13.6779   13.7817    7.6880 C.ar      1 RES1    0.0000
     38 C26       14.5220   14.8954    7.7101 C.ar      1 RES1    0.0000
     39 C27       15.4503   14.9929    8.7173 C.ar      1 RES1    0.0000
     40 C28       15.5993   14.0438    9.7047 C.ar      1 RES1    0.0000
     41 C29       14.7568   12.9348    9.6832 C.ar      1 RES1    0.0000
     42 C30       13.8055   12.8106    8.6731 C.ar      1 RES1    0.0000
     43 C31       14.8429   11.9344   10.7059 C.1       1 RES1    0.0000
     44 C32       14.8597   11.1174   11.5851 C.1       1 RES1    0.0000
     45 C33       14.7941   10.1519   12.6447 C.ar      1 RES1    0.0000
     46 C34       15.7247   10.1683   13.6665 C.ar      1 RES1    0.0000
     47 C35       15.6554    9.2819   14.7514 C.ar      1 RES1    0.0000
     48 C36       14.6052    8.3526   14.7251 C.ar      1 RES1    0.0000
     49 C37       13.6982    8.3087   13.6763 C.ar      1 RES1    0.0000
     50 C38       13.7669    9.2119   12.6398 C.ar      1 RES1    0.0000
     51 C39       12.6886    7.2854   13.6758 C.1       1 RES1    0.0000
     52 C40       11.8695    6.4056   13.6712 C.1       1 RES1    0.0000
     53 C41       10.9132    5.3509   13.7118 C.ar      1 RES1    0.0000
     54 C42       10.9985    4.3663   14.6905 C.ar      1 RES1    0.0000
     55 C43       10.0432    3.3910   14.7370 C.ar      1 RES1    0.0000
     56 C44        9.0021    3.3142   13.8364 C.ar      1 RES1    0.0000
     57 C45        8.9226    4.2728   12.8316 C.ar      1 RES1    0.0000
     58 C46        9.8705    5.2859   12.7901 C.ar      1 RES1    0.0000
     59 C47        7.8574    4.2432   11.8666 C.1       1 RES1    0.0000
     60 C48        6.9730    4.2904   11.0576 C.1       1 RES1    0.0000
     61 C49        1.4101    3.0545    8.6826 C.3       1 RES1    0.0000
     62 H1         0.8563    2.2345    8.6658 H         1 RES1    0.0000
     63 H2         1.6355    3.2875    7.7473 H         1 RES1    0.0000
     64 C50        0.6081    4.1808    9.2927 C.3       1 RES1    0.0000
     65 H3         1.0796    5.0339    9.1242 H         1 RES1    0.0000
     66 H4         0.5701    4.0482   10.2737 H         1 RES1    0.0000
     67 C51       -0.8092    4.2962    8.7619 C.3       1 RES1    0.0000
     68 H5        -0.7826    4.3674    7.7744 H         1 RES1    0.0000
     69 H6        -1.3112    3.4750    8.9935 H         1 RES1    0.0000
     70 C52       -1.5302    5.4925    9.3234 C.3       1 RES1    0.0000
     71 H7        -1.1282    6.3100    8.9375 H         1 RES1    0.0000
     72 H8        -1.3797    5.5191   10.3008 H         1 RES1    0.0000
     73 C53       -3.0339    5.5263    9.0662 C.3       1 RES1    0.0000
     74 H9        -3.4518    4.7411    9.4995 H         1 RES1    0.0000
     75 H10       -3.4132    6.3396    9.4859 H         1 RES1    0.0000
     76 C54       -3.3940    5.5228    7.5955 C.3       1 RES1    0.0000
     77 H11       -2.9968    6.3066    7.1598 H         1 RES1    0.0000
     78 H12       -4.3690    5.5530    7.4977 H         1 RES1    0.0000
     79 H13       -3.0495    4.7063    7.1768 H         1 RES1    0.0000
     80 C55        2.5245    1.8077   10.5075 C.3       1 RES1    0.0000
     81 H14        1.5680    1.6296   10.6879 H         1 RES1    0.0000
     82 H15        2.9253    2.1869   11.3297 H         1 RES1    0.0000
     83 C56        3.2118    0.5213   10.1701 C.3       1 RES1    0.0000
     84 H16        4.1675    0.7271   10.0071 H         1 RES1    0.0000
     85 H17        2.8347    0.1987    9.3127 H         1 RES1    0.0000
     86 C57        3.1537   -0.6240   11.1566 C.3       1 RES1    0.0000
     87 H18        3.3451   -0.2822   12.0649 H         1 RES1    0.0000
     88 H19        3.8521   -1.2890   10.9273 H         1 RES1    0.0000
     89 C58        1.7833   -1.3080   11.1515 C.3       1 RES1    0.0000
     90 H20        1.1191   -0.6993   11.5623 H         1 RES1    0.0000
     91 H21        1.5069   -1.4652   10.2125 H         1 RES1    0.0000
     92 C59        1.7682   -2.6222   11.8934 C.3       1 RES1    0.0000
     93 H22        2.4471   -3.2220   11.4944 H         1 RES1    0.0000
     94 H23        2.0257   -2.4604   12.8357 H         1 RES1    0.0000
     95 C60        2.4288   -0.3247   11.4927 Du        2 SUP2    0.0000
     96 H24        2.8063   -0.0627   12.3705 Du        2 SUP2    0.0000
     97 H25        1.4510   -0.1759   11.4961 Du        2 SUP2    0.0000
     98 C61        2.7737   -1.7288   11.1413 Du        2 SUP2    0.0000
     99 H26        3.7574   -1.8259   11.1056 Du        2 SUP2    0.0000
    100 H27        2.4126   -1.9398   10.2431 Du        2 SUP2    0.0000
    101 C62        2.2145   -2.7053   12.1447 Du        2 SUP2    0.0000
    102 H28        2.2575   -2.2842   13.0395 Du        2 SUP2    0.0000
    103 H29        2.8050   -3.4997   12.1634 Du        2 SUP2    0.0000
    104 C63        0.5115   -3.2745   11.8696 C.3       1 RES1    0.0000
    105 H30        0.5700   -4.1138   12.3722 H         1 RES1    0.0000
    106 H31        0.2608   -3.4661   10.9426 H         1 RES1    0.0000
    107 H32       -0.1647   -2.6962   12.2788 H         1 RES1    0.0000
    108 C64        8.7329   16.1443    1.1078 C.3       1 RES1    0.0000
    109 H33        8.6462   15.2140    0.7810 H         1 RES1    0.0000
    110 H34        9.1914   16.6672    0.4024 H         1 RES1    0.0000
    111 C65        7.3495   16.7158    1.3107 C.3       1 RES1    0.0000
    112 H35        7.4307   17.6612    1.5909 H         1 RES1    0.0000
    113 H36        6.9038   16.2225    2.0442 H         1 RES1    0.0000
    114 C66        6.4725   16.6452    0.0645 C.3       1 RES1    0.0000
    115 H37        6.3952   15.6981   -0.2139 H         1 RES1    0.0000
    116 H38        5.5642   16.9621    0.3005 H         1 RES1    0.0000
    117 C67        6.9622   17.4375   -1.0917 C.3       1 RES1    0.0000
    118 H39        7.8653   17.1148   -1.3362 H         1 RES1    0.0000
    119 H40        7.0482   18.3830   -0.8133 H         1 RES1    0.0000
    120 C68        6.0672   17.3748   -2.3345 C.3       1 RES1    0.0000
    121 H41        5.9301   16.4256   -2.5807 H         1 RES1    0.0000
    122 H42        5.1815   17.7565   -2.1104 H         1 RES1    0.0000
    123 C69        6.6374   18.1206   -3.5417 C.3       1 RES1    0.0000
    124 H43        6.7640   19.0643   -3.3108 H         1 RES1    0.0000
    125 H44        6.0135   18.0494   -4.2939 H         1 RES1    0.0000
    126 H45        7.4993   17.7277   -3.7913 H         1 RES1    0.0000
    127 C70        5.4646   17.7807   -1.9355 Du        2 SUP2    0.0000
    128 H46        4.9369   16.9736   -2.1478 Du        2 SUP2    0.0000
    129 H47        4.8974   18.4512   -1.4635 Du        2 SUP2    0.0000
    130 C71        6.2217   18.3875   -3.1750 Du        2 SUP2    0.0000
    131 H48        6.4675   19.3136   -2.9950 Du        2 SUP2    0.0000
    132 H49        5.6311   18.3522   -3.9628 Du        2 SUP2    0.0000
    133 H50        7.0250   17.8573   -3.3549 Du        2 SUP2    0.0000
    134 C72       10.5580   17.2128    2.4238 C.3       1 RES1    0.0000
    135 H51       10.7393   17.3688    3.3838 H         1 RES1    0.0000
    136 H52       10.1729   18.0456    2.0510 H         1 RES1    0.0000
    137 C73       11.8664   16.9243    1.7223 C.3       1 RES1    0.0000
    138 H53       11.7234   16.9694    0.7437 H         1 RES1    0.0000
    139 H54       12.1538   16.0029    1.9440 H         1 RES1    0.0000
    140 C74       12.9807   17.9010    2.1091 C.3       1 RES1    0.0000
    141 H55       13.6847   17.8678    1.4143 H         1 RES1    0.0000
    142 H56       12.6091   18.8189    2.1138 H         1 RES1    0.0000
    143 C75       13.6157   17.6299    3.4548 C.3       1 RES1    0.0000
    144 H57       13.9636   16.7035    3.4653 H         1 RES1    0.0000
    145 H58       12.9214   17.6982    4.1580 H         1 RES1    0.0000
    146 C76       14.7598   18.5948    3.7889 C.3       1 RES1    0.0000
    147 H59       15.4626   18.5150    3.0969 H         1 RES1    0.0000
    148 H60       14.4166   19.5239    3.7675 H         1 RES1    0.0000
    149 C77       15.3589   18.3281    5.1224 C.3       1 RES1    0.0000
    150 H61       14.6890   18.4893    5.8202 H         1 RES1    0.0000
    151 H62       16.1243   18.9251    5.2616 H         1 RES1    0.0000
    152 H63       15.6585   17.3976    5.1665 H         1 RES1    0.0000
    153 C78       16.4873    8.3085   16.8391 C.3       1 RES1    0.0000
    154 H64       15.5464    8.2089   17.1313 H         1 RES1    0.0000
    155 H65       17.0117    8.6140   17.6203 H         1 RES1    0.0000
    156 C79       17.0018    6.9726   16.4065 C.3       1 RES1    0.0000
    157 H66       17.9910    6.9883   16.4369 H         1 RES1    0.0000
    158 H67       16.7324    6.8170   15.4674 H         1 RES1    0.0000
    159 C80       16.4972    5.7933   17.2705 C.3       1 RES1    0.0000
    160 H68       17.0464    4.9952   17.0685 H         1 RES1    0.0000
    161 H69       16.6333    6.0200   18.2247 H         1 RES1    0.0000
    162 C81       15.0296    5.4397   17.0583 C.3       1 RES1    0.0000
    163 H70       14.8560    5.3840   16.0854 H         1 RES1    0.0000
    164 H71       14.4738    6.1733   17.4199 H         1 RES1    0.0000
    165 C82       14.5849    4.1231   17.7102 C.3       1 RES1    0.0000
    166 H72       14.8617    4.1273   18.6610 H         1 RES1    0.0000
    167 H73       13.5958    4.0718   17.6848 H         1 RES1    0.0000
    168 C83       15.1576    2.8852   17.0362 C.3       1 RES1    0.0000
    169 H74       14.8586    2.8525   16.1041 H         1 RES1    0.0000
    170 H75       14.8479    2.0831   17.5082 H         1 RES1    0.0000
    171 H76       16.1363    2.9219   17.0634 H         1 RES1    0.0000
    172 C84       17.8109   10.0569   15.6569 C.3       1 RES1    0.0000
    173 H77       18.2553   10.0969   16.5404 H         1 RES1    0.0000
    174 H78       17.6116   10.9858   15.3774 H         1 RES1    0.0000
    175 C85       18.7690    9.4462   14.6592 C.3       1 RES1    0.0000
    176 H79       19.0632    8.5685   15.0090 H         1 RES1    0.0000
    177 H80       18.2750    9.2781   13.8171 H         1 RES1    0.0000
    178 C86       19.9987   10.2586   14.3298 C.3       1 RES1    0.0000
    179 H81       20.5026   10.4303   15.1652 H         1 RES1    0.0000
    180 H82       19.7164   11.1325   13.9631 H         1 RES1    0.0000
    181 C87       20.9305    9.5691   13.3179 C.3       1 RES1    0.0000
    182 H83       21.8015   10.0399   13.3230 H         1 RES1    0.0000
    183 H84       21.0931    8.6413   13.6235 H         1 RES1    0.0000
    184 C88       20.4152    9.5248   11.8849 C.3       1 RES1    0.0000
    185 H85       19.4481    9.3075   11.9002 H         1 RES1    0.0000
    186 H86       20.5146   10.4235   11.4808 H         1 RES1    0.0000
    187 C89       21.1172    8.5280   11.0207 C.3       1 RES1    0.0000
    188 H87       22.0832    8.6943   11.0513 H         1 RES1    0.0000
    189 H88       20.8003    8.6149   10.0988 H         1 RES1    0.0000
    190 H89       20.9310    7.6244   11.3484 H         1 RES1    0.0000
    191 H90        3.1820    4.6997    7.7897 H         1 RES1    0.0000
    192 H91        6.6730    5.8922    9.0071 H         1 RES1    0.0000
    193 H92        4.8125    2.8904   10.8458 H         1 RES1    0.0000
    194 H93        2.8843    7.9321    4.7319 H         1 RES1    0.0000
    195 H94        4.6180   10.8954    2.7403 H         1 RES1    0.0000
    196 H95        6.7439    8.9573    5.5010 H         1 RES1    0.0000
    197 H96        8.0314   14.0106    2.4092 H         1 RES1    0.0000
    198 H97       11.3577   15.5887    4.2208 H         1 RES1    0.0000
    199 H98        9.8082   12.0197    5.4739 H         1 RES1    0.0000
    200 H99       14.4898   15.5991    7.0070 H         1 RES1    0.0000
    201 H100      16.2853   14.1314   10.3891 H         1 RES1    0.0000
    202 H101      13.2232   12.0988    8.6964 H         1 RES1    0.0000
    203 H102      16.3598   10.7360   13.6439 H         1 RES1    0.0000
    204 H103      14.5363    7.7597   15.3333 H         1 RES1    0.0000
    205 H104      13.1722    9.2143   11.9036 H         1 RES1    0.0000
    206 H105      11.6418    4.3495   15.2857 H         1 RES1    0.0000
    207 H106       8.4127    2.6335   13.9342 H         1 RES1    0.0000
    208 H107       9.8038    5.9588   12.0462 H         1 RES1    0.0000
@<TRIPOS>BOND
     1    1    8 2
     2    2    8 2
     3    3   10 2
     4    4   10 2
     5    5   12 2
     6    6   12 2
     7    7   13 1
     8    8   23 1
     9    9   31 1
    10   10   39 1
    11   11   47 1
    12   12   55 1
    13   13   14 ar
    14   14   15 ar
    15   15   16 ar
    16   16   17 ar
    17   17   18 ar
    18   18   13 ar
    19   19   15 1
    20   20   19 3
    21   21   20 1
    22   22   21 ar
    23   23   22 ar
    24   24   23 ar
    25   25   24 ar
    26   26   21 ar
    27   27   25 1
    28   28   27 3
    29   29   28 1
    30   30   29 ar
    31   31   30 ar
    32   32   31 ar
    33   33   32 ar
    34   34   29 ar
    35   35   33 1
    36   36   35 3
    37   37   36 1
    38   38   37 ar
    39   39   38 ar
    40   40   39 ar
    41   41   40 ar
    42   42   37 ar
    43   43   41 1
    44   44   43 3
    45   45   44 1
    46   46   45 ar
    47   47   46 ar
    48   48   47 ar
    49   49   48 ar
    50   50   45 ar
    51   51   49 1
    52   52   51 3
    53   53   52 1
    54   54   53 ar
    55   55   54 ar
    56   56   55 ar
    57   57   56 ar
    58   58   53 ar
    59   59   57 1
    60   60   17 1
    61   61    7 1
    62   62   61 1
    63   63   61 1
    64   64   61 1
    65   65   64 1
    66   66   64 1
    67   67   64 1
    68   68   67 1
    69   69   67 1
    70   70   67 1
    71   71   70 1
    72   72   70 1
    73   73   70 1
    74   74   73 1
    75   75   73 1
    76   76   73 1
    77   77   76 1
    78   78   76 1
    79   79   76 1
    80   80    7 1
    81   81   80 1
    82   82   80 1
    83   83   80 1
    84   84   83 1
    85   85   83 1
    86   86   83 1
    87   87   86 1
    88   88   86 1
    89   89   86 1
    90   90   89 1
    91   91   89 1
    92   92   89 1
    93   93   92 1
    94   94   92 1
    95  104   92 1
    96  105  104 1
    97  106  104 1
    98  107  104 1
    99  108    9 1
   100  109  108 1
   101  110  108 1
   102  111  108 1
   103  112  111 1
   104  113  111 1
   105  114  111 1
   106  115  114 1
   107  116  114 1
   108  117  114 1
   109  118  117 1
   110  119  117 1
   111  120  117 1
   112  121  120 1
   113  122  120 1
   114  123  120 1
   115  124  123 1
   116  125  123 1
   117  126  123 1
   118  134    9 1
   119  135  134 1
   120  136  134 1
   121  137  134 1
   122  138  137 1
   123  139  137 1
   124  140  137 1
   125  141  140 1
   126  142  140 1
   127  143  140 1
   128  144  143 1
   129  145  143 1
   130  146  143 1
   131  147  146 1
   132  148  146 1
   133  149  146 1
   134  150  149 1
   135  151  149 1
   136  152  149 1
   137  153   11 1
   138  154  153 1
   139  155  153 1
   140  156  153 1
   141  157  156 1
   142  158  156 1
   143  159  156 1
   144  160  159 1
   145  161  159 1
   146  162  159 1
   147  163  162 1
   148  164  162 1
   149  165  162 1
   150  166  165 1
   151  167  165 1
   152  168  165 1
   153  169  168 1
   154  170  168 1
   155  171  168 1
   156  172   11 1
   157  173  172 1
   158  174  172 1
   159  175  172 1
   160  176  175 1
   161  177  175 1
   162  178  175 1
   163  179  178 1
   164  180  178 1
   165  181  178 1
   166  182  181 1
   167  183  181 1
   168  184  181 1
   169  185  184 1
   170  186  184 1
   171  187  184 1
   172  188  187 1
   173  189  187 1
   174  190  187 1
   175  191   14 1
   176  192   16 1
   177  193   18 1
   178  194   22 1
   179  195   24 1
   180  196   26 1
   181  197   30 1
   182  198   32 1
   183  199   34 1
   184  200   38 1
   185  201   40 1
   186  202   42 1
   187  203   46 1
   188  204   48 1
   189  205   50 1
   190  206   54 1
   191  207   56 1
   192  208   58 1
   193   25   26 ar
   194   33   34 ar
   195   41   42 ar
   196   49   50 ar
   197   57   58 ar
   198   59   60 3
@<TRIPOS>SUBSTRUCTURE
     1 RES1 1
     2 SUP2 95

@<TRIPOS>CRYSIN
  13.1350   16.6880   17.4290  89.8970  77.4430  73.7870   2 1

