# MOL2 file generated by ConQuest
# Please check atom types

@<TRIPOS>MOLECULE
MALZEF
    66    68     2
SMALL
NO_CHARGES
****
Generated from CSD

@<TRIPOS>ATOM
      1 O1         7.4108    1.9497    5.2388 O.2       1 RES1    0.0000
      2 O2         6.1664    0.1970    5.0725 O.2       1 RES1    0.0000
      3 O3        -4.7366    6.4947    4.8062 O.3       1 RES1    0.0000
      4 N1         6.3108    1.4104    5.1678 N.pl3     1 RES1    0.0000
      5 N2         4.3002    6.9392    4.9821 N.1       1 RES1    0.0000
      6 C1         2.7821    3.7746    5.1396 C.ar      1 RES1    0.0000
      7 C2         4.0614    4.3649    5.1522 C.ar      1 RES1    0.0000
      8 C3         5.2272    3.6082    5.1898 C.ar      1 RES1    0.0000
      9 H1         6.0885    4.0099    5.1866 H         1 RES1    0.0000
     10 C4         5.1108    2.2356    5.1962 C.ar      1 RES1    0.0000
     11 C5         3.8756    1.6054    5.1912 C.ar      1 RES1    0.0000
     12 H2         3.8170    0.6561    5.1814 H         1 RES1    0.0000
     13 C6         2.7355    2.3722    5.1703 C.ar      1 RES1    0.0000
     14 H3         1.9052    1.9195    5.1774 H         1 RES1    0.0000
     15 C7         1.5725    4.5888    5.0859 C.2       1 RES1    0.0000
     16 H4         1.7107    5.5158    5.0750 H         1 RES1    0.0000
     17 C8         0.3308    4.0830    5.0650 C.2       1 RES1    0.0000
     18 H5         0.2523    3.1193    5.0710 H         1 RES1    0.0000
     19 C9        -0.9425    4.7925    5.0118 C.ar      1 RES1    0.0000
     20 C10       -1.0767    6.1805    5.0455 C.ar      1 RES1    0.0000
     21 H6        -0.2853    6.7743    5.0868 H         1 RES1    0.0000
     22 C11       -2.3151    6.7923    4.9738 C.ar      1 RES1    0.0000
     23 H7        -2.3778    7.7641    5.0132 H         1 RES1    0.0000
     24 C12       -3.4640    6.0124    4.8707 C.ar      1 RES1    0.0000
     25 C13       -3.3546    4.6292    4.8246 C.ar      1 RES1    0.0000
     26 H8        -4.1219    4.0945    4.7820 H         1 RES1    0.0000
     27 C14       -2.1175    4.0356    4.8971 C.ar      1 RES1    0.0000
     28 H9        -2.0280    3.0428    4.8490 H         1 RES1    0.0000
     29 C15        4.1943    5.8045    5.0715 C.1       1 RES1    0.0000
     30 C16       -4.9135    7.9137    4.7846 C.3       1 RES1    0.0000
     31 H10       -5.9005    8.0507    4.7189 H         1 RES1    0.0000
     32 H11       -4.5347    8.2932    5.6202 H         1 RES1    0.0000
     33 H12       -4.4574    8.2932    3.9727 H         1 RES1    0.0000
     34 O4        -1.0585    1.0774   -4.9909 O.2       2 RES2    0.0000
     35 O5         0.1728   -0.6891   -5.1501 O.2       2 RES2    0.0000
     36 O6        11.1077    5.5467   -4.6098 O.3       2 RES2    0.0000
     37 N3         0.0334    0.5233   -5.0463 N.pl3     2 RES2    0.0000
     38 N4         2.1033    6.0260   -4.6635 N.1       2 RES2    0.0000
     39 C17        3.5854    2.8470   -4.8829 C.ar      2 RES2    0.0000
     40 C18        2.3153    3.4567   -4.8761 C.ar      2 RES2    0.0000
     41 C19        1.1367    2.7050   -4.9345 C.ar      2 RES2    0.0000
     42 H13        0.3159    3.1291   -4.9186 H         2 RES2    0.0000
     43 C20        1.2441    1.3422   -4.9926 C.ar      2 RES2    0.0000
     44 C21        2.4701    0.6948   -4.9919 C.ar      2 RES2    0.0000
     45 H14        2.5224   -0.2735   -5.0172 H         2 RES2    0.0000
     46 C22        3.6195    1.4465   -4.9452 C.ar      2 RES2    0.0000
     47 H15        4.4852    1.0143   -4.9646 H         2 RES2    0.0000
     48 C23        4.8066    3.6496   -4.8296 C.2       2 RES2    0.0000
     49 H16        4.6673    4.5618   -4.8726 H         2 RES2    0.0000
     50 C24        6.0356    3.1380   -4.7396 C.2       2 RES2    0.0000
     51 H17        6.1483    2.1995   -4.7189 H         2 RES2    0.0000
     52 C25        7.3102    3.8454   -4.6866 C.ar      2 RES2    0.0000
     53 C26        7.4460    5.2258   -4.8025 C.ar      2 RES2    0.0000
     54 H18        6.6554    5.8154   -4.9002 H         2 RES2    0.0000
     55 C27        8.6845    5.8468   -4.7648 C.ar      2 RES2    0.0000
     56 H19        8.7280    6.7759   -4.8700 H         2 RES2    0.0000
     57 C28        9.8258    5.0643   -4.6200 C.ar      2 RES2    0.0000
     58 C29        9.7194    3.6849   -4.4871 C.ar      2 RES2    0.0000
     59 H20       10.4981    3.1486   -4.3682 H         2 RES2    0.0000
     60 C30        8.4808    3.0918   -4.5249 C.ar      2 RES2    0.0000
     61 H21        8.4057    2.1165   -4.4260 H         2 RES2    0.0000
     62 C31        2.1968    4.8910   -4.7737 C.1       2 RES2    0.0000
     63 C32       11.2852    6.9561   -4.7150 C.3       2 RES2    0.0000
     64 H22       10.8240    7.4304   -3.9583 H         2 RES2    0.0000
     65 H23       12.2458    7.0771   -4.6795 H         2 RES2    0.0000
     66 H24       10.8683    7.2936   -5.5899 H         2 RES2    0.0000
@<TRIPOS>BOND
     1    1    4 2
     2    2    4 2
     3    3   24 1
     4    4   10 1
     5    5   29 3
     6    6    7 ar
     7    7    8 ar
     8    8    9 1
     9   10    8 ar
    10   11   10 ar
    11   12   11 1
    12   13    6 ar
    13   14   13 1
    14   15    6 1
    15   16   15 1
    16   17   15 2
    17   18   17 1
    18   19   17 1
    19   20   19 ar
    20   21   20 1
    21   22   20 ar
    22   23   22 1
    23   24   22 ar
    24   25   24 ar
    25   26   25 1
    26   27   19 ar
    27   28   27 1
    28   29    7 1
    29   30    3 1
    30   31   30 1
    31   32   30 1
    32   33   30 1
    33   34   37 2
    34   35   37 2
    35   36   57 1
    36   37   43 1
    37   38   62 3
    38   39   40 ar
    39   40   41 ar
    40   41   42 1
    41   43   41 ar
    42   44   43 ar
    43   45   44 1
    44   46   39 ar
    45   47   46 1
    46   48   39 1
    47   49   48 1
    48   50   48 2
    49   51   50 1
    50   52   50 1
    51   53   52 ar
    52   54   53 1
    53   55   53 ar
    54   56   55 1
    55   57   55 ar
    56   58   57 ar
    57   59   58 1
    58   60   52 ar
    59   61   60 1
    60   62   40 1
    61   63   36 1
    62   64   63 1
    63   65   63 1
    64   66   63 1
    65   11   13 ar
    66   25   27 ar
    67   44   46 ar
    68   58   60 ar
@<TRIPOS>SUBSTRUCTURE
     1 RES1 1
     2 RES2 34

@<TRIPOS>CRYSIN
  12.7728   16.2804   14.1254  90.0000 111.5570  90.0000  14 1

