# MOL2 file generated by ConQuest
# Please check atom types

@<TRIPOS>MOLECULE
MALZIJ
    68    70     2
SMALL
NO_CHARGES
****
Generated from CSD

@<TRIPOS>ATOM
      1 O1         3.3255    7.7692    4.1963 O.2       1 RES1    0.0000
      2 O2         4.7233    7.9208    5.8334 O.2       1 RES1    0.0000
      3 O3         7.1638   12.1860    5.3830 O.2       1 RES1    0.0000
      4 O4         5.9806   13.9752    5.3551 O.2       1 RES1    0.0000
      5 O5        -5.0615    7.9047    4.6976 O.3       1 RES1    0.0000
      6 N1         3.9486    8.4176    5.0249 N.pl3     1 RES1    0.0000
      7 N2         6.0889   12.7641    5.3062 N.pl3     1 RES1    0.0000
      8 C1         2.5061   10.4615    4.9723 C.ar      1 RES1    0.0000
      9 C2         3.7817    9.8812    5.0519 C.ar      1 RES1    0.0000
     10 C3         4.9666   10.5957    5.1699 C.ar      1 RES1    0.0000
     11 H1         5.8094   10.1144    5.2598 H         1 RES1    0.0000
     12 C4         4.8714   11.9702    5.1735 C.ar      1 RES1    0.0000
     13 C5         3.6470   12.6205    5.0664 C.ar      1 RES1    0.0000
     14 H2         3.5646   13.5805    5.0827 H         1 RES1    0.0000
     15 C6         2.5012   11.8733    4.9764 C.ar      1 RES1    0.0000
     16 H3         1.7344   12.3042    4.9388 H         1 RES1    0.0000
     17 C7         1.2623    9.6974    4.9569 C.2       1 RES1    0.0000
     18 H4         1.3374    8.7513    5.0068 H         1 RES1    0.0000
     19 C8         0.0486   10.2330    4.8766 C.2       1 RES1    0.0000
     20 H5        -0.0245   11.2045    4.7630 H         1 RES1    0.0000
     21 C9        -1.2372    9.5507    4.8629 C.ar      1 RES1    0.0000
     22 C10       -2.3858   10.3053    4.6062 C.ar      1 RES1    0.0000
     23 H6        -2.2836   11.2724    4.4021 H         1 RES1    0.0000
     24 C11       -3.6345    9.7308    4.5495 C.ar      1 RES1    0.0000
     25 H7        -4.3882   10.2390    4.3608 H         1 RES1    0.0000
     26 C12       -3.7775    8.3671    4.7636 C.ar      1 RES1    0.0000
     27 C13       -2.6580    7.5843    5.0311 C.ar      1 RES1    0.0000
     28 H8        -2.7236    6.6498    5.1812 H         1 RES1    0.0000
     29 C14       -1.4072    8.1767    5.0780 C.ar      1 RES1    0.0000
     30 H9        -0.6516    7.6627    5.3011 H         1 RES1    0.0000
     31 C15       -5.2686    6.4959    4.7763 C.3       1 RES1    0.0000
     32 H10       -6.2368    6.3737    4.7417 H         1 RES1    0.0000
     33 H11       -5.0010    6.0835    5.6341 H         1 RES1    0.0000
     34 H12       -4.7849    6.0535    4.0225 H         1 RES1    0.0000
     35 O6         0.0937   11.7771    0.4646 O.2       2 RES2    0.0000
     36 O7        -1.5741   11.8069    1.8100 O.2       2 RES2    0.0000
     37 O8        -3.9357    7.4183    1.5368 O.2       2 RES2    0.0000
     38 O9        -2.7347    5.7091    2.0737 O.2       2 RES2    0.0000
     39 O10        8.2951   11.7127    1.8493 O.3       2 RES2    0.0000
     40 N3        -0.6937   11.2288    1.2482 N.pl3     2 RES2    0.0000
     41 N4        -2.8587    6.8895    1.7674 N.pl3     2 RES2    0.0000
     42 C16        0.7205    9.2074    1.5504 C.ar      2 RES2    0.0000
     43 C17       -0.5541    9.7812    1.4420 C.ar      2 RES2    0.0000
     44 C18       -1.7364    9.0622    1.5151 C.ar      2 RES2    0.0000
     45 H13       -2.5439    9.4596    1.4745 H         2 RES2    0.0000
     46 C19       -1.6399    7.6961    1.6757 C.ar      2 RES2    0.0000
     47 C20       -0.4105    7.0618    1.7776 C.ar      2 RES2    0.0000
     48 H14       -0.3670    6.0929    1.8900 H         2 RES2    0.0000
     49 C21        0.7355    7.8074    1.7266 C.ar      2 RES2    0.0000
     50 H15        1.5663    7.3582    1.8008 H         2 RES2    0.0000
     51 C22        1.9633    9.9718    1.5589 C.2       2 RES2    0.0000
     52 H16        1.8679   10.9111    1.6876 H         2 RES2    0.0000
     53 C23        3.1789    9.4314    1.4549 C.2       2 RES2    0.0000
     54 H17        3.2522    8.5446    1.3279 H         2 RES2    0.0000
     55 C24        4.4705   10.0986    1.5365 C.ar      2 RES2    0.0000
     56 C25        5.6289    9.3199    1.5392 C.ar      2 RES2    0.0000
     57 H18        5.5396    8.3364    1.4651 H         2 RES2    0.0000
     58 C26        6.8739    9.8823    1.6593 C.ar      2 RES2    0.0000
     59 H19        7.6332    9.3319    1.6836 H         2 RES2    0.0000
     60 C27        7.0127   11.2610    1.7749 C.ar      2 RES2    0.0000
     61 C28        5.8778   12.0666    1.7757 C.ar      2 RES2    0.0000
     62 H20        5.9275   13.0236    1.8487 H         2 RES2    0.0000
     63 C29        4.6322   11.4813    1.6512 C.ar      2 RES2    0.0000
     64 H21        3.9049   12.0028    1.6449 H         2 RES2    0.0000
     65 C30        8.4909   13.1031    2.0991 C.3       2 RES2    0.0000
     66 H22        8.0872   13.3628    2.9569 H         2 RES2    0.0000
     67 H23        9.4445   13.1750    2.1910 H         2 RES2    0.0000
     68 H24        8.1473   13.6499    1.3453 H         2 RES2    0.0000
@<TRIPOS>BOND
     1    1    6 2
     2    2    6 2
     3    3    7 2
     4    4    7 2
     5    5   26 1
     6    6    9 1
     7    7   12 1
     8    8    9 ar
     9    9   10 ar
    10   10   11 1
    11   12   10 ar
    12   13   12 ar
    13   14   13 1
    14   15    8 ar
    15   16   15 1
    16   17    8 1
    17   18   17 1
    18   19   17 2
    19   20   19 1
    20   21   19 1
    21   22   21 ar
    22   23   22 1
    23   24   22 ar
    24   25   24 1
    25   26   24 ar
    26   27   26 ar
    27   28   27 1
    28   29   21 ar
    29   30   29 1
    30   31    5 1
    31   32   31 1
    32   33   31 1
    33   34   31 1
    34   35   40 2
    35   36   40 2
    36   37   41 2
    37   38   41 2
    38   39   60 1
    39   40   43 1
    40   41   46 1
    41   42   43 ar
    42   43   44 ar
    43   44   45 1
    44   46   44 ar
    45   47   46 ar
    46   48   47 1
    47   49   42 ar
    48   50   49 1
    49   51   42 1
    50   52   51 1
    51   53   51 2
    52   54   53 1
    53   55   53 1
    54   56   55 ar
    55   57   56 1
    56   58   56 ar
    57   59   58 1
    58   60   58 ar
    59   61   60 ar
    60   62   61 1
    61   63   55 ar
    62   64   63 1
    63   65   39 1
    64   66   65 1
    65   67   65 1
    66   68   65 1
    67   13   15 ar
    68   27   29 ar
    69   47   49 ar
    70   61   63 ar
@<TRIPOS>SUBSTRUCTURE
     1 RES1 1
     2 RES2 35

@<TRIPOS>CRYSIN
  13.0098   15.7766   14.7814  90.0000 115.6980  90.0000  14 1

