# MOL2 file generated by ConQuest
# Please check atom types

@<TRIPOS>MOLECULE
MALZOP
    36    37     1
SMALL
NO_CHARGES
****
Generated from CSD

@<TRIPOS>ATOM
      1 O1        10.4936    7.2714    5.7334 O.2       1 RES1    0.0000
      2 O2        12.0181    8.6993    5.1515 O.2       1 RES1    0.0000
      3 O3        16.8407    5.8531    7.8257 O.2       1 RES1    0.0000
      4 O4        16.1314    7.8828    7.6062 O.2       1 RES1    0.0000
      5 O5        13.5645    2.7528    4.2103 O.2       1 RES1    0.0000
      6 O6        13.8262    2.1595    6.2816 O.2       1 RES1    0.0000
      7 O7         6.0171    1.5172    2.6879 O.3       1 RES1    0.0000
      8 N1        11.6597    7.5890    5.5161 N.pl3     1 RES1    0.0000
      9 N2        16.0198    6.6791    7.4402 N.pl3     1 RES1    0.0000
     10 N3        13.6443    2.9901    5.4055 N.pl3     1 RES1    0.0000
     11 C1        12.5054    5.2342    5.4547 C.ar      1 RES1    0.0000
     12 C2        12.7154    6.5892    5.7681 C.ar      1 RES1    0.0000
     13 C3        13.8584    7.0916    6.3640 C.ar      1 RES1    0.0000
     14 H1        13.9619    8.0204    6.5279 H         1 RES1    0.0000
     15 C4        14.8208    6.1924    6.7550 C.ar      1 RES1    0.0000
     16 C5        14.7023    4.8428    6.4997 C.ar      1 RES1    0.0000
     17 H2        15.3722    4.2471    6.7341 H         1 RES1    0.0000
     18 C6        13.5877    4.4082    5.8241 C.ar      1 RES1    0.0000
     19 C7        11.2911    4.7635    4.7828 C.2       1 RES1    0.0000
     20 H3        10.8873    5.3966    4.1747 H         1 RES1    0.0000
     21 C8        10.7260    3.5772    4.9805 C.2       1 RES1    0.0000
     22 H4        11.1127    2.9510    5.5961 H         1 RES1    0.0000
     23 C9         9.4903    3.0995    4.3581 C.ar      1 RES1    0.0000
     24 C10        9.2188    1.7284    4.3353 C.ar      1 RES1    0.0000
     25 H5         9.8195    1.1495    4.6752 H         1 RES1    0.0000
     26 C11        8.0646    1.2358    3.7651 C.ar      1 RES1    0.0000
     27 H6         7.9061    0.2720    3.7136 H         1 RES1    0.0000
     28 C12        7.1336    2.1035    3.2130 C.ar      1 RES1    0.0000
     29 C13        7.3752    3.4757    3.2230 C.ar      1 RES1    0.0000
     30 H7         6.7663    4.0804    2.8198 H         1 RES1    0.0000
     31 C14        8.5442    3.9549    3.7863 C.ar      1 RES1    0.0000
     32 H8         8.7121    4.8701    3.8275 H         1 RES1    0.0000
     33 C15        4.9410    2.3684    2.2918 C.3       1 RES1    0.0000
     34 H9         5.1587    2.9221    1.4906 H         1 RES1    0.0000
     35 H10        4.6946    2.9747    3.0219 H         1 RES1    0.0000
     36 H11        4.2068    1.7813    2.0562 H         1 RES1    0.0000
@<TRIPOS>BOND
     1    1    8 2
     2    2    8 2
     3    3    9 2
     4    4    9 2
     5    5   10 2
     6    6   10 2
     7    7   28 1
     8    8   12 1
     9    9   15 1
    10   10   18 1
    11   11   12 ar
    12   12   13 ar
    13   13   14 1
    14   15   13 ar
    15   16   15 ar
    16   17   16 1
    17   18   11 ar
    18   19   11 1
    19   20   19 1
    20   21   19 2
    21   22   21 1
    22   23   21 1
    23   24   23 ar
    24   25   24 1
    25   26   24 ar
    26   27   26 1
    27   28   26 ar
    28   29   28 ar
    29   30   29 1
    30   31   23 ar
    31   32   31 1
    32   33    7 1
    33   34   33 1
    34   35   33 1
    35   36   33 1
    36   16   18 ar
    37   29   31 ar
@<TRIPOS>SUBSTRUCTURE
     1 RES1 1

@<TRIPOS>CRYSIN
  12.3993    8.7750   13.9430  90.0000 103.4050  90.0000  14 1

