# MOL2 file generated by ConQuest
# Please check atom types

@<TRIPOS>MOLECULE
MAMFOV
    78    84     1
SMALL
NO_CHARGES
****
Generated from CSD

@<TRIPOS>ATOM
      1 C1         2.2427    2.0650    4.0295 C.2       1 RES1    0.0000
      2 N1         2.3066    3.2276    3.3621 N.am      1 RES1    0.0000
      3 C2         1.8056    2.0342    5.4882 C.3       1 RES1    0.0000
      4 O1         3.0357    1.8349    6.2013 O.3       1 RES1    0.0000
      5 N2         2.8494    0.6744    7.0905 N.3       1 RES1    0.0000
      6 C3         1.9433   -0.2117    6.3616 C.3       1 RES1    0.0000
      7 H1         2.4170   -0.7130    5.6644 H         1 RES1    0.0000
      8 C4         0.9536    0.7852    5.7576 C.3       1 RES1    0.0000
      9 H2         0.5724    0.4414    4.9345 H         1 RES1    0.0000
     10 H3         0.2352    0.9826    6.3793 H         1 RES1    0.0000
     11 C5         2.7090    3.1601    1.9462 C.3       1 RES1    0.0000
     12 H4         2.7190    4.0447    1.5743 H         1 RES1    0.0000
     13 H5         2.0828    2.6163    1.4615 H         1 RES1    0.0000
     14 H6         3.5860    2.7745    1.8800 H         1 RES1    0.0000
     15 O2         2.5908    1.0061    3.5299 O.2       1 RES1    0.0000
     16 C6         4.1434    0.1899    7.4093 C.ar      1 RES1    0.0000
     17 C7         4.4496   -1.1652    7.3925 C.ar      1 RES1    0.0000
     18 H7         3.8236   -1.7839    7.0924 H         1 RES1    0.0000
     19 C8         5.6926   -1.5864    7.8250 C.ar      1 RES1    0.0000
     20 H8         5.8918   -2.4953    7.8269 H         1 RES1    0.0000
     21 C9         6.6379   -0.6894    8.2519 C.ar      1 RES1    0.0000
     22 H9         7.4731   -0.9849    8.5343 H         1 RES1    0.0000
     23 C10        6.3366    0.6538    8.2556 C.ar      1 RES1    0.0000
     24 H10        6.9731    1.2678    8.5436 H         1 RES1    0.0000
     25 C11        5.1031    1.0953    7.8390 C.ar      1 RES1    0.0000
     26 H11        4.9113    2.0057    7.8446 H         1 RES1    0.0000
     27 C12        1.2467   -1.1496    7.3496 C.2       1 RES1    0.0000
     28 O3         1.1830   -0.8496    8.5194 O.2       1 RES1    0.0000
     29 C13        0.6208   -2.3938    6.8370 C.ar      1 RES1    0.0000
     30 C14        0.1500   -3.3066    7.7663 C.ar      1 RES1    0.0000
     31 H12        0.2642   -3.1394    8.6741 H         1 RES1    0.0000
     32 C15       -0.4837   -4.4531    7.3608 C.ar      1 RES1    0.0000
     33 H13       -0.8010   -5.0563    7.9946 H         1 RES1    0.0000
     34 C16       -0.6501   -4.7151    6.0242 C.ar      1 RES1    0.0000
     35 H14       -1.0858   -5.4912    5.7539 H         1 RES1    0.0000
     36 C17       -0.1772   -3.8350    5.0865 C.ar      1 RES1    0.0000
     37 H15       -0.2849   -4.0175    4.1805 H         1 RES1    0.0000
     38 C18        0.4630   -2.6713    5.4873 C.ar      1 RES1    0.0000
     39 H16        0.7865   -2.0765    4.8507 H         1 RES1    0.0000
     40 C2A        1.6819    4.4445    3.8328 C.3       1 RES1    0.0000
     41 C1A        1.2448    4.4137    5.2915 C.2       1 RES1    0.0000
     42 N1A        1.1809    3.2511    5.9589 N.am      1 RES1    0.0000
     43 C5A        0.7785    3.3186    7.3748 C.3       1 RES1    0.0000
     44 H4A        0.7684    2.4340    7.7467 H         1 RES1    0.0000
     45 H5A        1.4046    3.8624    7.8595 H         1 RES1    0.0000
     46 H6A       -0.0986    3.7042    7.4410 H         1 RES1    0.0000
     47 O2A        0.8966    5.4726    5.7911 O.2       1 RES1    0.0000
     48 O1A        0.4517    4.6438    3.1197 O.3       1 RES1    0.0000
     49 N2A        0.6380    5.8043    2.2305 N.3       1 RES1    0.0000
     50 C3A        1.5442    6.6904    2.9594 C.3       1 RES1    0.0000
     51 H1A        1.0704    7.1917    3.6566 H         1 RES1    0.0000
     52 C4A        2.5338    5.6935    3.5634 C.3       1 RES1    0.0000
     53 H2A        2.9151    6.0373    4.3865 H         1 RES1    0.0000
     54 H3A        3.2523    5.4961    2.9417 H         1 RES1    0.0000
     55 C12A       2.2408    7.6282    1.9714 C.2       1 RES1    0.0000
     56 O3A        2.3044    7.3282    0.8016 O.2       1 RES1    0.0000
     57 C13A       2.8667    8.8725    2.4840 C.ar      1 RES1    0.0000
     58 C14A       3.3375    9.7853    1.5547 C.ar      1 RES1    0.0000
     59 H12A       3.2233    9.6181    0.6469 H         1 RES1    0.0000
     60 C15A       3.9712   10.9318    1.9602 C.ar      1 RES1    0.0000
     61 H13A       4.2885   11.5350    1.3264 H         1 RES1    0.0000
     62 C16A       4.1376   11.1937    3.2968 C.ar      1 RES1    0.0000
     63 H14A       4.5733   11.9699    3.5672 H         1 RES1    0.0000
     64 C17A       3.6647   10.3137    4.2345 C.ar      1 RES1    0.0000
     65 H15A       3.7724   10.4962    5.1405 H         1 RES1    0.0000
     66 C18A       3.0244    9.1500    3.8337 C.ar      1 RES1    0.0000
     67 H16A       2.7009    8.5552    4.4704 H         1 RES1    0.0000
     68 C6A       -0.6560    6.2888    1.9117 C.ar      1 RES1    0.0000
     69 C7A       -0.9621    7.6439    1.9285 C.ar      1 RES1    0.0000
     70 H7A       -0.3361    8.2626    2.2287 H         1 RES1    0.0000
     71 C8A       -2.2051    8.0651    1.4960 C.ar      1 RES1    0.0000
     72 H8A       -2.4044    8.9740    1.4942 H         1 RES1    0.0000
     73 C9A       -3.1505    7.1681    1.0691 C.ar      1 RES1    0.0000
     74 H9A       -3.9856    7.4635    0.7867 H         1 RES1    0.0000
     75 C10A      -2.8491    5.8249    1.0654 C.ar      1 RES1    0.0000
     76 H10A      -3.4856    5.2109    0.7774 H         1 RES1    0.0000
     77 C11A      -1.6157    5.3833    1.4820 C.ar      1 RES1    0.0000
     78 H11A      -1.4238    4.4730    1.4764 H         1 RES1    0.0000
@<TRIPOS>BOND
     1    1    2 1
     2    2   11 1
     3    3    1 1
     4    4    3 1
     5    5    4 1
     6    6    5 1
     7    7    6 1
     8    8    3 1
     9    9    8 1
    10   10    8 1
    11   11   12 1
    12   13   11 1
    13   14   11 1
    14   15    1 2
    15   16    5 1
    16   17   16 ar
    17   18   17 1
    18   19   17 ar
    19   20   19 1
    20   21   19 ar
    21   22   21 1
    22   23   21 ar
    23   24   23 1
    24   25   16 ar
    25   26   25 1
    26   27    6 1
    27   28   27 2
    28   29   27 1
    29   30   29 ar
    30   31   30 1
    31   32   30 ar
    32   33   32 1
    33   34   32 ar
    34   35   34 1
    35   36   34 ar
    36   37   36 1
    37   38   29 ar
    38   39   38 1
    39   40    2 1
    40   41   40 1
    41   42    3 1
    42   43   42 1
    43   44   43 1
    44   45   43 1
    45   46   43 1
    46   47   41 2
    47   48   40 1
    48   49   48 1
    49   50   49 1
    50   51   50 1
    51   52   40 1
    52   53   52 1
    53   54   52 1
    54   55   50 1
    55   56   55 2
    56   57   55 1
    57   58   57 ar
    58   59   58 1
    59   60   58 ar
    60   61   60 1
    61   62   60 ar
    62   63   62 1
    63   64   62 ar
    64   65   64 1
    65   66   57 ar
    66   67   66 1
    67   68   49 1
    68   69   68 ar
    69   70   69 1
    70   71   69 ar
    71   72   71 1
    72   73   71 ar
    73   74   73 1
    74   75   73 ar
    75   76   75 1
    76   77   68 ar
    77   78   77 1
    78    6    8 1
    79   23   25 ar
    80   36   38 ar
    81   41   42 1
    82   50   52 1
    83   64   66 ar
    84   75   77 ar
@<TRIPOS>SUBSTRUCTURE
     1 RES1 1

@<TRIPOS>CRYSIN
   8.9320    9.6700   10.1050 100.9500 105.6100 106.3700   2 1

