# MOL2 file generated by ConQuest
# Please check atom types

@<TRIPOS>MOLECULE
MAMLEU
    93    96     3
SMALL
NO_CHARGES
****
Generated from CSD

@<TRIPOS>ATOM
      1 C1        -3.7067   -3.4234   -0.6079 C.ar      1 RES1    0.0000
      2 C2        -0.7088   -3.5080   -6.6840 C.ar      1 RES1    0.0000
      3 H1         0.0887   -3.9863   -6.7029 H         1 RES1    0.0000
      4 C3        -1.2054   -2.9272   -7.8314 C.ar      1 RES1    0.0000
      5 O1        -5.0345   -2.1078   -2.0350 O.2       1 RES1    0.0000
      6 C4        -1.4102   -3.3698   -5.5147 C.ar      1 RES1    0.0000
      7 H2        -1.0840   -3.7577   -4.7354 H         1 RES1    0.0000
      8 O2        -4.8282   -3.0603    2.8706 O.3       1 RES1    0.0000
      9 H3        -5.4662   -2.5956    2.6478 H         1 RES1    0.0000
     10 C5        -2.6088   -2.6529   -5.4796 C.ar      1 RES1    0.0000
     11 C6        -3.3978   -2.4996   -4.2597 C.2       1 RES1    0.0000
     12 H4        -4.1175   -1.9136   -4.3032 H         1 RES1    0.0000
     13 C7        -3.0711   -2.0828   -6.6612 C.ar      1 RES1    0.0000
     14 H5        -3.8655   -1.5982   -6.6509 H         1 RES1    0.0000
     15 C8        -2.6476   -4.3068   -0.4273 C.ar      1 RES1    0.0000
     16 H6        -2.1438   -4.5929   -1.1552 H         1 RES1    0.0000
     17 C9        -4.1401   -3.4589    1.7524 C.ar      1 RES1    0.0000
     18 C10       -4.0568   -2.8417   -1.9347 C.2       1 RES1    0.0000
     19 N1        -0.4646   -3.0954   -9.0875 N.pl3     1 RES1    0.0000
     20 O3         0.4987   -3.8360   -9.0785 O.2       1 RES1    0.0000
     21 C11       -3.1992   -3.1038   -3.0999 C.2       1 RES1    0.0000
     22 H7        -2.4993   -3.7100   -3.0200 H         1 RES1    0.0000
     23 O4        -0.8401   -2.4983  -10.0756 O.2       1 RES1    0.0000
     24 C12       -4.4578   -3.0127    0.4858 C.ar      1 RES1    0.0000
     25 H8        -5.1768   -2.4357    0.3642 H         1 RES1    0.0000
     26 C13       -2.3519   -4.7512    0.8394 C.ar      1 RES1    0.0000
     27 H9        -1.6443   -5.3433    0.9644 H         1 RES1    0.0000
     28 C14       -2.3823   -2.2178   -7.8442 C.ar      1 RES1    0.0000
     29 H10       -2.7042   -1.8400   -8.6304 H         1 RES1    0.0000
     30 C15       -3.0872   -4.3339    1.9248 C.ar      1 RES1    0.0000
     31 H11       -2.8745   -4.6410    2.7759 H         1 RES1    0.0000
     32 O5        -4.6270    0.4832    2.9917 O.3       2 RES2    0.0000
     33 H12       -5.2351    0.9712    2.7359 H         2 RES2    0.0000
     34 C16       -0.9460    0.3737   -5.3501 C.ar      2 RES2    0.0000
     35 H13       -0.5895    0.0163   -4.5686 H         2 RES2    0.0000
     36 O6        -4.6417    1.4727   -1.8872 O.2       2 RES2    0.0000
     37 C17       -0.2436    0.2618   -6.5195 C.ar      2 RES2    0.0000
     38 H14        0.5811   -0.1671   -6.5402 H         2 RES2    0.0000
     39 C18       -2.1846    1.0132   -5.3054 C.ar      2 RES2    0.0000
     40 C19       -3.5702    0.8919   -1.7326 C.2       2 RES2    0.0000
     41 C20       -2.9633    1.1560   -4.0796 C.2       2 RES2    0.0000
     42 H15       -3.7647    1.6221   -4.1551 H         2 RES2    0.0000
     43 C21       -0.7879    0.7994   -7.6641 C.ar      2 RES2    0.0000
     44 C22       -3.1903    0.3927   -0.3771 C.ar      2 RES2    0.0000
     45 C23       -3.7759    0.2323    1.9522 C.ar      2 RES2    0.0000
     46 N2        -0.0222    0.7132   -8.9255 N.pl3     2 RES2    0.0000
     47 C24       -4.0769    0.6208    0.6639 C.ar      2 RES2    0.0000
     48 H16       -4.8872    1.0421    0.4909 H         2 RES2    0.0000
     49 C25       -2.5862   -0.4145    2.2130 C.ar      2 RES2    0.0000
     50 H17       -2.3788   -0.6782    3.0800 H         2 RES2    0.0000
     51 C26       -2.6636    0.7014   -2.8763 C.2       2 RES2    0.0000
     52 H18       -1.8598    0.2510   -2.7492 H         2 RES2    0.0000
     53 O7        -0.3877    1.3813   -9.8716 O.2       2 RES2    0.0000
     54 C27       -1.9945   -0.2694   -0.1099 C.ar      2 RES2    0.0000
     55 H19       -1.3930   -0.4418   -0.7977 H         2 RES2    0.0000
     56 C28       -2.0190    1.4137   -7.6879 C.ar      2 RES2    0.0000
     57 H20       -2.3756    1.7474   -8.4797 H         2 RES2    0.0000
     58 C29       -1.7047   -0.6691    1.1809 C.ar      2 RES2    0.0000
     59 H21       -0.9074   -1.1152    1.3566 H         2 RES2    0.0000
     60 O8         0.9589    0.0028   -8.9513 O.2       2 RES2    0.0000
     61 C30       -2.7063    1.5171   -6.4980 C.ar      2 RES2    0.0000
     62 H22       -3.5384    1.9334   -6.4895 H         2 RES2    0.0000
     63 C31       -1.5590    3.1391    1.5677 C.ar      3 RES3    0.0000
     64 N3        -0.9195    2.4896    2.7130 N.pl3     3 RES3    0.0000
     65 O9        -1.5159    2.4811    3.7730 O.2       3 RES3    0.0000
     66 O10        0.1774    1.9764    2.5567 O.2       3 RES3    0.0000
     67 C32       -2.8422    3.6230    1.6871 C.ar      3 RES3    0.0000
     68 H23       -3.3011    3.5722    2.4944 H         3 RES3    0.0000
     69 C33       -5.1193    5.8572   -3.2474 C.2       3 RES3    0.0000
     70 O11       -6.2162    6.3692   -3.1800 O.2       3 RES3    0.0000
     71 C34       -3.4920    5.4700   -7.1844 C.ar      3 RES3    0.0000
     72 H24       -3.1627    5.4239   -8.0528 H         3 RES3    0.0000
     73 C35       -4.4735    5.6502   -4.5989 C.ar      3 RES3    0.0000
     74 C36       -5.1261    4.8791   -5.5391 C.ar      3 RES3    0.0000
     75 H25       -5.9048    4.4260   -5.3076 H         3 RES3    0.0000
     76 C37       -4.6267    4.7787   -6.8295 C.ar      3 RES3    0.0000
     77 C38       -3.4321    4.1945    0.5538 C.ar      3 RES3    0.0000
     78 H26       -4.2939    4.5394    0.6136 H         3 RES3    0.0000
     79 C39       -1.4830    3.7788   -0.7200 C.ar      3 RES3    0.0000
     80 H27       -1.0176    3.8294   -1.5233 H         3 RES3    0.0000
     81 C40       -3.3276    6.3186   -4.9407 C.ar      3 RES3    0.0000
     82 H28       -2.8755    6.8261   -4.3059 H         3 RES3    0.0000
     83 C41       -0.8677    3.2220    0.3794 C.ar      3 RES3    0.0000
     84 H29        0.0053    2.9057    0.3201 H         3 RES3    0.0000
     85 C42       -2.7565    4.2569   -0.6578 C.ar      3 RES3    0.0000
     86 O12       -5.3118    3.9921   -7.7148 O.3       3 RES3    0.0000
     87 H30       -4.9846    4.0731   -8.4623 H         3 RES3    0.0000
     88 C43       -4.4803    5.4165   -1.9951 C.2       3 RES3    0.0000
     89 H31       -4.9103    5.6183   -1.1952 H         3 RES3    0.0000
     90 C44       -3.3828    4.7808   -1.9335 C.2       3 RES3    0.0000
     91 H32       -2.9302    4.6268   -2.7305 H         3 RES3    0.0000
     92 C45       -2.8460    6.2322   -6.2294 C.ar      3 RES3    0.0000
     93 H33       -2.0748    6.6981   -6.4615 H         3 RES3    0.0000
@<TRIPOS>BOND
     1    1   15 ar
     2    2    3 1
     3    4    2 ar
     4    5   18 2
     5    6    2 ar
     6    7    6 1
     7    8    9 1
     8   10    6 ar
     9   11   10 1
    10   12   11 1
    11   13   10 ar
    12   14   13 1
    13   15   16 1
    14   17    8 1
    15   18    1 1
    16   19    4 1
    17   20   19 2
    18   21   11 2
    19   22   21 1
    20   23   19 2
    21   24    1 ar
    22   25   24 1
    23   26   15 ar
    24   27   26 1
    25   28    4 ar
    26   29   28 1
    27   30   17 ar
    28   31   30 1
    29   32   33 1
    30   34   35 1
    31   36   40 2
    32   37   34 ar
    33   38   37 1
    34   39   34 ar
    35   40   44 1
    36   41   39 1
    37   42   41 1
    38   43   37 ar
    39   44   47 ar
    40   45   32 1
    41   46   43 1
    42   47   45 ar
    43   48   47 1
    44   49   45 ar
    45   50   49 1
    46   51   40 1
    47   52   51 1
    48   53   46 2
    49   54   44 ar
    50   55   54 1
    51   56   43 ar
    52   57   56 1
    53   58   49 ar
    54   59   58 1
    55   60   46 2
    56   61   39 ar
    57   62   61 1
    58   63   64 1
    59   64   65 2
    60   66   64 2
    61   67   63 ar
    62   68   67 1
    63   69   70 2
    64   71   72 1
    65   73   69 1
    66   74   73 ar
    67   75   74 1
    68   76   71 ar
    69   77   67 ar
    70   78   77 1
    71   79   80 1
    72   81   73 ar
    73   82   81 1
    74   83   63 ar
    75   84   83 1
    76   85   77 ar
    77   86   76 1
    78   87   86 1
    79   88   69 1
    80   89   88 1
    81   90   85 1
    82   91   90 1
    83   92   71 ar
    84   93   92 1
    85   13   28 ar
    86   17   24 ar
    87   18   21 1
    88   26   30 ar
    89   41   51 2
    90   54   58 ar
    91   56   61 ar
    92   74   76 ar
    93   79   83 ar
    94   79   85 ar
    95   81   92 ar
    96   88   90 2
@<TRIPOS>SUBSTRUCTURE
     1 RES1 1
     2 RES2 32
     3 RES3 63

@<TRIPOS>CRYSIN
  11.6200   13.2320   13.9810 105.7760  90.6260 112.7210   2 1

