# MOL2 file generated by ConQuest
# Please check atom types

@<TRIPOS>MOLECULE
MAMSUO
    57    60     1
SMALL
NO_CHARGES
****
Generated from CSD

@<TRIPOS>ATOM
      1 C1         1.0303    5.8695    5.1882 C.3       1 RES1    0.0000
      2 H1         1.8740    6.1040    4.7721 H         1 RES1    0.0000
      3 H2         1.1879    5.1115    5.7734 H         1 RES1    0.0000
      4 C2         0.0440    5.4665    4.1145 C.3       1 RES1    0.0000
      5 H3        -0.7621    5.1330    4.5381 H         1 RES1    0.0000
      6 H4         0.4252    4.7407    3.5944 H         1 RES1    0.0000
      7 C3        -0.3287    6.5923    3.1765 C.3       1 RES1    0.0000
      8 H5        -1.0681    6.2954    2.6043 H         1 RES1    0.0000
      9 C4        -0.7380    7.8781    3.8768 C.3       1 RES1    0.0000
     10 H6        -0.6348    8.5987    3.2210 H         1 RES1    0.0000
     11 C5         0.2122    8.2065    5.0433 C.3       1 RES1    0.0000
     12 H7         1.0686    8.4051    4.6105 H         1 RES1    0.0000
     13 C6        -0.1331    9.4650    5.7808 C.2       1 RES1    0.0000
     14 H8        -0.6360   10.1104    5.3387 H         1 RES1    0.0000
     15 C7         0.2341    9.7045    7.0105 C.2       1 RES1    0.0000
     16 H9        -0.0370   10.5084    7.3913 H         1 RES1    0.0000
     17 C8         1.0607    8.7816    7.8557 C.3       1 RES1    0.0000
     18 H10        0.5093    8.4338    8.5876 H         1 RES1    0.0000
     19 C9         1.6051    7.6041    7.0309 C.3       1 RES1    0.0000
     20 C10        0.5367    7.0570    6.0279 C.3       1 RES1    0.0000
     21 C11        2.8919    8.1893    6.3957 C.3       1 RES1    0.0000
     22 H11        3.5169    7.4808    6.1765 H         1 RES1    0.0000
     23 H12        2.6804    8.6812    5.5876 H         1 RES1    0.0000
     24 C12        3.4800    9.1186    7.4545 C.3       1 RES1    0.0000
     25 H13        4.1935    8.6511    7.9356 H         1 RES1    0.0000
     26 C13        2.3198    9.4514    8.4427 C.3       1 RES1    0.0000
     27 H14        2.5134    9.0986    9.3269 H         1 RES1    0.0000
     28 H15        2.1953   10.4109    8.5114 H         1 RES1    0.0000
     29 C14       -2.2427    7.7985    4.2093 C.3       1 RES1    0.0000
     30 H16       -2.4387    6.9451    4.6031 H         1 RES1    0.0000
     31 H17       -2.7537    7.9060    3.4049 H         1 RES1    0.0000
     32 H18       -2.4703    8.4962    4.8279 H         1 RES1    0.0000
     33 C15       -0.7077    6.6418    6.8489 C.3       1 RES1    0.0000
     34 H19       -0.4511    6.0014    7.5158 H         1 RES1    0.0000
     35 H20       -1.3607    6.2510    6.2638 H         1 RES1    0.0000
     36 H21       -1.0826    7.4155    7.2743 H         1 RES1    0.0000
     37 C16        2.0488    6.4618    7.9096 C.2       1 RES1    0.0000
     38 H22        2.6078    5.8322    7.5158 H         1 RES1    0.0000
     39 C17        4.0203   10.3298    6.8508 C.1       1 RES1    0.0000
     40 C18        0.6239    7.2377    1.0923 C.2       1 RES1    0.0000
     41 C19        1.8443    7.1739    0.2322 C.ar      1 RES1    0.0000
     42 C20        3.1205    6.9465    0.7375 C.ar      1 RES1    0.0000
     43 H23        3.2449    6.8591    1.6551 H         1 RES1    0.0000
     44 C21        4.2004    6.8505   -0.1096 C.ar      1 RES1    0.0000
     45 H24        5.0578    6.7042    0.2211 H         1 RES1    0.0000
     46 C22        3.9706    6.9774   -1.4675 C.ar      1 RES1    0.0000
     47 C23        2.7323    7.2291   -1.9950 C.ar      1 RES1    0.0000
     48 H25        2.6165    7.3395   -2.9127 H         1 RES1    0.0000
     49 C24        1.6703    7.3123   -1.1387 C.ar      1 RES1    0.0000
     50 H26        0.8185    7.4650   -1.4786 H         1 RES1    0.0000
     51 O1         1.7669    6.2725    9.0501 O.2       1 RES1    0.0000
     52 O2         0.8617    6.7981    2.3402 O.3       1 RES1    0.0000
     53 O3        -0.4461    7.5934    0.6905 O.2       1 RES1    0.0000
     54 O4         6.1758    6.4410   -1.9616 O.2       1 RES1    0.0000
     55 O5         4.9350    7.0570   -3.5536 O.2       1 RES1    0.0000
     56 N1         4.4474   11.2785    6.3752 N.1       1 RES1    0.0000
     57 N2         5.1069    6.8074   -2.3963 N.pl3     1 RES1    0.0000
@<TRIPOS>BOND
     1    1    2 1
     2    3    1 1
     3    4    1 1
     4    5    4 1
     5    6    4 1
     6    7    4 1
     7    8    7 1
     8    9    7 1
     9   10    9 1
    10   11    9 1
    11   12   11 1
    12   13   11 1
    13   14   13 1
    14   15   13 2
    15   16   15 1
    16   17   15 1
    17   18   17 1
    18   19   17 1
    19   20    1 1
    20   21   19 1
    21   22   21 1
    22   23   21 1
    23   24   21 1
    24   25   24 1
    25   26   17 1
    26   27   26 1
    27   28   26 1
    28   29    9 1
    29   30   29 1
    30   31   29 1
    31   32   29 1
    32   33   20 1
    33   34   33 1
    34   35   33 1
    35   36   33 1
    36   37   19 1
    37   38   37 1
    38   39   24 1
    39   40   41 1
    40   41   42 ar
    41   42   43 1
    42   44   42 ar
    43   45   44 1
    44   46   44 ar
    45   47   46 ar
    46   48   47 1
    47   49   41 ar
    48   50   49 1
    49   51   37 2
    50   52    7 1
    51   53   40 2
    52   54   57 2
    53   55   57 2
    54   56   39 3
    55   57   46 1
    56   11   20 1
    57   19   20 1
    58   24   26 1
    59   40   52 1
    60   47   49 ar
@<TRIPOS>SUBSTRUCTURE
     1 RES1 1

@<TRIPOS>CRYSIN
   7.8394    7.1710   18.5764  90.0000  90.4570  90.0000   4 1

