# MOL2 file generated by ConQuest
# Please check atom types

@<TRIPOS>MOLECULE
MAMVUS
    21    21     1
SMALL
USER_CHARGES
****
Generated from CSD

@<TRIPOS>ATOM
      1 N1         7.0029    0.9900   14.3858 N.pl3     1 RES1    1.0000
      2 N2         7.4133    0.1873   15.3115 N.2       1 RES1    0.0000
      3 N3         5.7685    0.9228   13.7870 N.3       1 RES1    0.0000
      4 O1         6.4567   -0.7691   15.6468 O.3       1 RES1    0.0000
      5 C1         5.1630   -0.1873   15.8223 C.3       1 RES1    0.0000
      6 H1         5.2248    0.5697   16.4094 H         1 RES1    0.0000
      7 H2         4.5568   -0.8256   16.2061 H         1 RES1    0.0000
      8 C2         4.6850    0.2638   14.5173 C.3       1 RES1    0.0000
      9 H3         4.3990   -0.5018   14.0138 H         1 RES1    0.0000
     10 H4         3.9437    0.8692   14.5960 H         1 RES1    0.0000
     11 C3         5.4401    2.0636   12.8957 C.3       1 RES1    0.0000
     12 H5         6.2269    2.2588   12.3810 H         1 RES1    0.0000
     13 C4         4.3743    1.6112   11.9125 C.3       1 RES1    0.0000
     14 H6         4.6711    0.8227   11.4524 H         1 RES1    0.0000
     15 H7         3.5857    1.4074   12.4201 H         1 RES1    0.0000
     16 H8         4.1748    2.2995   11.2735 H         1 RES1    0.0000
     17 C5         5.0348    3.2945   13.6778 C.3       1 RES1    0.0000
     18 H9         5.7495    3.5683   14.2578 H         1 RES1    0.0000
     19 H10        4.8422    3.9986   13.0543 H         1 RES1    0.0000
     20 H11        4.2525    3.1072   14.2009 H         1 RES1    0.0000
     21 O2         7.8237    1.8535   13.9631 O.2       1 RES1   -1.0000
@<TRIPOS>BOND
     1    1    2 2
     2    2    4 1
     3    3    1 1
     4    4    5 1
     5    5    6 1
     6    7    5 1
     7    8    3 1
     8    9    8 1
     9   10    8 1
    10   11    3 1
    11   12   11 1
    12   13   11 1
    13   14   13 1
    14   15   13 1
    15   16   13 1
    16   17   11 1
    17   18   17 1
    18   19   17 1
    19   20   17 1
    20   21    1 1
    21    5    8 1
@<TRIPOS>SUBSTRUCTURE
     1 RES1 1

@<TRIPOS>CRYSIN
   6.3140    7.1480   16.2630  90.0000  90.0000  90.0000  19 1

