# MOL2 file generated by ConQuest
# Please check atom types

@<TRIPOS>MOLECULE
MANBIO
    27    28     1
SMALL
NO_CHARGES
****
Generated from CSD

@<TRIPOS>ATOM
      1 N1         5.6625    1.8843    7.1390 N.3       1 RES1    0.0000
      2 O1         9.9605   -1.4605    4.0175 O.2       1 RES1    0.0000
      3 N2         8.8807   -1.8551    4.4711 N.pl3     1 RES1    0.0000
      4 O2         8.4579   -2.9949    4.3009 O.2       1 RES1    0.0000
      5 C1         5.9857   -0.3981    6.2805 C.ar      1 RES1    0.0000
      6 C2         3.7722    3.2449    7.4877 C.3       1 RES1    0.0000
      7 H1         3.5893    3.6056    6.6059 H         1 RES1    0.0000
      8 H2         2.9832    3.3449    8.0427 H         1 RES1    0.0000
      9 C3         4.2117    1.7927    7.4107 C.3       1 RES1    0.0000
     10 H3         4.0426    1.3331    8.2482 H         1 RES1    0.0000
     11 H4         3.7522    1.3265    6.6952 H         1 RES1    0.0000
     12 C4         6.4221    0.9390    6.5548 C.ar      1 RES1    0.0000
     13 C5         7.7553    1.2607    6.1540 C.ar      1 RES1    0.0000
     14 H5         8.0941    2.1037    6.3513 H         1 RES1    0.0000
     15 C6         8.5508    0.3627    5.4855 C.ar      1 RES1    0.0000
     16 H6         9.4086    0.6050    5.2224 H         1 RES1    0.0000
     17 C7         8.0672   -0.9103    5.2045 C.ar      1 RES1    0.0000
     18 C8         4.9778    3.9160    8.1180 C.3       1 RES1    0.0000
     19 H7         5.0066    3.7565    9.0743 H         1 RES1    0.0000
     20 H8         4.9711    4.8731    7.9551 H         1 RES1    0.0000
     21 C9         6.1592    3.2428    7.4099 C.3       1 RES1    0.0000
     22 H9         6.3821    3.7040    6.5863 H         1 RES1    0.0000
     23 H10        6.9425    3.2203    7.9821 H         1 RES1    0.0000
     24 C10        6.8104   -1.2904    5.6087 C.ar      1 RES1    0.0000
     25 H11        6.5094   -2.1529    5.4311 H         1 RES1    0.0000
     26 C11        4.7104   -0.9358    6.6772 C.1       1 RES1    0.0000
     27 N3         3.7347   -1.4865    6.9580 N.1       1 RES1    0.0000
@<TRIPOS>BOND
     1    1    9 1
     2    2    3 2
     3    3    4 2
     4    5   12 ar
     5    6    7 1
     6    8    6 1
     7    9    6 1
     8   10    9 1
     9   11    9 1
    10   12    1 1
    11   13   12 ar
    12   14   13 1
    13   15   13 ar
    14   16   15 1
    15   17    3 1
    16   18    6 1
    17   19   18 1
    18   20   18 1
    19   21    1 1
    20   22   21 1
    21   23   21 1
    22   24    5 ar
    23   25   24 1
    24   26    5 1
    25   27   26 3
    26   15   17 ar
    27   17   24 ar
    28   18   21 1
@<TRIPOS>SUBSTRUCTURE
     1 RES1 1

@<TRIPOS>CRYSIN
   7.5423   16.3967    8.2715  90.0000  98.2060  90.0000 231 1

