# MOL2 file generated by ConQuest
# Please check atom types

@<TRIPOS>MOLECULE
MANXUW
    34    35     1
SMALL
NO_CHARGES
****
Generated from CSD

@<TRIPOS>ATOM
      1 C1         6.6316    5.1787    6.2253 C.3       1 RES1    0.0000
      2 H1         6.9411    5.2270    7.1334 H         1 RES1    0.0000
      3 H2         5.7065    4.9220    6.2164 H         1 RES1    0.0000
      4 H3         6.7300    6.0372    5.8079 H         1 RES1    0.0000
      5 C2         7.4345    4.1699    5.4817 C.3       1 RES1    0.0000
      6 H4         7.3049    3.3026    5.8964 H         1 RES1    0.0000
      7 H5         8.3737    4.3973    5.5648 H         1 RES1    0.0000
      8 C3         7.0879    4.0579    3.9942 C.3       1 RES1    0.0000
      9 H6         7.1167    4.9420    3.5967 H         1 RES1    0.0000
     10 H7         7.7598    3.5135    3.5538 H         1 RES1    0.0000
     11 C4         5.7392    3.4588    3.7499 C.3       1 RES1    0.0000
     12 H8         5.7141    2.5522    4.1115 H         1 RES1    0.0000
     13 C5         4.4151    2.6034    1.9744 C.3       1 RES1    0.0000
     14 H9         4.4348    1.7627    2.4186 H         1 RES1    0.0000
     15 C6         4.4302    2.3977    0.4758 C.3       1 RES1    0.0000
     16 H10        5.3311    2.0733    0.1948 H         1 RES1    0.0000
     17 C7         3.3114    4.5531    0.3775 C.ar      1 RES1    0.0000
     18 C8         2.9381    5.7356   -0.2744 C.ar      1 RES1    0.0000
     19 H11        3.2885    5.9077   -1.1441 H         1 RES1    0.0000
     20 C9         2.1040    6.6384    0.3245 C.ar      1 RES1    0.0000
     21 H12        1.8559    7.4218   -0.1162 H         1 RES1    0.0000
     22 C10        1.6290    6.3805    1.6015 C.ar      1 RES1    0.0000
     23 C11        1.9967    5.2368    2.2970 C.ar      1 RES1    0.0000
     24 H13        1.6841    5.0858    3.1596 H         1 RES1    0.0000
     25 C12        2.8295    4.3329    1.6887 C.ar      1 RES1    0.0000
     26 N1         0.7585    7.3367    2.2367 N.pl3     1 RES1    0.0000
     27 N2         4.1174    3.6259   -0.2038 N.pl3     1 RES1    0.0000
     28 H14        4.5311    3.8374   -0.8670 H         1 RES1    0.0000
     29 O1         0.4552    8.3444    1.6142 O.2       1 RES1    0.0000
     30 O2         0.3491    7.1178    3.3729 O.2       1 RES1    0.0000
     31 O3         3.1784    3.1955    2.3846 O.3       1 RES1    0.0000
     32 O4         5.5031    3.4088    2.3302 O.3       1 RES1    0.0000
     33 H15        5.0119    3.9747    4.1919 H         1 RES1    0.0000
     34 H16        3.7963    1.6812    0.2851 H         1 RES1    0.0000
@<TRIPOS>BOND
     1    1    2 1
     2    3    1 1
     3    4    1 1
     4    5    1 1
     5    6    5 1
     6    7    5 1
     7    8    5 1
     8    9    8 1
     9   10    8 1
    10   11    8 1
    11   12   11 1
    12   13   14 1
    13   15   13 1
    14   16   15 1
    15   17   18 ar
    16   18   19 1
    17   20   18 ar
    18   21   20 1
    19   22   20 ar
    20   23   22 ar
    21   24   23 1
    22   25   17 ar
    23   26   22 1
    24   27   15 1
    25   28   27 1
    26   29   26 2
    27   30   26 2
    28   31   13 1
    29   32   11 1
    30   33   11 1
    31   34   15 1
    32   13   32 1
    33   17   27 1
    34   23   25 ar
    35   25   31 1
@<TRIPOS>SUBSTRUCTURE
     1 RES1 1

@<TRIPOS>CRYSIN
   8.4180    8.8610    9.9440  64.8900  88.0700  71.1100   2 1

