# MOL2 file generated by ConQuest
# Please check atom types

@<TRIPOS>MOLECULE
MAPANA
    44    46     1
SMALL
NO_CHARGES
****
Generated from CSD

@<TRIPOS>ATOM
      1 C1         0.9467   -1.6503    3.9425 C.ar      1 RES1    0.0000
      2 C2         0.6751   -2.8870    4.4378 C.ar      1 RES1    0.0000
      3 C3         1.2110   -3.3136    5.6584 C.ar      1 RES1    0.0000
      4 C4         1.9944   -2.4906    6.3491 C.ar      1 RES1    0.0000
      5 C5         4.3545    1.5353    7.0095 C.ar      1 RES1    0.0000
      6 C6         4.7341    2.7749    6.6654 C.ar      1 RES1    0.0000
      7 C7         4.2343    3.3506    5.4990 C.ar      1 RES1    0.0000
      8 C8         3.3839    2.6624    4.7048 C.ar      1 RES1    0.0000
      9 C9         2.1275    0.5581    4.1594 C.ar      1 RES1    0.0000
     10 N1         3.1433   -0.4699    6.6522 N.ar      1 RES1    0.0000
     11 C10        1.7942   -0.7500    4.6128 C.ar      1 RES1    0.0000
     12 C11        2.3371   -1.1915    5.8703 C.ar      1 RES1    0.0000
     13 C12        3.4546    0.7732    6.2120 C.ar      1 RES1    0.0000
     14 C13        2.9692    1.3543    5.0136 C.ar      1 RES1    0.0000
     15 N2        -0.1859   -3.7821    3.6838 N.pl3     1 RES1    0.0000
     16 O1        -0.3454   -4.9196    4.1167 O.2       1 RES1    0.0000
     17 O2        -0.7146   -3.3748    2.6538 O.2       1 RES1    0.0000
     18 N3         1.7331    1.0871    3.0029 N.3       1 RES1    0.0000
     19 C14        1.1100    0.4987    1.8210 C.3       1 RES1    0.0000
     20 C15        1.2968    1.4196    0.6168 C.3       1 RES1    0.0000
     21 C16        0.9870    2.7728    0.7376 C.3       1 RES1    0.0000
     22 N4         1.8214    3.5755    1.6468 N.3       1 RES1    0.0000
     23 C17        1.0487    4.7390    2.0690 C.3       1 RES1    0.0000
     24 C18        3.0478    3.9887    1.0497 C.3       1 RES1    0.0000
     25 H1         0.5738   -1.4433    3.2427 H         1 RES1    0.0000
     26 H2         1.0352   -4.0802    5.9040 H         1 RES1    0.0000
     27 H3         2.3582   -2.7102    7.0908 H         1 RES1    0.0000
     28 H4         4.6839    1.1172    7.6847 H         1 RES1    0.0000
     29 H5         5.3527    3.2619    7.1976 H         1 RES1    0.0000
     30 H6         4.4942    4.1275    5.2493 H         1 RES1    0.0000
     31 H7         3.0845    3.0122    4.0271 H         1 RES1    0.0000
     32 H8         1.8459    1.7799    2.8739 H         1 RES1    0.0000
     33 H9         0.1373    0.4183    2.0854 H         1 RES1    0.0000
     34 H10        1.5954   -0.3787    1.5614 H         1 RES1    0.0000
     35 H11        0.7752    0.9957   -0.2283 H         1 RES1    0.0000
     36 H12        2.3601    1.4090    0.4246 H         1 RES1    0.0000
     37 H13        1.0267    3.2190   -0.2456 H         1 RES1    0.0000
     38 H14       -0.0285    2.7960    1.1039 H         1 RES1    0.0000
     39 H15        0.7666    5.1144    1.2378 H         1 RES1    0.0000
     40 H16        0.2001    4.4155    2.3877 H         1 RES1    0.0000
     41 H17        1.6390    5.2540    2.6251 H         1 RES1    0.0000
     42 H18        2.8371    4.5450    0.3047 H         1 RES1    0.0000
     43 H19        3.5348    4.4802    1.5532 H         1 RES1    0.0000
     44 H20        3.7768    3.3176    1.0604 H         1 RES1    0.0000
@<TRIPOS>BOND
     1    1    2 ar
     2    2    3 ar
     3    3    4 ar
     4    4   12 ar
     5    5    6 ar
     6    6    7 ar
     7    7    8 ar
     8    8   14 ar
     9    9   11 ar
    10   10   12 ar
    11   11    1 ar
    12   12   11 ar
    13   13    5 ar
    14   14    9 ar
    15   15    2 1
    16   16   15 2
    17   17   15 2
    18   18    9 1
    19   19   18 1
    20   20   19 1
    21   21   20 1
    22   22   21 1
    23   23   22 1
    24   24   22 1
    25   25    1 1
    26   26    3 1
    27   27    4 1
    28   28    5 1
    29   29    6 1
    30   30    7 1
    31   31    8 1
    32   32   18 1
    33   33   19 1
    34   34   19 1
    35   35   20 1
    36   36   20 1
    37   37   21 1
    38   38   21 1
    39   39   23 1
    40   40   23 1
    41   41   23 1
    42   42   24 1
    43   43   24 1
    44   44   24 1
    45   10   13 ar
    46   13   14 ar
@<TRIPOS>SUBSTRUCTURE
     1 RES1 1

@<TRIPOS>CRYSIN
   8.5600   12.7000    8.5800  98.3500  99.9200 113.2700   2 1

