# MOL2 file generated by ConQuest
# Please check atom types

@<TRIPOS>MOLECULE
MAPFUF
    35    36     1
SMALL
NO_CHARGES
****
Generated from CSD

@<TRIPOS>ATOM
      1 N1         2.8044    0.1068    6.4245 N.2       1 RES1    0.0000
      2 O1        -1.1204    1.6630    9.1816 O.3       1 RES1    0.0000
      3 C1         6.6148   -0.9068    5.1302 C.ar      1 RES1    0.0000
      4 C2         4.0811   -0.2600    5.9319 C.ar      1 RES1    0.0000
      5 C3         0.2628    0.9368    7.4351 C.ar      1 RES1    0.0000
      6 O2         1.2115    0.7605    8.3784 O.3       1 RES1    0.0000
      7 H1         1.9045    0.5051    8.0240 H         1 RES1    0.0000
      8 C4         1.8209    0.3049    5.6257 C.2       1 RES1    0.0000
      9 H2         1.9583    0.1916    4.7133 H         1 RES1    0.0000
     10 C5         0.5100    0.6974    6.0858 C.ar      1 RES1    0.0000
     11 C6        -0.9983    1.4034    7.8385 C.ar      1 RES1    0.0000
     12 C7        -1.9877    1.5686    6.9099 C.ar      1 RES1    0.0000
     13 H3        -2.8262    1.8621    7.1801 H         1 RES1    0.0000
     14 N2         7.9816   -1.2409    4.7062 N.pl3     1 RES1    0.0000
     15 O3         8.1591   -1.5010    3.5229 O.2       1 RES1    0.0000
     16 C8         4.2916   -0.8784    4.7019 C.ar      1 RES1    0.0000
     17 H4         3.5689   -1.0757    4.1503 H         1 RES1    0.0000
     18 O4         8.8667   -1.2367    5.5451 O.2       1 RES1    0.0000
     19 C9         5.1578    0.0014    6.7553 C.ar      1 RES1    0.0000
     20 H5         5.0166    0.3982    7.5848 H         1 RES1    0.0000
     21 C10        5.5677   -1.1975    4.3048 C.ar      1 RES1    0.0000
     22 H6         5.7171   -1.6071    3.4827 H         1 RES1    0.0000
     23 C11       -0.5248    0.8805    5.1624 C.ar      1 RES1    0.0000
     24 H7        -0.3726    0.7117    4.2604 H         1 RES1    0.0000
     25 C12        6.4412   -0.3206    6.3594 C.ar      1 RES1    0.0000
     26 H8         7.1697   -0.1446    6.9117 H         1 RES1    0.0000
     27 C13       -1.7542    1.3036    5.5678 C.ar      1 RES1    0.0000
     28 H9        -2.4358    1.4148    4.9460 H         1 RES1    0.0000
     29 C14       -2.1282    2.7697   11.0159 C.3       1 RES1    0.0000
     30 H10       -2.9152    3.2334   11.3153 H         1 RES1    0.0000
     31 H11       -1.3679    3.3531   11.0827 H         1 RES1    0.0000
     32 H12       -1.9846    1.9946   11.5645 H         1 RES1    0.0000
     33 C15       -2.3108    2.3458    9.5864 C.3       1 RES1    0.0000
     34 H13       -3.0773    1.7574    9.5065 H         1 RES1    0.0000
     35 H14       -2.4602    3.1223    9.0233 H         1 RES1    0.0000
@<TRIPOS>BOND
     1    1    4 1
     2    2   11 1
     3    3   14 1
     4    4   16 ar
     5    5    6 1
     6    6    7 1
     7    8    1 2
     8    9    8 1
     9   10    5 ar
    10   11    5 ar
    11   12   11 ar
    12   13   12 1
    13   14   15 2
    14   16   17 1
    15   18   14 2
    16   19    4 ar
    17   20   19 1
    18   21    3 ar
    19   22   21 1
    20   23   10 ar
    21   24   23 1
    22   25    3 ar
    23   26   25 1
    24   27   12 ar
    25   28   27 1
    26   29   30 1
    27   31   29 1
    28   32   29 1
    29   33    2 1
    30   34   33 1
    31   35   33 1
    32    8   10 1
    33   16   21 ar
    34   19   25 ar
    35   23   27 ar
    36   29   33 1
@<TRIPOS>SUBSTRUCTURE
     1 RES1 1

@<TRIPOS>CRYSIN
  27.8830    7.1237   14.7975  90.0000 111.5240  90.0000  15 1

