# MOL2 file generated by ConQuest
# Please check atom types

@<TRIPOS>MOLECULE
MAPFOZ
    32    33     1
SMALL
NO_CHARGES
****
Generated from CSD

@<TRIPOS>ATOM
      1 C1        -0.0006    6.8898    3.5786 C.ar      1 RES1    0.0000
      2 N1         0.8525    7.9403    3.9868 N.2       1 RES1    0.0000
      3 O1         3.0570    8.7355    5.1362 O.3       1 RES1    0.0000
      4 H1         2.5100    8.1945    4.8531 H         1 RES1    0.0000
      5 C2         0.5606    9.1658    3.7769 C.2       1 RES1    0.0000
      6 H2        -0.2378    9.3722    3.3473 H         1 RES1    0.0000
      7 C3         3.4279   11.0597    5.2519 C.ar      1 RES1    0.0000
      8 H3         4.2298   10.9021    5.6951 H         1 RES1    0.0000
      9 C4         2.6376    9.9884    4.8568 C.ar      1 RES1    0.0000
     10 C5        -1.4642    4.6937    2.8355 C.ar      1 RES1    0.0000
     11 C6         0.4003    5.6184    3.9392 C.ar      1 RES1    0.0000
     12 H4         1.1757    5.5071    4.4404 H         1 RES1    0.0000
     13 C7        -1.1736    7.0447    2.8529 C.ar      1 RES1    0.0000
     14 H5        -1.4636    7.8969    2.6205 H         1 RES1    0.0000
     15 C8         1.4350   10.2398    4.1870 C.ar      1 RES1    0.0000
     16 C9        -1.9086    5.9460    2.4768 C.ar      1 RES1    0.0000
     17 H6        -2.6928    6.0478    1.9873 H         1 RES1    0.0000
     18 O2         1.5526   13.9346    4.1546 O.3       1 RES1    0.0000
     19 C10        1.0513   11.5649    3.9381 C.ar      1 RES1    0.0000
     20 H7         0.2534   11.7389    3.4931 H         1 RES1    0.0000
     21 N2        -2.2298    3.5204    2.4068 N.pl3     1 RES1    0.0000
     22 C11        3.0384   12.3400    4.9968 C.ar      1 RES1    0.0000
     23 H8         3.5823   13.0460    5.2647 H         1 RES1    0.0000
     24 C12       -0.3286    4.5140    3.5679 C.ar      1 RES1    0.0000
     25 H9        -0.0536    3.6594    3.8121 H         1 RES1    0.0000
     26 O3        -1.8349    2.4162    2.7222 O.2       1 RES1    0.0000
     27 C13        1.8469   12.6077    4.3469 C.ar      1 RES1    0.0000
     28 O4        -3.2336    3.7108    1.7352 O.2       1 RES1    0.0000
     29 C14        0.3594   14.2495    3.4625 C.3       1 RES1    0.0000
     30 H10        0.2725   15.2028    3.3926 H         1 RES1    0.0000
     31 H11       -0.3923   13.8943    3.9431 H         1 RES1    0.0000
     32 H12        0.3878   13.8656    2.5841 H         1 RES1    0.0000
@<TRIPOS>BOND
     1    1    2 1
     2    2    5 2
     3    3    4 1
     4    5    6 1
     5    7    8 1
     6    9    3 1
     7   10   16 ar
     8   11    1 ar
     9   12   11 1
    10   13    1 ar
    11   14   13 1
    12   15    5 1
    13   16   13 ar
    14   17   16 1
    15   18   27 1
    16   19   15 ar
    17   20   19 1
    18   21   10 1
    19   22    7 ar
    20   23   22 1
    21   24   10 ar
    22   25   24 1
    23   26   21 2
    24   27   19 ar
    25   28   21 2
    26   29   18 1
    27   30   29 1
    28   31   29 1
    29   32   29 1
    30    7    9 ar
    31    9   15 ar
    32   11   24 ar
    33   22   27 ar
@<TRIPOS>SUBSTRUCTURE
     1 RES1 1

@<TRIPOS>CRYSIN
   8.9769   14.3789   10.0589  90.0000 101.7550  90.0000 231 1

