# MOL2 file generated by ConQuest
# Please check atom types

@<TRIPOS>MOLECULE
MAPJUK
   142   146     1
SMALL
NO_CHARGES
****
Generated from CSD

@<TRIPOS>ATOM
      1 C1        -1.0046    2.8559    9.3111 C.ar      1 RES1    0.0000
      2 C2        -0.2360    4.0032    9.0376 C.ar      1 RES1    0.0000
      3 H1         0.6581    4.0206    9.2934 H         1 RES1    0.0000
      4 C3        -0.7659    5.0894    8.4081 C.ar      1 RES1    0.0000
      5 H2        -0.2178    5.8166    8.2219 H         1 RES1    0.0000
      6 C4        -2.0968    5.1364    8.0404 C.ar      1 RES1    0.0000
      7 C5        -2.9089    4.0102    8.3162 C.ar      1 RES1    0.0000
      8 C6        -2.3413    2.8745    8.9421 C.ar      1 RES1    0.0000
      9 C7        -3.2204    1.7552    9.1508 C.ar      1 RES1    0.0000
     10 H3        -2.8796    0.9849    9.5445 H         1 RES1    0.0000
     11 C8        -4.5087    1.7820    8.8018 C.ar      1 RES1    0.0000
     12 H4        -5.0380    1.0382    8.9763 H         1 RES1    0.0000
     13 C9        -5.1076    2.9268    8.1630 C.ar      1 RES1    0.0000
     14 C10       -6.4464    3.0079    7.7586 C.ar      1 RES1    0.0000
     15 H5        -6.9996    2.2733    7.9095 H         1 RES1    0.0000
     16 C11       -6.9789    4.1064    7.1551 C.ar      1 RES1    0.0000
     17 H6        -7.8714    4.1249    6.8946 H         1 RES1    0.0000
     18 C12       -6.1591    5.1816    6.9465 C.ar      1 RES1    0.0000
     19 H7        -6.5165    5.9394    6.5422 H         1 RES1    0.0000
     20 C13       -4.8134    5.1955    7.3084 C.ar      1 RES1    0.0000
     21 C14       -4.2678    4.0475    7.9260 C.ar      1 RES1    0.0000
     22 C15       -2.6957    6.2840    7.3944 C.ar      1 RES1    0.0000
     23 H8        -2.1725    7.0355    7.2282 H         1 RES1    0.0000
     24 C16       -3.9547    6.2916    7.0372 C.ar      1 RES1    0.0000
     25 H9        -4.2955    7.0355    6.5940 H         1 RES1    0.0000
     26 C17       -0.3382    1.6757    9.9205 C.3       1 RES1    0.0000
     27 H10       -0.9385    1.2699   10.5641 H         1 RES1    0.0000
     28 H11        0.4534    1.9698   10.3979 H         1 RES1    0.0000
     29 C18        0.0669    0.6238    8.8855 C.2       1 RES1    0.0000
     30 O1         0.2757    0.9566    7.7232 O.2       1 RES1    0.0000
     31 N1         0.1858   -0.6352    9.2983 N.am      1 RES1    0.0000
     32 H12       -0.0451   -0.8319   10.1032 H         1 RES1    0.0000
     33 C19        0.7014   -1.7016    8.4211 C.3       1 RES1    0.0000
     34 C20        0.4850   -3.0355    9.1590 C.3       1 RES1    0.0000
     35 H13        0.9777   -3.0079    9.9948 H         1 RES1    0.0000
     36 H14       -0.4569   -3.1168    9.3783 H         1 RES1    0.0000
     37 C21        0.9090   -4.2711    8.3893 C.3       1 RES1    0.0000
     38 H15        0.4613   -4.2894    7.5406 H         1 RES1    0.0000
     39 H16        0.6756   -5.0565    8.8903 H         1 RES1    0.0000
     40 H17        1.8587   -4.2500    8.2502 H         1 RES1    0.0000
     41 C22        2.1880   -1.4497    8.0899 C.3       1 RES1    0.0000
     42 H18        2.5032   -2.1644    7.5146 H         1 RES1    0.0000
     43 H19        2.2597   -0.6187    7.5948 H         1 RES1    0.0000
     44 C23        3.0876   -1.3719    9.3075 C.3       1 RES1    0.0000
     45 H20        2.8555   -0.5979    9.8274 H         1 RES1    0.0000
     46 H21        4.0022   -1.3047    9.0246 H         1 RES1    0.0000
     47 H22        2.9734   -2.1621    9.8403 H         1 RES1    0.0000
     48 C24       -0.1039   -1.7355    7.1128 C.2       1 RES1    0.0000
     49 O2         0.4196   -1.9348    6.0202 O.2       1 RES1    0.0000
     50 N2        -1.4304   -1.5804    7.2567 N.am      1 RES1    0.0000
     51 H23       -1.7329   -1.4043    8.0415 H         1 RES1    0.0000
     52 C25       -2.3967   -1.6945    6.1555 C.3       1 RES1    0.0000
     53 C26       -3.7526   -1.2328    6.7378 C.3       1 RES1    0.0000
     54 H24       -3.9773   -1.8006    7.4911 H         1 RES1    0.0000
     55 H25       -3.6539   -0.3267    7.0726 H         1 RES1    0.0000
     56 C27       -4.9023   -1.2606    5.7465 C.3       1 RES1    0.0000
     57 H26       -4.7232   -0.6465    5.0310 H         1 RES1    0.0000
     58 H27       -5.7140   -1.0057    6.1909 H         1 RES1    0.0000
     59 H28       -4.9971   -2.1482    5.3917 H         1 RES1    0.0000
     60 C28       -2.4427   -3.1403    5.6180 C.3       1 RES1    0.0000
     61 H29       -3.0835   -3.1794    4.8907 H         1 RES1    0.0000
     62 H30       -1.5719   -3.3648    5.2538 H         1 RES1    0.0000
     63 C29       -2.8183   -4.1805    6.6506 C.3       1 RES1    0.0000
     64 H31       -2.1442   -4.2106    7.3343 H         1 RES1    0.0000
     65 H32       -2.8837   -5.0403    6.2298 H         1 RES1    0.0000
     66 H33       -3.6629   -3.9511    7.0431 H         1 RES1    0.0000
     67 C30       -2.0308   -0.7480    5.0133 C.2       1 RES1    0.0000
     68 O3        -2.3540   -1.0196    3.8616 O.2       1 RES1    0.0000
     69 N3        -1.4219    0.4106    5.3165 N.am      1 RES1    0.0000
     70 H34       -1.1775    0.5423    6.1308 H         1 RES1    0.0000
     71 C31       -1.1538    1.4680    4.3261 C.3       1 RES1    0.0000
     72 C32       -0.2707    2.4900    5.0109 C.3       1 RES1    0.0000
     73 H35        0.5439    2.0532    5.3033 H         1 RES1    0.0000
     74 H36       -0.7278    2.8202    5.8007 H         1 RES1    0.0000
     75 C33        0.1024    3.6888    4.1174 C.3       1 RES1    0.0000
     76 H37        0.5874    3.3764    3.3501 H         1 RES1    0.0000
     77 H38        0.6506    4.3010    4.6160 H         1 RES1    0.0000
     78 H39       -0.6970    4.1365    3.8310 H         1 RES1    0.0000
     79 C34       -2.4849    2.0682    3.8239 C.3       1 RES1    0.0000
     80 H40       -2.2878    2.7322    3.1449 H         1 RES1    0.0000
     81 H41       -3.0020    1.3626    3.4043 H         1 RES1    0.0000
     82 C35       -3.3440    2.7229    4.9131 C.3       1 RES1    0.0000
     83 H42       -3.5611    2.0717    5.5838 H         1 RES1    0.0000
     84 H43       -4.1527    3.0612    4.5217 H         1 RES1    0.0000
     85 H44       -2.8554    3.4459    5.3139 H         1 RES1    0.0000
     86 C36       -0.3838    0.8827    3.1131 C.2       1 RES1    0.0000
     87 O4        -0.5365    1.3397    1.9974 O.2       1 RES1    0.0000
     88 N4         0.4944   -0.0941    3.3822 N.am      1 RES1    0.0000
     89 H45        0.5486   -0.3824    4.1905 H         1 RES1    0.0000
     90 C37        1.3682   -0.6980    2.3681 C.3       1 RES1    0.0000
     91 C38        2.1277   -1.8279    3.0801 C.3       1 RES1    0.0000
     92 H46        2.4755   -1.4831    3.9170 H         1 RES1    0.0000
     93 H47        1.4961   -2.5329    3.2958 H         1 RES1    0.0000
     94 C39        3.2816   -2.4411    2.2974 C.3       1 RES1    0.0000
     95 H48        3.0401   -2.5051    1.3697 H         1 RES1    0.0000
     96 H49        3.4698   -3.3185    2.6393 H         1 RES1    0.0000
     97 H50        4.0602   -1.8863    2.3882 H         1 RES1    0.0000
     98 C40        2.3313    0.3541    1.7623 C.3       1 RES1    0.0000
     99 H51        2.8780   -0.0742    1.0856 H         1 RES1    0.0000
    100 H52        1.8074    1.0451    1.3261 H         1 RES1    0.0000
    101 C41        3.2463    1.0057    2.7984 C.3       1 RES1    0.0000
    102 H53        2.7120    1.4344    3.4726 H         1 RES1    0.0000
    103 H54        3.8016    1.6592    2.3681 H         1 RES1    0.0000
    104 H55        3.7983    0.3360    3.2062 H         1 RES1    0.0000
    105 C42        0.5227   -1.3246    1.2377 C.2       1 RES1    0.0000
    106 O5         0.9751   -1.4604    0.1092 O.2       1 RES1    0.0000
    107 N5        -0.6722   -1.8170    1.5720 N.am      1 RES1    0.0000
    108 H56       -0.8874   -1.8191    2.4047 H         1 RES1    0.0000
    109 C43       -1.6397   -2.3524    0.6118 C.3       1 RES1    0.0000
    110 C44       -2.2391   -1.2252   -0.2381 C.3       1 RES1    0.0000
    111 H57       -2.7315   -1.6175   -0.9760 H         1 RES1    0.0000
    112 H58       -1.5164   -0.6975   -0.6141 H         1 RES1    0.0000
    113 C45       -3.1764   -0.2941    0.5422 C.3       1 RES1    0.0000
    114 H59       -3.9018   -0.8041    0.9088 H         1 RES1    0.0000
    115 H60       -3.5239    0.3777   -0.0472 H         1 RES1    0.0000
    116 H61       -2.6896    0.1275    1.2554 H         1 RES1    0.0000
    117 C46       -2.6836   -3.1245    1.4346 C.3       1 RES1    0.0000
    118 H62       -2.2236   -3.7680    1.9957 H         1 RES1    0.0000
    119 H63       -3.1428   -2.5004    2.0180 H         1 RES1    0.0000
    120 C47       -3.7169   -3.8584    0.5953 C.3       1 RES1    0.0000
    121 H64       -4.3539   -3.2304    0.2487 H         1 RES1    0.0000
    122 H65       -4.1706   -4.5073    1.1399 H         1 RES1    0.0000
    123 H66       -3.2795   -4.3057   -0.1332 H         1 RES1    0.0000
    124 C48       -0.9989   -3.3725   -0.3407 C.2       1 RES1    0.0000
    125 O6        -1.1402   -3.3674   -1.5230 O.2       1 RES1    0.0000
    126 O7        -0.3981   -4.3457    0.3136 O.3       1 RES1    0.0000
    127 C49       -0.1674   -5.5656   -0.4255 C.3       1 RES1    0.0000
    128 H67       -0.2095   -5.3763   -1.3768 H         1 RES1    0.0000
    129 H68       -0.8674   -6.2036   -0.2169 H         1 RES1    0.0000
    130 C50        1.1469   -6.1593   -0.1037 C.ar      1 RES1    0.0000
    131 C51        1.3938   -7.4566   -0.4939 C.ar      1 RES1    0.0000
    132 H69        0.7151   -7.9439   -0.9018 H         1 RES1    0.0000
    133 C52        2.6008   -8.0385   -0.2959 C.ar      1 RES1    0.0000
    134 H70        2.7628   -8.9102   -0.5752 H         1 RES1    0.0000
    135 C53        3.5764   -7.3055    0.3242 C.ar      1 RES1    0.0000
    136 C54        3.3324   -6.0251    0.8004 C.ar      1 RES1    0.0000
    137 H71        3.9817   -5.5640    1.2813 H         1 RES1    0.0000
    138 C55        2.1103   -5.4502    0.5458 C.ar      1 RES1    0.0000
    139 H72        1.9416   -4.5768    0.8157 H         1 RES1    0.0000
    140 N6         4.8749   -7.9156    0.5434 N.pl3     1 RES1    0.0000
    141 O8         5.0936   -9.0423    0.2970 O.2       1 RES1    0.0000
    142 O9         5.7369   -7.2232    1.0208 O.2       1 RES1    0.0000
@<TRIPOS>BOND
     1    1    2 ar
     2    2    3 1
     3    4    2 ar
     4    5    4 1
     5    6    4 ar
     6    7    6 ar
     7    8    1 ar
     8    9    8 ar
     9   10    9 1
    10   11    9 ar
    11   12   11 1
    12   13   11 ar
    13   14   13 ar
    14   15   14 1
    15   16   14 ar
    16   17   16 1
    17   18   16 ar
    18   19   18 1
    19   20   18 ar
    20   21    7 ar
    21   22    6 ar
    22   23   22 1
    23   24   20 ar
    24   25   24 1
    25   26    1 1
    26   27   26 1
    27   28   26 1
    28   29   26 1
    29   30   29 2
    30   31   29 1
    31   32   31 1
    32   33   31 1
    33   34   33 1
    34   35   34 1
    35   36   34 1
    36   37   34 1
    37   38   37 1
    38   39   37 1
    39   40   37 1
    40   41   33 1
    41   42   41 1
    42   43   41 1
    43   44   41 1
    44   45   44 1
    45   46   44 1
    46   47   44 1
    47   48   33 1
    48   49   48 2
    49   50   48 1
    50   51   50 1
    51   52   50 1
    52   53   52 1
    53   54   53 1
    54   55   53 1
    55   56   53 1
    56   57   56 1
    57   58   56 1
    58   59   56 1
    59   60   52 1
    60   61   60 1
    61   62   60 1
    62   63   60 1
    63   64   63 1
    64   65   63 1
    65   66   63 1
    66   67   52 1
    67   68   67 2
    68   69   67 1
    69   70   69 1
    70   71   69 1
    71   72   71 1
    72   73   72 1
    73   74   72 1
    74   75   72 1
    75   76   75 1
    76   77   75 1
    77   78   75 1
    78   79   71 1
    79   80   79 1
    80   81   79 1
    81   82   79 1
    82   83   82 1
    83   84   82 1
    84   85   82 1
    85   86   71 1
    86   87   86 2
    87   88   86 1
    88   89   88 1
    89   90   88 1
    90   91   90 1
    91   92   91 1
    92   93   91 1
    93   94   91 1
    94   95   94 1
    95   96   94 1
    96   97   94 1
    97   98   90 1
    98   99   98 1
    99  100   98 1
   100  101   98 1
   101  102  101 1
   102  103  101 1
   103  104  101 1
   104  105   90 1
   105  106  105 2
   106  107  105 1
   107  108  107 1
   108  109  107 1
   109  110  109 1
   110  111  110 1
   111  112  110 1
   112  113  110 1
   113  114  113 1
   114  115  113 1
   115  116  113 1
   116  117  109 1
   117  118  117 1
   118  119  117 1
   119  120  117 1
   120  121  120 1
   121  122  120 1
   122  123  120 1
   123  124  109 1
   124  125  124 2
   125  126  124 1
   126  127  126 1
   127  128  127 1
   128  129  127 1
   129  130  127 1
   130  131  130 ar
   131  132  131 1
   132  133  131 ar
   133  134  133 1
   134  135  133 ar
   135  136  135 ar
   136  137  136 1
   137  138  130 ar
   138  139  138 1
   139  140  135 1
   140  141  140 2
   141  142  140 2
   142    7    8 ar
   143   13   21 ar
   144   20   21 ar
   145   22   24 ar
   146  136  138 ar
@<TRIPOS>SUBSTRUCTURE
     1 RES1 1

@<TRIPOS>CRYSIN
  10.0556   23.1736   11.9038  90.0000  98.0100  90.0000   4 1

