# MOL2 file generated by ConQuest
# Please check atom types

@<TRIPOS>MOLECULE
MAQCIR
    21    22     1
SMALL
NO_CHARGES
****
Generated from CSD

@<TRIPOS>ATOM
      1 O1         4.1314    1.5615    1.5795 O.2       1 RES1    0.0000
      2 C1         3.2439    1.5615    4.2914 C.2       1 RES1    0.0000
      3 N1         2.4286    1.5615    5.2984 N.2       1 RES1    0.0000
      4 O2         1.1499    1.5615    4.7658 O.3       1 RES1    0.0000
      5 N2         1.1777    1.5615    3.4015 N.2       1 RES1    0.0000
      6 C2         2.4320    1.5615    3.1180 C.2       1 RES1    0.0000
      7 N3         2.8981    1.5615    1.7533 N.pl3     1 RES1    0.0000
      8 N4         1.9784    1.5615    0.8651 N.2       1 RES1    0.0000
      9 C3         2.3857    1.5615   -0.4605 C.2       1 RES1    0.0000
     10 N5         3.6041    1.5615   -0.9532 N.2       1 RES1    0.0000
     11 O3         3.4136    1.5615   -2.3170 O.3       1 RES1    0.0000
     12 N6         2.0575    1.5615   -2.6481 N.2       1 RES1    0.0000
     13 C4         1.4207    1.5615   -1.5231 C.2       1 RES1    0.0000
     14 C5         4.7133    1.5615    4.4608 C.3       1 RES1    0.0000
     15 H1         5.0934    0.8057    3.9946 H         1 RES1    0.0000
     16 H2         4.8333    1.5615    5.4861 H         1 RES1    0.0000
     17 C6        -0.0597    1.5615   -1.4164 C.3       1 RES1    0.0000
     18 H3        -0.4257    1.5615   -2.2111 H         1 RES1    0.0000
     19 H4        -0.4064    0.8201   -0.9178 H         1 RES1    0.0000
     20 H1C        5.0934    2.3173    3.9946 H         1 RES1    0.0000
     21 H4C       -0.4064    2.3029   -0.9178 H         1 RES1    0.0000
@<TRIPOS>BOND
     1    1    7 1
     2    2    3 2
     3    3    4 1
     4    4    5 1
     5    5    6 2
     6    6    2 1
     7    7    6 1
     8    8    7 2
     9    9    8 1
    10   10    9 2
    11   11   10 1
    12   12   11 1
    13   13    9 1
    14   14    2 1
    15   15   14 1
    16   16   14 1
    17   17   13 1
    18   18   17 1
    19   19   17 1
    20   20   14 1
    21   21   17 1
    22   12   13 2
@<TRIPOS>SUBSTRUCTURE
     1 RES1 1

@<TRIPOS>CRYSIN
   6.9470    6.2460   10.7600  90.0000 104.2300  90.0000  11 1

