# MOL2 file generated by ConQuest
# Please check atom types

@<TRIPOS>MOLECULE
MAQDUG
   138   144     2
SMALL
NO_CHARGES
****
Generated from CSD

@<TRIPOS>ATOM
      1 C1         6.7548    9.3647    6.6280 C.3       1 RES1    0.0000
      2 H1         7.3386    9.9052    7.1996 H         1 RES1    0.0000
      3 C2         7.5361    8.1973    6.0437 C.2       1 RES1    0.0000
      4 C3         7.1035    7.0649    6.5596 C.2       1 RES1    0.0000
      5 H2         7.4511    6.2273    6.3526 H         1 RES1    0.0000
      6 C4         5.7152    6.6353    8.5768 C.2       1 RES1    0.0000
      7 C5         5.0370    7.6703    9.4493 C.3       1 RES1    0.0000
      8 H3         4.0724    7.6437    9.2821 H         1 RES1    0.0000
      9 C6         5.6072    8.9944    8.8905 C.3       1 RES1    0.0000
     10 H4         6.5064    9.1338    9.2551 H         1 RES1    0.0000
     11 C7         6.1261   10.2305    5.5645 C.ar      1 RES1    0.0000
     12 C8         4.9908    9.8062    4.8958 C.ar      1 RES1    0.0000
     13 H5         4.5931    9.0014    5.1394 H         1 RES1    0.0000
     14 C9         4.4366   10.5508    3.8752 C.ar      1 RES1    0.0000
     15 H6         3.6649   10.2672    3.4406 H         1 RES1    0.0000
     16 C10        5.0581   11.7326    3.5154 C.ar      1 RES1    0.0000
     17 C11        6.1692   12.1924    4.1634 C.ar      1 RES1    0.0000
     18 H7         6.5601   13.0002    3.9214 H         1 RES1    0.0000
     19 C12        6.6964   11.4328    5.1888 C.ar      1 RES1    0.0000
     20 H8         7.4538   11.7365    5.6361 H         1 RES1    0.0000
     21 C13        8.6914    8.3619    5.1298 C.2       1 RES1    0.0000
     22 C14       10.0795    7.1970    3.4533 C.3       1 RES1    0.0000
     23 H9        10.9366    7.2391    3.9039 H         1 RES1    0.0000
     24 H10       10.0200    7.9502    2.8451 H         1 RES1    0.0000
     25 C15        9.9821    5.9070    2.6700 C.3       1 RES1    0.0000
     26 H11       10.7521    5.8335    2.0857 H         1 RES1    0.0000
     27 H12       10.0055    5.1598    3.2878 H         1 RES1    0.0000
     28 C16        8.8244    5.8285    1.9074 C.3       1 RES1    0.0000
     29 H13        8.6257    6.6916    1.5380 H         1 RES1    0.0000
     30 H14        8.0953    5.5418    2.4630 H         1 RES1    0.0000
     31 H15        8.9526    5.1981    1.1957 H         1 RES1    0.0000
     32 C17        4.2964    7.5736   11.7531 C.2       1 RES1    0.0000
     33 C18        3.8445    7.4382   14.0744 C.3       1 RES1    0.0000
     34 H16        3.1097    6.8157   13.9710 H         1 RES1    0.0000
     35 H17        3.4854    8.3394   14.1063 H         1 RES1    0.0000
     36 C19        4.6088    7.1383   15.3195 C.ar      1 RES1    0.0000
     37 C20        4.2376    6.0780   16.0965 C.ar      1 RES1    0.0000
     38 H18        3.5046    5.5553   15.8624 H         1 RES1    0.0000
     39 C21        4.9803    5.7896   17.2523 C.ar      1 RES1    0.0000
     40 H19        4.7485    5.0552   17.7746 H         1 RES1    0.0000
     41 C22        6.0265    6.5639   17.6169 C.ar      1 RES1    0.0000
     42 H20        6.5096    6.3682   18.3859 H         1 RES1    0.0000
     43 C23        6.3628    7.6207   16.8543 C.ar      1 RES1    0.0000
     44 H21        7.0944    8.1428   17.0979 H         1 RES1    0.0000
     45 C24        5.6528    7.9428   15.7319 C.ar      1 RES1    0.0000
     46 H22        5.8726    8.7047   15.2447 H         1 RES1    0.0000
     47 C25        4.7370   10.2325    9.2025 C.3       1 RES1    0.0000
     48 H23        4.5481   10.1939   10.1642 H         1 RES1    0.0000
     49 C26        3.3727   10.1983    8.5036 C.3       1 RES1    0.0000
     50 H24        3.5006   10.1068    7.5563 H         1 RES1    0.0000
     51 H25        2.8997   11.0131    8.6851 H         1 RES1    0.0000
     52 H26        2.8640    9.4525    8.8300 H         1 RES1    0.0000
     53 C27        5.4556   11.5059    8.9780 C.3       1 RES1    0.0000
     54 H27        6.3234   11.4586    9.3840 H         1 RES1    0.0000
     55 H28        4.9577   12.2261    9.3697 H         1 RES1    0.0000
     56 H29        5.5493   11.6577    8.0355 H         1 RES1    0.0000
     57 N1         5.7130    8.6979    7.4528 N.3       1 RES1    0.0000
     58 N2         6.0732    7.2775    7.4448 N.am      1 RES1    0.0000
     59 N3         4.4941   12.5170    2.4073 N.pl3     1 RES1    0.0000
     60 N4         5.2678    7.4616   10.8217 N.am      1 RES1    0.0000
     61 H30        6.0613    7.2528   11.0765 H         1 RES1    0.0000
     62 N5         9.0137    7.2773    4.4293 N.am      1 RES1    0.0000
     63 H31        8.5514    6.5644    4.5678 H         1 RES1    0.0000
     64 O1         5.9738    5.4824    8.8172 O.2       1 RES1    0.0000
     65 O2         3.4005   12.1731    1.9647 O.2       1 RES1    0.0000
     66 O3         5.1469   13.4095    1.9520 O.2       1 RES1    0.0000
     67 O4         9.2968    9.4365    5.0582 O.2       1 RES1    0.0000
     68 O5         3.1520    7.8720   11.5063 O.2       1 RES1    0.0000
     69 O6         4.7854    7.3062   12.9631 O.3       1 RES1    0.0000
     70 C28        8.8669    1.2768    8.9908 C.3       2 RES2    0.0000
     71 H32        8.1538    0.7277    8.6023 H         2 RES2    0.0000
     72 C29        8.2623    2.5544    9.5735 C.2       2 RES2    0.0000
     73 C30        8.3584    3.5486    8.6930 C.2       2 RES2    0.0000
     74 H33        7.9939    4.3973    8.7965 H         2 RES2    0.0000
     75 C31        9.1621    3.4761    6.3017 C.2       2 RES2    0.0000
     76 C32        9.9543    2.3504    5.6266 C.3       2 RES2    0.0000
     77 H34       10.9044    2.5878    5.6600 H         2 RES2    0.0000
     78 C33        9.7265    1.1792    6.5819 C.3       2 RES2    0.0000
     79 H35        8.8366    0.8040    6.4083 H         2 RES2    0.0000
     80 C34        9.6878    0.4337    9.9365 C.ar      2 RES2    0.0000
     81 C35       10.9229    0.8481   10.3918 C.ar      2 RES2    0.0000
     82 H36       11.2712    1.6593   10.0973 H         2 RES2    0.0000
     83 C36       11.6541    0.0735   11.2850 C.ar      2 RES2    0.0000
     84 H37       12.4904    0.3497   11.5796 H         2 RES2    0.0000
     85 C37       11.1194   -1.0992   11.7181 C.ar      2 RES2    0.0000
     86 C38        9.8825   -1.5385   11.2834 C.ar      2 RES2    0.0000
     87 H38        9.5357   -2.3446   11.5891 H         2 RES2    0.0000
     88 C39        9.1679   -0.7629   10.3887 C.ar      2 RES2    0.0000
     89 H39        8.3342   -1.0477   10.0909 H         2 RES2    0.0000
     90 C40        7.4983    2.5611   10.8392 C.2       2 RES2    0.0000
     91 C41        6.5366    3.9446   12.6352 C.3       2 RES2    0.0000
     92 H40        5.9474    4.7014   12.4903 H         2 RES2    0.0000
     93 H41        5.9744    3.1582   12.7164 H         2 RES2    0.0000
     94 C42        7.1150    4.1225   13.7560 C.3       2 RES2    0.0000
     95 H42        7.4268    3.2274   13.9757 H         2 RES2    0.0000
     96 H43        6.3686    4.2779   14.3563 H         2 RES2    0.0000
     97 C43        8.0591    4.8966   14.2623 C.3       2 RES2    0.0000
     98 H44        8.2561    4.6141   15.1603 H         2 RES2    0.0000
     99 H45        7.7633    5.8036   14.2655 H         2 RES2    0.0000
    100 H46        8.8545    4.8174   13.7258 H         2 RES2    0.0000
    101 C44       10.5230    2.0805    3.2893 C.2       2 RES2    0.0000
    102 C45       10.7709    1.6965    0.9537 C.3       2 RES2    0.0000
    103 H47       10.3887    1.0027    0.3933 H         2 RES2    0.0000
    104 H48       11.6461    1.3960    1.2466 H         2 RES2    0.0000
    105 C46       10.9183    2.9468    0.1624 C.ar      2 RES2    0.0000
    106 C47        9.9584    3.2760   -0.7722 C.ar      2 RES2    0.0000
    107 H49        9.2254    2.7124   -0.8741 H         2 RES2    0.0000
    108 C48       10.0327    4.3713   -1.5412 C.ar      2 RES2    0.0000
    109 H50        9.3775    4.5874   -2.1653 H         2 RES2    0.0000
    110 C49       11.1634    5.1643   -1.3374 C.ar      2 RES2    0.0000
    111 H51       11.2685    5.9287   -1.8564 H         2 RES2    0.0000
    112 C50       12.1546    4.8596   -0.3757 C.ar      2 RES2    0.0000
    113 H52       12.8928    5.4093   -0.2452 H         2 RES2    0.0000
    114 C51       11.9825    3.7652    0.3232 C.ar      2 RES2    0.0000
    115 H53       12.6228    3.5408    0.9585 H         2 RES2    0.0000
    116 C52       10.7482    0.0356    6.5675 C.3       2 RES2    0.0000
    117 H54       10.5668   -0.5146    7.3588 H         2 RES2    0.0000
    118 C53       10.5527   -0.8605    5.3623 C.3       2 RES2    0.0000
    119 H55        9.6265   -1.1057    5.2922 H         2 RES2    0.0000
    120 H56       11.0871   -1.6525    5.4610 H         2 RES2    0.0000
    121 H57       10.8192   -0.3921    4.5678 H         2 RES2    0.0000
    122 C54       12.1803    0.5067    6.6854 C.3       2 RES2    0.0000
    123 H58       12.3470    1.1908    6.0342 H         2 RES2    0.0000
    124 H59       12.7738   -0.2324    6.5341 H         2 RES2    0.0000
    125 H60       12.3287    0.8607    7.5658 H         2 RES2    0.0000
    126 N6         9.7092    1.8437    7.8922 N.3       2 RES2    0.0000
    127 N7         9.0866    3.1180    7.5977 N.am      2 RES2    0.0000
    128 N8        11.8463   -1.9229   12.6925 N.pl3     2 RES2    0.0000
    129 N9         9.5904    2.1848    4.2717 N.am      2 RES2    0.0000
    130 H61        8.7576    2.1481    4.0631 H         2 RES2    0.0000
    131 N10        7.3408    3.7839   11.4395 N.am      2 RES2    0.0000
    132 H62        7.7264    4.4707   11.0987 H         2 RES2    0.0000
    133 O7         8.6945    4.4812    5.8192 O.2       2 RES2    0.0000
    134 O8        11.2329   -2.7198   13.3389 O.2       2 RES2    0.0000
    135 O9        13.0655   -1.8171   12.6893 O.2       2 RES2    0.0000
    136 O10       11.7146    2.1133    3.4915 O.2       2 RES2    0.0000
    137 O11        9.9196    1.9016    2.1144 O.3       2 RES2    0.0000
    138 O12        7.0547    1.5302   11.2818 O.2       2 RES2    0.0000
@<TRIPOS>BOND
     1    1    2 1
     2    3    1 1
     3    4    3 2
     4    5    4 1
     5    6    7 1
     6    7    8 1
     7    9    7 1
     8   10    9 1
     9   11    1 1
    10   12   11 ar
    11   13   12 1
    12   14   12 ar
    13   15   14 1
    14   16   14 ar
    15   17   16 ar
    16   18   17 1
    17   19   11 ar
    18   20   19 1
    19   21    3 1
    20   22   23 1
    21   24   22 1
    22   25   22 1
    23   26   25 1
    24   27   25 1
    25   28   25 1
    26   29   28 1
    27   30   28 1
    28   31   28 1
    29   32   60 1
    30   33   34 1
    31   35   33 1
    32   36   33 1
    33   37   36 ar
    34   38   37 1
    35   39   37 ar
    36   40   39 1
    37   41   39 ar
    38   42   41 1
    39   43   41 ar
    40   44   43 1
    41   45   36 ar
    42   46   45 1
    43   47    9 1
    44   48   47 1
    45   49   47 1
    46   50   49 1
    47   51   49 1
    48   52   49 1
    49   53   47 1
    50   54   53 1
    51   55   53 1
    52   56   53 1
    53   57    1 1
    54   58    4 1
    55   59   16 1
    56   60    7 1
    57   61   60 1
    58   62   21 1
    59   63   62 1
    60   64    6 2
    61   65   59 2
    62   66   59 2
    63   67   21 2
    64   68   32 2
    65   69   32 1
    66   70   71 1
    67   72   70 1
    68   73   72 2
    69   74   73 1
    70   75   76 1
    71   76   77 1
    72   78   76 1
    73   79   78 1
    74   80   70 1
    75   81   80 ar
    76   82   81 1
    77   83   81 ar
    78   84   83 1
    79   85   83 ar
    80   86   85 ar
    81   87   86 1
    82   88   80 ar
    83   89   88 1
    84   90   72 1
    85   91   92 1
    86   93   91 1
    87   94   91 1
    88   95   94 1
    89   96   94 1
    90   97   94 1
    91   98   97 1
    92   99   97 1
    93  100   97 1
    94  101  129 1
    95  102  103 1
    96  104  102 1
    97  105  102 1
    98  106  105 ar
    99  107  106 1
   100  108  106 ar
   101  109  108 1
   102  110  108 ar
   103  111  110 1
   104  112  110 ar
   105  113  112 1
   106  114  105 ar
   107  115  114 1
   108  116   78 1
   109  117  116 1
   110  118  116 1
   111  119  118 1
   112  120  118 1
   113  121  118 1
   114  122  116 1
   115  123  122 1
   116  124  122 1
   117  125  122 1
   118  126   70 1
   119  127   73 1
   120  128   85 1
   121  129   76 1
   122  130  129 1
   123  131   90 1
   124  132  131 1
   125  133   75 2
   126  134  128 2
   127  135  128 2
   128  136  101 2
   129  137  101 1
   130  138   90 2
   131    6   58 1
   132    9   57 1
   133   17   19 ar
   134   22   62 1
   135   33   69 1
   136   43   45 ar
   137   57   58 1
   138   75  127 1
   139   78  126 1
   140   86   88 ar
   141   91  131 1
   142  102  137 1
   143  112  114 ar
   144  126  127 1
@<TRIPOS>SUBSTRUCTURE
     1 RES1 1
     2 RES2 70

@<TRIPOS>CRYSIN
  12.6355   13.8401   16.3240  77.2610  85.9700  74.0720   2 1

