# MOL2 file generated by ConQuest
# Please check atom types

@<TRIPOS>MOLECULE
MAQSOP
   152   164     2
SMALL
NO_CHARGES
****
Generated from CSD

@<TRIPOS>ATOM
      1 O1        19.2831    3.8166    0.0712 O.3       1 RES1    0.0000
      2 O2        18.9737    4.4745    2.2216 O.3       1 RES1    0.0000
      3 O3        18.2524    1.8393    0.7119 O.3       1 RES1    0.0000
      4 O4        16.0127    2.3913    2.5964 O.3       1 RES1    0.0000
      5 O5        17.2808   -1.7883    3.1910 O.3       1 RES1    0.0000
      6 N1        18.0192   -0.5274    3.2978 N.2       1 RES1    0.0000
      7 C1        21.1875    4.4991    1.3359 C.3       1 RES1    0.0000
      8 H1        21.4913    5.1295    1.9923 H         1 RES1    0.0000
      9 H2        21.6995    4.6030    0.5308 H         1 RES1    0.0000
     10 H3        21.2972    3.6068    1.6730 H         1 RES1    0.0000
     11 C2        19.7416    4.7448    1.0427 C.3       1 RES1    0.0000
     12 C3        19.4913    6.1512    0.5465 C.3       1 RES1    0.0000
     13 H4        18.5574    6.2590    0.3476 H         1 RES1    0.0000
     14 H5        20.0089    6.3062   -0.2471 H         1 RES1    0.0000
     15 H6        19.7501    6.7798    1.2249 H         1 RES1    0.0000
     16 C4        17.7528    3.8658    1.8374 C.3       1 RES1    0.0000
     17 H7        17.0215    4.5123    1.7641 H         1 RES1    0.0000
     18 C5        18.0876    3.2136    0.4983 C.3       1 RES1    0.0000
     19 H8        17.3703    3.3762   -0.1497 H         1 RES1    0.0000
     20 C6        17.4057    2.6966    2.7440 C.3       1 RES1    0.0000
     21 H9        17.6516    2.8667    3.6768 H         1 RES1    0.0000
     22 C7        18.2423    1.5728    2.1200 C.3       1 RES1    0.0000
     23 H10       19.1593    1.6078    2.4708 H         1 RES1    0.0000
     24 C8        17.6853    0.1909    2.2949 C.2       1 RES1    0.0000
     25 C9        16.7402   -0.4745    1.3547 C.3       1 RES1    0.0000
     26 H11       17.1818   -0.6957    0.5193 H         1 RES1    0.0000
     27 H12       15.9778    0.0936    1.1684 H         1 RES1    0.0000
     28 C10       16.3238   -1.7108    2.0855 C.3       1 RES1    0.0000
     29 H13       16.4335   -2.4905    1.5013 H         1 RES1    0.0000
     30 C11       15.1789    2.7854    3.6705 C.3       1 RES1    0.0000
     31 H14       15.4546    3.6578    3.9940 H         1 RES1    0.0000
     32 H15       15.2633    2.1522    4.4002 H         1 RES1    0.0000
     33 C12       13.7415    2.8403    3.2036 C.3       1 RES1    0.0000
     34 H16       13.1817    3.0558    3.9668 H         1 RES1    0.0000
     35 H17       13.6543    3.5671    2.5671 H         1 RES1    0.0000
     36 C13       13.2352    1.6578    2.6006 C.3       1 RES1    0.0000
     37 H18       13.2971    0.9386    3.2497 H         1 RES1    0.0000
     38 H19       13.8175    1.4253    1.8583 H         1 RES1    0.0000
     39 O6        19.7281    5.9442    6.9453 O.3       2 RES2    0.0000
     40 O7        18.5545    4.2854    5.9110 O.3       2 RES2    0.0000
     41 O8        16.5652    5.3601    6.3988 O.3       2 RES2    0.0000
     42 O9        16.9407    8.2845    7.0657 O.3       2 RES2    0.0000
     43 O10       13.8903    6.9405    9.7218 O.3       2 RES2    0.0000
     44 N2        15.1891    6.4244    9.4789 N.2       2 RES2    0.0000
     45 C14       20.7934    4.7968    5.0975 C.3       2 RES2    0.0000
     46 H20       20.4252    5.4480    4.4955 H         2 RES2    0.0000
     47 H21       20.8612    3.9499    4.6515 H         2 RES2    0.0000
     48 H22       21.6657    5.0794    5.3812 H         2 RES2    0.0000
     49 C15       19.8879    4.6607    6.3088 C.3       2 RES2    0.0000
     50 C16       20.3999    3.6673    7.3296 C.3       2 RES2    0.0000
     51 H23       21.2832    3.9225    7.6091 H         2 RES2    0.0000
     52 H24       20.4308    2.7921    6.9380 H         2 RES2    0.0000
     53 H25       19.8148    3.6578    8.0896 H         2 RES2    0.0000
     54 C17       17.7953    5.4367    5.7037 C.3       2 RES2    0.0000
     55 H26       17.6516    5.6002    4.7478 H         2 RES2    0.0000
     56 C18       18.6142    6.5936    6.3570 C.3       2 RES2    0.0000
     57 H27       18.8809    7.2769    5.7068 H         2 RES2    0.0000
     58 C19       16.7461    5.9820    7.7065 C.3       2 RES2    0.0000
     59 H28       17.1621    5.3431    8.3220 H         2 RES2    0.0000
     60 C20       17.7033    7.1503    7.4468 C.3       2 RES2    0.0000
     61 H29       18.2226    7.3488    8.2540 H         2 RES2    0.0000
     62 C21       15.3930    6.3752    8.2226 C.2       2 RES2    0.0000
     63 C22       14.2253    6.8081    7.3913 C.3       2 RES2    0.0000
     64 H30       13.9975    6.1408    6.7255 H         2 RES2    0.0000
     65 H31       14.3969    7.6550    6.9506 H         2 RES2    0.0000
     66 C23       13.1356    6.9405    8.4445 C.3       2 RES2    0.0000
     67 H32       12.5572    6.1503    8.4110 H         2 RES2    0.0000
     68 C24       12.2745    8.1928    8.3765 C.3       2 RES2    0.0000
     69 H33       12.8470    8.9754    8.4100 H         2 RES2    0.0000
     70 H34       11.6908    8.2193    9.1502 H         2 RES2    0.0000
     71 C25       11.4287    8.2467    7.1097 C.3       2 RES2    0.0000
     72 H35       12.0199    8.3242    6.3433 H         2 RES2    0.0000
     73 H36       10.9426    7.4121    7.0239 H         2 RES2    0.0000
     74 C26       17.6938    9.5085    7.0783 C.3       2 RES2    0.0000
     75 H37       18.2479    9.5681    6.2868 H         2 RES2    0.0000
     76 H38       18.2648    9.5406    7.8604 H         2 RES2    0.0000
     77 O1A        8.8469   -3.8166    0.0712 O.3       1 RES1    0.0000
     78 O2A        9.1563   -4.4745    2.2216 O.3       1 RES1    0.0000
     79 O3A        9.8776   -1.8393    0.7119 O.3       1 RES1    0.0000
     80 O4A       12.1173   -2.3913    2.5964 O.3       1 RES1    0.0000
     81 O5A       10.8492    1.7883    3.1910 O.3       1 RES1    0.0000
     82 N1A       10.1108    0.5274    3.2978 N.2       1 RES1    0.0000
     83 C1A        6.9425   -4.4991    1.3359 C.3       1 RES1    0.0000
     84 H1A        6.6387   -5.1295    1.9923 H         1 RES1    0.0000
     85 H2A        6.4305   -4.6030    0.5308 H         1 RES1    0.0000
     86 H3A        6.8328   -3.6068    1.6730 H         1 RES1    0.0000
     87 C2A        8.3884   -4.7448    1.0427 C.3       1 RES1    0.0000
     88 C3A        8.6387   -6.1512    0.5465 C.3       1 RES1    0.0000
     89 H4A        9.5726   -6.2590    0.3476 H         1 RES1    0.0000
     90 H5A        8.1211   -6.3062   -0.2471 H         1 RES1    0.0000
     91 H6A        8.3799   -6.7798    1.2249 H         1 RES1    0.0000
     92 C4A       10.3772   -3.8658    1.8374 C.3       1 RES1    0.0000
     93 H7A       11.1085   -4.5123    1.7641 H         1 RES1    0.0000
     94 C5A       10.0424   -3.2136    0.4983 C.3       1 RES1    0.0000
     95 H8A       10.7597   -3.3762   -0.1497 H         1 RES1    0.0000
     96 C6A       10.7243   -2.6966    2.7440 C.3       1 RES1    0.0000
     97 H9A       10.4784   -2.8667    3.6768 H         1 RES1    0.0000
     98 C7A        9.8877   -1.5728    2.1200 C.3       1 RES1    0.0000
     99 H10A       8.9707   -1.6078    2.4708 H         1 RES1    0.0000
    100 C8A       10.4447   -0.1909    2.2949 C.2       1 RES1    0.0000
    101 C9A       11.3898    0.4745    1.3547 C.3       1 RES1    0.0000
    102 H11A      10.9482    0.6957    0.5193 H         1 RES1    0.0000
    103 H12A      12.1522   -0.0936    1.1684 H         1 RES1    0.0000
    104 C10A      11.8062    1.7108    2.0855 C.3       1 RES1    0.0000
    105 H13A      11.6965    2.4905    1.5013 H         1 RES1    0.0000
    106 C11A      12.9511   -2.7854    3.6705 C.3       1 RES1    0.0000
    107 H14A      12.6754   -3.6578    3.9940 H         1 RES1    0.0000
    108 H15A      12.8667   -2.1522    4.4002 H         1 RES1    0.0000
    109 C12A      14.3885   -2.8403    3.2036 C.3       1 RES1    0.0000
    110 H16A      14.9483   -3.0558    3.9668 H         1 RES1    0.0000
    111 H17A      14.4757   -3.5671    2.5671 H         1 RES1    0.0000
    112 C13A      14.8948   -1.6578    2.6006 C.3       1 RES1    0.0000
    113 H18A      14.8329   -0.9386    3.2497 H         1 RES1    0.0000
    114 H19A      14.3125   -1.4253    1.8583 H         1 RES1    0.0000
    115 O6A        8.4019   12.9594    6.9453 O.3       2 RES2    0.0000
    116 O7A        9.5755   14.6182    5.9110 O.3       2 RES2    0.0000
    117 O8A       11.5648   13.5435    6.3988 O.3       2 RES2    0.0000
    118 O9A       11.1893   10.6191    7.0657 O.3       2 RES2    0.0000
    119 O10A      14.2397   11.9631    9.7218 O.3       2 RES2    0.0000
    120 N2A       12.9409   12.4792    9.4789 N.2       2 RES2    0.0000
    121 C14A       7.3366   14.1068    5.0975 C.3       2 RES2    0.0000
    122 H20A       7.7048   13.4556    4.4955 H         2 RES2    0.0000
    123 H21A       7.2688   14.9537    4.6515 H         2 RES2    0.0000
    124 H22A       6.4643   13.8242    5.3812 H         2 RES2    0.0000
    125 C15A       8.2421   14.2429    6.3088 C.3       2 RES2    0.0000
    126 C16A       7.7301   15.2363    7.3296 C.3       2 RES2    0.0000
    127 H23A       6.8468   14.9811    7.6091 H         2 RES2    0.0000
    128 H24A       7.6992   16.1115    6.9380 H         2 RES2    0.0000
    129 H25A       8.3152   15.2458    8.0896 H         2 RES2    0.0000
    130 C17A      10.3347   13.4669    5.7037 C.3       2 RES2    0.0000
    131 H26A      10.4784   13.3034    4.7478 H         2 RES2    0.0000
    132 C18A       9.5158   12.3100    6.3570 C.3       2 RES2    0.0000
    133 H27A       9.2491   11.6267    5.7068 H         2 RES2    0.0000
    134 C19A      11.3839   12.9216    7.7065 C.3       2 RES2    0.0000
    135 H28A      10.9679   13.5605    8.3220 H         2 RES2    0.0000
    136 C20A      10.4267   11.7533    7.4468 C.3       2 RES2    0.0000
    137 H29A       9.9074   11.5548    8.2540 H         2 RES2    0.0000
    138 C21A      12.7370   12.5284    8.2226 C.2       2 RES2    0.0000
    139 C22A      13.9047   12.0955    7.3913 C.3       2 RES2    0.0000
    140 H30A      14.1325   12.7628    6.7255 H         2 RES2    0.0000
    141 H31A      13.7331   11.2486    6.9506 H         2 RES2    0.0000
    142 C23A      14.9944   11.9631    8.4445 C.3       2 RES2    0.0000
    143 H32A      15.5728   12.7533    8.4110 H         2 RES2    0.0000
    144 C24A      15.8555   10.7108    8.3765 C.3       2 RES2    0.0000
    145 H33A      15.2830    9.9282    8.4100 H         2 RES2    0.0000
    146 H34A      16.4392   10.6843    9.1502 H         2 RES2    0.0000
    147 C25A      16.7013   10.6569    7.1097 C.3       2 RES2    0.0000
    148 H35A      16.1101   10.5794    6.3433 H         2 RES2    0.0000
    149 H36A      17.1874   11.4915    7.0239 H         2 RES2    0.0000
    150 C26A      10.4362    9.3951    7.0783 C.3       2 RES2    0.0000
    151 H37A       9.8821    9.3355    6.2868 H         2 RES2    0.0000
    152 H38A       9.8652    9.3630    7.8604 H         2 RES2    0.0000
@<TRIPOS>BOND
     1    1   11 1
     2    2   11 1
     3    3   18 1
     4    4   20 1
     5    5    6 1
     6    6   24 2
     7    7    8 1
     8    9    7 1
     9   10    7 1
    10   11    7 1
    11   12   11 1
    12   13   12 1
    13   14   12 1
    14   15   12 1
    15   16    2 1
    16   17   16 1
    17   18    1 1
    18   19   18 1
    19   20   16 1
    20   21   20 1
    21   22    3 1
    22   23   22 1
    23   24   22 1
    24   25   24 1
    25   26   25 1
    26   27   25 1
    27   28    5 1
    28   29   28 1
    29   30    4 1
    30   31   30 1
    31   32   30 1
    32   33   30 1
    33   34   33 1
    34   35   33 1
    35   36   33 1
    36   37   36 1
    37   38   36 1
    38   39   49 1
    39   40   49 1
    40   41   54 1
    41   42   60 1
    42   43   44 1
    43   44   62 2
    44   45   46 1
    45   47   45 1
    46   48   45 1
    47   49   45 1
    48   50   49 1
    49   51   50 1
    50   52   50 1
    51   53   50 1
    52   54   40 1
    53   55   54 1
    54   56   39 1
    55   57   56 1
    56   58   41 1
    57   59   58 1
    58   60   56 1
    59   61   60 1
    60   62   58 1
    61   63   62 1
    62   64   63 1
    63   65   63 1
    64   66   43 1
    65   67   66 1
    66   68   66 1
    67   69   68 1
    68   70   68 1
    69   71   68 1
    70   72   71 1
    71   73   71 1
    72   74   42 1
    73   75   74 1
    74   76   74 1
    75   77   87 1
    76   78   87 1
    77   79   94 1
    78   80   96 1
    79   81   82 1
    80   82  100 2
    81   83   84 1
    82   85   83 1
    83   86   83 1
    84   87   83 1
    85   88   87 1
    86   89   88 1
    87   90   88 1
    88   91   88 1
    89   92   78 1
    90   93   92 1
    91   94   77 1
    92   95   94 1
    93   96   92 1
    94   97   96 1
    95   98   79 1
    96   99   98 1
    97  100   98 1
    98  101  100 1
    99  102  101 1
   100  103  101 1
   101  104   36 1
   102  105  104 1
   103  106   80 1
   104  107  106 1
   105  108  106 1
   106  109  106 1
   107  110  109 1
   108  111  109 1
   109  112   28 1
   110  113  112 1
   111  114  112 1
   112  115  125 1
   113  116  125 1
   114  117  130 1
   115  118  136 1
   116  119  120 1
   117  120  138 2
   118  121  122 1
   119  123  121 1
   120  124  121 1
   121  125  121 1
   122  126  125 1
   123  127  126 1
   124  128  126 1
   125  129  126 1
   126  130  116 1
   127  131  130 1
   128  132  115 1
   129  133  132 1
   130  134  117 1
   131  135  134 1
   132  136  132 1
   133  137  136 1
   134  138  134 1
   135  139  138 1
   136  140  139 1
   137  141  139 1
   138  142  119 1
   139  143  142 1
   140  144  142 1
   141  145  144 1
   142  146  144 1
   143  147   74 1
   144  148  147 1
   145  149  147 1
   146  150   71 1
   147  151  150 1
   148  152  150 1
   149   16   18 1
   150   20   22 1
   151   25   28 1
   152   54   56 1
   153   58   60 1
   154   63   66 1
   155   81  104 1
   156   92   94 1
   157   96   98 1
   158  101  104 1
   159  109  112 1
   160  118  150 1
   161  130  132 1
   162  134  136 1
   163  139  142 1
   164  144  147 1
@<TRIPOS>SUBSTRUCTURE
     1 RES1 1
     2 RES2 39

@<TRIPOS>CRYSIN
  28.1300    9.4518   10.4693  90.0000  90.0000  90.0000  18 1

