# MOL2 file generated by ConQuest
# Please check atom types

@<TRIPOS>MOLECULE
MAQSUV
   174   176     3
SMALL
NO_CHARGES
****
Generated from CSD

@<TRIPOS>ATOM
      1 O1       -21.0863   -1.2212   -0.1923 O.3       1 RES1    0.0000
      2 O2       -20.8879   -0.4778   -2.3235 O.3       1 RES1    0.0000
      3 O3       -19.7094   -3.0226   -0.7090 O.3       1 RES1    0.0000
      4 O4       -19.2328   -6.7324   -3.1962 O.3       1 RES1    0.0000
      5 O5       -17.9031   -2.4581   -2.9976 O.3       1 RES1    0.0000
      6 N1       -19.9740   -5.5259   -3.0874 N.2       1 RES1    0.0000
      7 C1       -21.2174    1.1530   -0.5568 C.3       1 RES1    0.0000
      8 H1       -20.2665    1.2701   -0.5420 H         1 RES1    0.0000
      9 H2       -21.5648    1.2351    0.3349 H         1 RES1    0.0000
     10 H3       -21.6136    1.8235   -1.1168 H         1 RES1    0.0000
     11 C2       -23.0338   -0.3745   -1.3282 C.3       1 RES1    0.0000
     12 H4       -23.3233    0.2426   -2.0033 H         1 RES1    0.0000
     13 H5       -23.5061   -0.1983   -0.5103 H         1 RES1    0.0000
     14 H6       -23.2166   -1.2719   -1.6156 H         1 RES1    0.0000
     15 C3       -21.5465   -0.2103   -1.0978 C.3       1 RES1    0.0000
     16 C4       -19.6022   -1.0017   -1.9843 C.3       1 RES1    0.0000
     17 H7       -18.8951   -0.3247   -2.0160 H         1 RES1    0.0000
     18 C5       -19.7698   -1.6141   -0.6097 C.3       1 RES1    0.0000
     19 H8       -19.0871   -1.2766    0.0106 H         1 RES1    0.0000
     20 C6       -19.3187   -2.1962   -2.8919 C.3       1 RES1    0.0000
     21 H9       -19.7424   -2.0956   -3.7710 H         1 RES1    0.0000
     22 C7       -19.9039   -3.3648   -2.1132 C.3       1 RES1    0.0000
     23 H10      -20.8669   -3.4045   -2.2907 H         1 RES1    0.0000
     24 C8       -17.2616   -1.5985   -3.9295 C.3       1 RES1    0.0000
     25 H11      -17.1184   -0.7287   -3.5259 H         1 RES1    0.0000
     26 H12      -17.8254   -1.4813   -4.7093 H         1 RES1    0.0000
     27 C9       -15.9146   -2.2008   -4.3511 C.3       1 RES1    0.0000
     28 H13      -16.0487   -3.0982   -4.6956 H         1 RES1    0.0000
     29 H14      -15.5184   -1.6612   -5.0527 H         1 RES1    0.0000
     30 C10      -14.9911   -2.2414   -3.1402 C.3       1 RES1    0.0000
     31 H15      -15.3172   -2.8723   -2.4788 H         1 RES1    0.0000
     32 H16      -14.9210   -1.3651   -2.7303 H         1 RES1    0.0000
     33 C11      -19.3248   -4.7290   -2.3446 C.2       1 RES1    0.0000
     34 C12      -18.0540   -5.2566   -1.7772 C.3       1 RES1    0.0000
     35 H17      -18.1424   -5.4577   -0.8326 H         1 RES1    0.0000
     36 H18      -17.3195   -4.6386   -1.9093 H         1 RES1    0.0000
     37 C13      -17.8772   -6.5378   -2.6172 C.3       1 RES1    0.0000
     38 H19      -17.6608   -7.2904   -2.0287 H         1 RES1    0.0000
     39 C14      -16.9325   -6.5009   -3.7436 C.3       1 RES1    0.0000
     40 H20      -16.8685   -5.6025   -4.1039 H         1 RES1    0.0000
     41 H21      -17.2220   -7.0995   -4.4504 H         1 RES1    0.0000
     42 H22      -17.6151   -0.7010   -3.8397 Du        3 SUP3    0.0000
     43 H23      -17.4414   -1.9056   -4.8319 Du        3 SUP3    0.0000
     44 C15      -15.6677   -1.5773   -3.6770 Du        3 SUP3    0.0000
     45 H24      -15.2350   -1.1234   -4.4177 Du        3 SUP3    0.0000
     46 H25      -15.4788   -1.0746   -2.8687 Du        3 SUP3    0.0000
     47 C16      -15.1009   -2.9885   -3.5396 Du        3 SUP3    0.0000
     48 H26      -15.4513   -3.5751   -4.2286 Du        3 SUP3    0.0000
     49 H27      -15.2868   -3.3602   -2.6701 Du        3 SUP3    0.0000
     50 H28      -17.2525   -5.8202   -4.3553 Du        3 SUP3    0.0000
     51 H29      -17.0148   -7.3494   -4.2053 Du        3 SUP3    0.0000
     52 O6       -10.1820    0.5414   -6.1051 O.3       2 RES2    0.0000
     53 O7        -9.0291   -1.1115   -7.1363 O.3       2 RES2    0.0000
     54 O8       -12.1569   -0.5645   -6.7095 O.3       2 RES2    0.0000
     55 O9       -11.8418   -3.4321   -7.0074 O.3       2 RES2    0.0000
     56 O10      -14.6407   -1.7829  -10.2375 O.3       2 RES2    0.0000
     57 N2       -13.3089   -1.4020   -9.8085 N.2       2 RES2    0.0000
     58 C17       -7.9695    0.0443   -5.2757 C.3       2 RES2    0.0000
     59 H30       -7.9420    0.8965   -4.8361 H         2 RES2    0.0000
     60 H31       -7.0796   -0.2177   -5.5250 H         2 RES2    0.0000
     61 H32       -8.3413   -0.6106   -4.6797 H         2 RES2    0.0000
     62 C18       -8.3413    1.1290   -7.5062 C.3       2 RES2    0.0000
     63 H33       -8.9112    1.1234   -8.2796 H         2 RES2    0.0000
     64 H34       -7.4483    0.8984   -7.7671 H         2 RES2    0.0000
     65 H35       -8.3443    2.0043   -7.1120 H         2 RES2    0.0000
     66 C19       -8.8380    0.1448   -6.5225 C.3       2 RES2    0.0000
     67 C20      -10.1272   -1.7719   -6.5024 C.3       2 RES2    0.0000
     68 H36       -9.8407   -2.4046   -5.8114 H         2 RES2    0.0000
     69 C21      -10.9592   -0.6281   -5.9413 C.3       2 RES2    0.0000
     70 H37      -11.1603   -0.7794   -4.9946 H         2 RES2    0.0000
     71 C22      -11.0171   -2.4249   -7.5727 C.3       2 RES2    0.0000
     72 H38      -10.4990   -2.7560   -8.3345 H         2 RES2    0.0000
     73 C23      -11.2761   -4.7419   -6.9240 C.3       2 RES2    0.0000
     74 H39      -10.3131   -4.6681   -7.0053 H         2 RES2    0.0000
     75 H40      -11.4681   -5.1062   -6.0459 H         2 RES2    0.0000
     76 C24      -11.7455   -5.6541   -7.9045 C.3       2 RES2    0.0000
     77 H41      -11.2670   -6.4889   -7.7819 H         2 RES2    0.0000
     78 H42      -11.4925   -5.3064   -8.7741 H         2 RES2    0.0000
     79 C25      -11.8948   -1.2101   -7.9457 C.3       2 RES2    0.0000
     80 H43      -11.4011   -0.6097   -8.5437 H         2 RES2    0.0000
     81 C26      -13.2144   -1.5560   -8.5385 C.2       2 RES2    0.0000
     82 C27      -14.4852   -1.9969   -7.8960 C.3       2 RES2    0.0000
     83 H44      -14.9332   -1.2683   -7.4385 H         2 RES2    0.0000
     84 H45      -14.3451   -2.7339   -7.2811 H         2 RES2    0.0000
     85 C28      -15.2350   -2.4332   -9.1524 C.3       2 RES2    0.0000
     86 H46      -14.9363   -3.3593   -9.2686 H         2 RES2    0.0000
     87 C29      -16.6399   -2.5688   -9.0879 C.3       2 RES2    0.0000
     88 H47      -16.9203   -3.0300   -9.8930 H         2 RES2    0.0000
     89 H48      -17.0178   -1.6750   -9.1291 H         2 RES2    0.0000
     90 C30      -17.2738   -3.2541   -7.9510 C.3       2 RES2    0.0000
     91 H49      -17.0818   -2.7210   -7.1628 H         2 RES2    0.0000
     92 H50      -16.8045   -4.0953   -7.8369 H         2 RES2    0.0000
     93 O1A       -9.3897   -8.0025   -0.1923 O.3       1 RES1    0.0000
     94 O2A       -9.5881   -8.7459   -2.3235 O.3       1 RES1    0.0000
     95 O3A      -10.7666   -6.2011   -0.7090 O.3       1 RES1    0.0000
     96 O4A      -11.2432   -2.4913   -3.1962 O.3       1 RES1    0.0000
     97 O5A      -12.5729   -6.7656   -2.9976 O.3       1 RES1    0.0000
     98 N1A      -10.5020   -3.6978   -3.0874 N.2       1 RES1    0.0000
     99 C1A       -9.2586  -10.3767   -0.5568 C.3       1 RES1    0.0000
    100 H1A      -10.2095  -10.4938   -0.5420 H         1 RES1    0.0000
    101 H2A       -8.9112  -10.4588    0.3349 H         1 RES1    0.0000
    102 H3A       -8.8624  -11.0472   -1.1168 H         1 RES1    0.0000
    103 C2A       -7.4422   -8.8492   -1.3282 C.3       1 RES1    0.0000
    104 H4A       -7.1527   -9.4663   -2.0033 H         1 RES1    0.0000
    105 H5A       -6.9699   -9.0254   -0.5103 H         1 RES1    0.0000
    106 H6A       -7.2594   -7.9518   -1.6156 H         1 RES1    0.0000
    107 C3A       -8.9295   -9.0134   -1.0978 C.3       1 RES1    0.0000
    108 C4A      -10.8738   -8.2220   -1.9843 C.3       1 RES1    0.0000
    109 H7A      -11.5809   -8.8990   -2.0160 H         1 RES1    0.0000
    110 C5A      -10.7062   -7.6096   -0.6097 C.3       1 RES1    0.0000
    111 H8A      -11.3889   -7.9471    0.0106 H         1 RES1    0.0000
    112 C6A      -11.1573   -7.0275   -2.8919 C.3       1 RES1    0.0000
    113 H9A      -10.7336   -7.1281   -3.7710 H         1 RES1    0.0000
    114 C7A      -10.5721   -5.8589   -2.1132 C.3       1 RES1    0.0000
    115 H10A      -9.6091   -5.8192   -2.2907 H         1 RES1    0.0000
    116 C8A      -13.2144   -7.6252   -3.9295 C.3       1 RES1    0.0000
    117 H11A     -13.3576   -8.4950   -3.5259 H         1 RES1    0.0000
    118 H12A     -12.6506   -7.7424   -4.7093 H         1 RES1    0.0000
    119 C9A      -14.5614   -7.0229   -4.3511 C.3       1 RES1    0.0000
    120 H13A     -14.4273   -6.1255   -4.6956 H         1 RES1    0.0000
    121 H14A     -14.9576   -7.5625   -5.0527 H         1 RES1    0.0000
    122 C10A     -15.4849   -6.9823   -3.1402 C.3       1 RES1    0.0000
    123 H15A     -15.1588   -6.3514   -2.4788 H         1 RES1    0.0000
    124 H16A     -15.5550   -7.8586   -2.7303 H         1 RES1    0.0000
    125 C11A     -11.1512   -4.4947   -2.3446 C.2       1 RES1    0.0000
    126 C12A     -12.4220   -3.9671   -1.7772 C.3       1 RES1    0.0000
    127 H17A     -12.3336   -3.7660   -0.8326 H         1 RES1    0.0000
    128 H18A     -13.1565   -4.5851   -1.9093 H         1 RES1    0.0000
    129 C13A     -12.5988   -2.6859   -2.6172 C.3       1 RES1    0.0000
    130 H19A     -12.8152   -1.9333   -2.0287 H         1 RES1    0.0000
    131 C14A     -13.5435   -2.7228   -3.7436 C.3       1 RES1    0.0000
    132 H20A     -13.6075   -3.6212   -4.1039 H         1 RES1    0.0000
    133 H21A     -13.2540   -2.1242   -4.4504 H         1 RES1    0.0000
    134 O6A      -20.2940   -9.7651   -6.1051 O.3       2 RES2    0.0000
    135 O7A      -21.4469   -8.1122   -7.1363 O.3       2 RES2    0.0000
    136 O8A      -18.3191   -8.6592   -6.7095 O.3       2 RES2    0.0000
    137 O9A      -18.6342   -5.7916   -7.0074 O.3       2 RES2    0.0000
    138 O10A     -15.8353   -7.4408  -10.2375 O.3       2 RES2    0.0000
    139 N2A      -17.1671   -7.8217   -9.8085 N.2       2 RES2    0.0000
    140 C17A     -22.5065   -9.2680   -5.2757 C.3       2 RES2    0.0000
    141 H30A     -22.5340  -10.1202   -4.8361 H         2 RES2    0.0000
    142 H31A     -23.3964   -9.0060   -5.5250 H         2 RES2    0.0000
    143 H32A     -22.1347   -8.6131   -4.6797 H         2 RES2    0.0000
    144 C18A     -22.1347  -10.3527   -7.5062 C.3       2 RES2    0.0000
    145 H33A     -21.5648  -10.3471   -8.2796 H         2 RES2    0.0000
    146 H34A     -23.0277  -10.1221   -7.7671 H         2 RES2    0.0000
    147 H35A     -22.1317  -11.2280   -7.1120 H         2 RES2    0.0000
    148 C19A     -21.6380   -9.3685   -6.5225 C.3       2 RES2    0.0000
    149 C20A     -20.3488   -7.4518   -6.5024 C.3       2 RES2    0.0000
    150 H36A     -20.6353   -6.8191   -5.8114 H         2 RES2    0.0000
    151 C21A     -19.5168   -8.5956   -5.9413 C.3       2 RES2    0.0000
    152 H37A     -19.3157   -8.4443   -4.9946 H         2 RES2    0.0000
    153 C22A     -19.4589   -6.7988   -7.5727 C.3       2 RES2    0.0000
    154 H38A     -19.9770   -6.4677   -8.3345 H         2 RES2    0.0000
    155 C23A     -19.1999   -4.4818   -6.9240 C.3       2 RES2    0.0000
    156 H39A     -20.1629   -4.5556   -7.0053 H         2 RES2    0.0000
    157 H40A     -19.0079   -4.1175   -6.0459 H         2 RES2    0.0000
    158 C24A     -18.7305   -3.5696   -7.9045 C.3       2 RES2    0.0000
    159 H41A     -19.2090   -2.7348   -7.7819 H         2 RES2    0.0000
    160 H42A     -18.9835   -3.9173   -8.7741 H         2 RES2    0.0000
    161 C25A     -18.5812   -8.0136   -7.9457 C.3       2 RES2    0.0000
    162 H43A     -19.0749   -8.6140   -8.5437 H         2 RES2    0.0000
    163 C26A     -17.2616   -7.6677   -8.5385 C.2       2 RES2    0.0000
    164 C27A     -15.9908   -7.2268   -7.8960 C.3       2 RES2    0.0000
    165 H44A     -15.5428   -7.9554   -7.4385 H         2 RES2    0.0000
    166 H45A     -16.1309   -6.4898   -7.2811 H         2 RES2    0.0000
    167 C28A     -15.2410   -6.7905   -9.1524 C.3       2 RES2    0.0000
    168 H46A     -15.5397   -5.8644   -9.2686 H         2 RES2    0.0000
    169 C29A     -13.8361   -6.6549   -9.0879 C.3       2 RES2    0.0000
    170 H47A     -13.5557   -6.1937   -9.8930 H         2 RES2    0.0000
    171 H48A     -13.4582   -7.5487   -9.1291 H         2 RES2    0.0000
    172 C30A     -13.2022   -5.9696   -7.9510 C.3       2 RES2    0.0000
    173 H49A     -13.3942   -6.5027   -7.1628 H         2 RES2    0.0000
    174 H50A     -13.6715   -5.1284   -7.8369 H         2 RES2    0.0000
@<TRIPOS>BOND
     1    1   15 1
     2    2   15 1
     3    3   18 1
     4    4    6 1
     5    5   20 1
     6    6   33 2
     7    7    8 1
     8    9    7 1
     9   10    7 1
    10   11   12 1
    11   13   11 1
    12   14   11 1
    13   15    7 1
    14   16    2 1
    15   17   16 1
    16   18    1 1
    17   19   18 1
    18   20   16 1
    19   21   20 1
    20   22    3 1
    21   23   22 1
    22   24    5 1
    23   25   24 1
    24   26   24 1
    25   27   24 1
    26   28   27 1
    27   29   27 1
    28   30   27 1
    29   31   30 1
    30   32   30 1
    31   33   22 1
    32   34   33 1
    33   35   34 1
    34   36   34 1
    35   37    4 1
    36   38   37 1
    37   39   37 1
    38   40   39 1
    39   41   39 1
    40   52   66 1
    41   53   66 1
    42   54   69 1
    43   55   71 1
    44   56   57 1
    45   57   81 2
    46   58   59 1
    47   60   58 1
    48   61   58 1
    49   62   63 1
    50   64   62 1
    51   65   62 1
    52   66   58 1
    53   67   53 1
    54   68   67 1
    55   69   52 1
    56   70   69 1
    57   71   67 1
    58   72   71 1
    59   73   55 1
    60   74   73 1
    61   75   73 1
    62   76   73 1
    63   77   76 1
    64   78   76 1
    65   79   54 1
    66   80   79 1
    67   81   79 1
    68   82   81 1
    69   83   82 1
    70   84   82 1
    71   85   56 1
    72   86   85 1
    73   87   85 1
    74   88   87 1
    75   89   87 1
    76   90   87 1
    77   91   90 1
    78   92   90 1
    79   93  107 1
    80   94  107 1
    81   95  110 1
    82   96   98 1
    83   97  112 1
    84   98  125 2
    85   99  100 1
    86  101   99 1
    87  102   99 1
    88  103  104 1
    89  105  103 1
    90  106  103 1
    91  107   99 1
    92  108   94 1
    93  109  108 1
    94  110   93 1
    95  111  110 1
    96  112  108 1
    97  113  112 1
    98  114   95 1
    99  115  114 1
   100  116   97 1
   101  117  116 1
   102  118  116 1
   103  119  116 1
   104  120  119 1
   105  121  119 1
   106  122   39 1
   107  123  122 1
   108  124  122 1
   109  125  114 1
   110  126  125 1
   111  127  126 1
   112  128  126 1
   113  129   96 1
   114  130  129 1
   115  131   30 1
   116  132  131 1
   117  133  131 1
   118  134  148 1
   119  135  148 1
   120  136  151 1
   121  137  153 1
   122  138  139 1
   123  139  163 2
   124  140  141 1
   125  142  140 1
   126  143  140 1
   127  144  145 1
   128  146  144 1
   129  147  144 1
   130  148  140 1
   131  149  135 1
   132  150  149 1
   133  151  134 1
   134  152  151 1
   135  153  149 1
   136  154  153 1
   137  155  137 1
   138  156  155 1
   139  157  155 1
   140  158   90 1
   141  159  158 1
   142  160  158 1
   143  161  136 1
   144  162  161 1
   145  163  161 1
   146  164  163 1
   147  165  164 1
   148  166  164 1
   149  167  138 1
   150  168  167 1
   151  169  167 1
   152  170  169 1
   153  171  169 1
   154  172   76 1
   155  173  172 1
   156  174  172 1
   157   11   15 1
   158   16   18 1
   159   20   22 1
   160   34   37 1
   161   62   66 1
   162   67   69 1
   163   71   79 1
   164   82   85 1
   165  103  107 1
   166  108  110 1
   167  112  114 1
   168  119  122 1
   169  126  129 1
   170  129  131 1
   171  144  148 1
   172  149  151 1
   173  153  161 1
   174  155  158 1
   175  164  167 1
   176  169  172 1
@<TRIPOS>SUBSTRUCTURE
     1 RES1 1
     2 RES2 52
     3 SUP3 42

@<TRIPOS>CRYSIN
  30.4760    9.2237   10.5661  90.0000  90.0000  90.0000  18 1

