# MOL2 file generated by ConQuest
# Please check atom types

@<TRIPOS>MOLECULE
MAQTIK
    57    61     1
SMALL
NO_CHARGES
****
Generated from CSD

@<TRIPOS>ATOM
      1 N1         8.7384    0.6504   10.5374 N.3       1 RES1    0.0000
      2 O1         9.6815    1.7262   10.8077 O.3       1 RES1    0.0000
      3 O2         7.2496   -0.2067    7.3575 O.2       1 RES1    0.0000
      4 C1         7.9252    0.3700   11.6685 C.ar      1 RES1    0.0000
      5 O3         9.7507   -6.0089    5.8255 O.3       1 RES1    0.0000
      6 N2         8.7676   -1.3054    8.6640 N.am      1 RES1    0.0000
      7 H1         9.1886   -1.2555    9.4127 H         1 RES1    0.0000
      8 C2         7.5999    0.2270   14.0564 C.ar      1 RES1    0.0000
      9 H2         7.8922    0.4363   14.9143 H         1 RES1    0.0000
     10 C3         6.7394   -0.3575   11.4959 C.ar      1 RES1    0.0000
     11 H3         6.4366   -0.5541   10.6382 H         1 RES1    0.0000
     12 C4         8.3416    0.6730   12.9611 C.ar      1 RES1    0.0000
     13 H4         9.1142    1.1727   13.0957 H         1 RES1    0.0000
     14 C5         7.9733   -0.2653    8.3399 C.2       1 RES1    0.0000
     15 C6         6.4327   -0.5239   13.9025 C.ar      1 RES1    0.0000
     16 C7         8.9754   -2.4777    7.8857 C.ar      1 RES1    0.0000
     17 C8         6.0143   -0.7857   12.6004 C.ar      1 RES1    0.0000
     18 H5         5.2260   -1.2610   12.4666 H         1 RES1    0.0000
     19 C9         8.0576    0.9420    9.2658 C.3       1 RES1    0.0000
     20 H6         7.1542    1.2758    9.4488 H         1 RES1    0.0000
     21 C10        9.4897   -4.8092    6.4390 C.ar      1 RES1    0.0000
     22 C11       11.4539    5.9642    9.8286 C.ar      1 RES1    0.0000
     23 H7        11.3318    6.8850    9.8846 H         1 RES1    0.0000
     24 C12        9.3461    2.8055    9.9084 C.3       1 RES1    0.0000
     25 H8         8.5884    3.3081   10.2745 H         1 RES1    0.0000
     26 C13       10.3522    5.1002    9.8906 C.ar      1 RES1    0.0000
     27 H9         9.4958    5.4473    9.9971 H         1 RES1    0.0000
     28 C14       10.5389    3.7192    9.7934 C.ar      1 RES1    0.0000
     29 C15        9.0736   -3.6601    5.7830 C.ar      1 RES1    0.0000
     30 H10        8.9600   -3.6671    4.8604 H         1 RES1    0.0000
     31 C16        8.8994    2.0605    8.6649 C.3       1 RES1    0.0000
     32 C17        9.6438   -4.7926    7.8218 C.ar      1 RES1    0.0000
     33 H11        9.9236   -5.5595    8.2670 H         1 RES1    0.0000
     34 C18       11.8287    3.2117    9.6370 C.ar      1 RES1    0.0000
     35 H12       11.9583    2.2938    9.5646 H         1 RES1    0.0000
     36 C19        9.3820   -3.6382    8.5354 C.ar      1 RES1    0.0000
     37 H13        9.4790   -3.6376    9.4608 H         1 RES1    0.0000
     38 C20        9.7223   -6.0316    4.4006 C.3       1 RES1    0.0000
     39 H14       10.3499   -5.3902    4.0576 H         1 RES1    0.0000
     40 H15        8.8391   -5.8099    4.0947 H         1 RES1    0.0000
     41 H16        9.9588   -6.9089    4.0893 H         1 RES1    0.0000
     42 C21        5.6633   -1.0600   15.0861 C.3       1 RES1    0.0000
     43 H17        5.8428   -1.9974   15.1862 H         1 RES1    0.0000
     44 H18        4.7235   -0.9278   14.9437 H         1 RES1    0.0000
     45 H19        5.9346   -0.5965   15.8809 H         1 RES1    0.0000
     46 C22        8.8252   -2.4931    6.5055 C.ar      1 RES1    0.0000
     47 H20        8.5582   -1.7213    6.0607 H         1 RES1    0.0000
     48 C23       12.7284    5.4355    9.6825 C.ar      1 RES1    0.0000
     49 H21       13.4627    6.0050    9.6465 H         1 RES1    0.0000
     50 C24        8.5568    2.7442    7.3868 C.3       1 RES1    0.0000
     51 H22        8.6950    3.7039    7.3364 H         1 RES1    0.0000
     52 H23        7.7911    2.4153    6.8897 H         1 RES1    0.0000
     53 C25        9.7769    1.8630    7.4591 C.3       1 RES1    0.0000
     54 H24        9.7428    1.0033    7.0099 H         1 RES1    0.0000
     55 H25       10.6468    2.2919    7.4566 H         1 RES1    0.0000
     56 C26       12.9182    4.0675    9.5896 C.ar      1 RES1    0.0000
     57 H26       13.7761    3.7223    9.4958 H         1 RES1    0.0000
@<TRIPOS>BOND
     1    1    2 1
     2    2   24 1
     3    3   14 2
     4    4    1 1
     5    5   21 1
     6    6    7 1
     7    8    9 1
     8   10    4 ar
     9   11   10 1
    10   12    4 ar
    11   13   12 1
    12   14    6 1
    13   15    8 ar
    14   16    6 1
    15   17   10 ar
    16   18   17 1
    17   19    1 1
    18   20   19 1
    19   21   29 ar
    20   22   23 1
    21   24   25 1
    22   26   22 ar
    23   27   26 1
    24   28   24 1
    25   29   30 1
    26   31   19 1
    27   32   21 ar
    28   33   32 1
    29   34   28 ar
    30   35   34 1
    31   36   16 ar
    32   37   36 1
    33   38    5 1
    34   39   38 1
    35   40   38 1
    36   41   38 1
    37   42   15 1
    38   43   42 1
    39   44   42 1
    40   45   42 1
    41   46   16 ar
    42   47   46 1
    43   48   22 ar
    44   49   48 1
    45   50   31 1
    46   51   50 1
    47   52   50 1
    48   53   31 1
    49   54   53 1
    50   55   53 1
    51   56   34 ar
    52   57   56 1
    53    8   12 ar
    54   14   19 1
    55   15   17 ar
    56   24   31 1
    57   26   28 ar
    58   29   46 ar
    59   32   36 ar
    60   48   56 ar
    61   50   53 1
@<TRIPOS>SUBSTRUCTURE
     1 RES1 1

@<TRIPOS>CRYSIN
  10.7953   18.4091   10.9333  90.0000  92.5830  90.0000 231 1

