# MOL2 file generated by ConQuest
# Please check atom types

@<TRIPOS>MOLECULE
MARPIG
    58    59     1
SMALL
NO_CHARGES
****
Generated from CSD

@<TRIPOS>ATOM
      1 N1         2.2858    5.7919    6.5781 N.2       1 RES1    0.0000
      2 O1         3.1719    6.8370    6.8676 O.3       1 RES1    0.0000
      3 O2         0.9611    4.0361    5.1676 O.3       1 RES1    0.0000
      4 H1         1.5051    4.6369    5.2873 H         1 RES1    0.0000
      5 O3        -0.7764    2.1433    5.0863 O.3       1 RES1    0.0000
      6 C1         3.7896    7.2589    5.6510 C.3       1 RES1    0.0000
      7 H2         3.1134    7.4972    4.9976 H         1 RES1    0.0000
      8 H3         4.3323    6.5420    5.2848 H         1 RES1    0.0000
      9 C2         4.6437    8.4443    5.9642 C.3       1 RES1    0.0000
     10 H4         5.1541    8.6822    5.1746 H         1 RES1    0.0000
     11 H5         5.2734    8.2028    6.6614 H         1 RES1    0.0000
     12 C3         1.7232    5.3519    7.6311 C.2       1 RES1    0.0000
     13 H6         1.9418    5.7170    8.4576 H         1 RES1    0.0000
     14 C4         0.7484    4.2901    7.5533 C.ar      1 RES1    0.0000
     15 C5         0.4051    3.6847    6.3570 C.ar      1 RES1    0.0000
     16 C6        -0.5402    2.6607    6.3119 C.ar      1 RES1    0.0000
     17 C7        -1.1411    2.2674    7.4802 C.ar      1 RES1    0.0000
     18 H7        -1.7742    1.5866    7.4673 H         1 RES1    0.0000
     19 C8        -0.8133    2.8744    8.6711 C.ar      1 RES1    0.0000
     20 H8        -1.2319    2.6034    9.4567 H         1 RES1    0.0000
     21 C9         0.1169    3.8655    8.7112 C.ar      1 RES1    0.0000
     22 H9         0.3318    4.2624    9.5248 H         1 RES1    0.0000
     23 C10       -1.7635    1.1302    4.9764 C.3       1 RES1    0.0000
     24 H10       -2.6203    1.4600    5.2897 H         1 RES1    0.0000
     25 H11       -1.5151    0.3600    5.5101 H         1 RES1    0.0000
     26 C11       -1.8485    0.7591    3.5480 C.3       1 RES1    0.0000
     27 H12       -2.2005    1.4980    3.0453 H         1 RES1    0.0000
     28 H13       -2.4275    0.0000    3.4477 H         1 RES1    0.0000
     29 H14       -0.9730    0.5391    3.2211 H         1 RES1    0.0000
     30 N1B        6.2110   12.2998    5.8014 N.2       1 RES1    0.0000
     31 O1B        5.3249   11.2547    5.5118 O.3       1 RES1    0.0000
     32 O2B        7.5357   14.0556    7.2119 O.3       1 RES1    0.0000
     33 H1B        6.9917   13.4548    7.0922 H         1 RES1    0.0000
     34 O3B        9.2732   15.9484    7.2931 O.3       1 RES1    0.0000
     35 C1B        4.7072   10.8328    6.7285 C.3       1 RES1    0.0000
     36 H2B        5.3834   10.5945    7.3819 H         1 RES1    0.0000
     37 H3B        4.1645   11.5497    7.0947 H         1 RES1    0.0000
     38 C2B        3.8531    9.6474    6.4153 C.3       1 RES1    0.0000
     39 H4B        3.3427    9.4095    7.2048 H         1 RES1    0.0000
     40 H5B        3.2234    9.8889    5.7181 H         1 RES1    0.0000
     41 C3B        6.7736   12.7398    4.7484 C.2       1 RES1    0.0000
     42 H6B        6.5550   12.3747    3.9218 H         1 RES1    0.0000
     43 C4B        7.7485   13.8016    4.8261 C.ar      1 RES1    0.0000
     44 C5B        8.0917   14.4070    6.0225 C.ar      1 RES1    0.0000
     45 C6B        9.0371   15.4310    6.0675 C.ar      1 RES1    0.0000
     46 C7B        9.6379   15.8243    4.8993 C.ar      1 RES1    0.0000
     47 H7B       10.2710   16.5051    4.9122 H         1 RES1    0.0000
     48 C8B        9.3101   15.2173    3.7084 C.ar      1 RES1    0.0000
     49 H8B        9.7287   15.4883    2.9228 H         1 RES1    0.0000
     50 C9B        8.3799   14.2262    3.6683 C.ar      1 RES1    0.0000
     51 H9B        8.1651   13.8293    2.8547 H         1 RES1    0.0000
     52 C10B      10.2604   16.9615    7.4030 C.3       1 RES1    0.0000
     53 H10B      11.1171   16.6317    7.0897 H         1 RES1    0.0000
     54 H11B      10.0119   17.7317    6.8694 H         1 RES1    0.0000
     55 C11B      10.3453   17.3326    8.8315 C.3       1 RES1    0.0000
     56 H12B      10.6973   16.5937    9.3341 H         1 RES1    0.0000
     57 H13B      10.9243   18.0917    8.9318 H         1 RES1    0.0000
     58 H14B       9.4698   17.5526    9.1583 H         1 RES1    0.0000
@<TRIPOS>BOND
     1    1    2 1
     2    2    6 1
     3    3    4 1
     4    5   16 1
     5    6    7 1
     6    8    6 1
     7    9    6 1
     8   10    9 1
     9   11    9 1
    10   12    1 2
    11   13   12 1
    12   14   12 1
    13   15    3 1
    14   16   15 ar
    15   17   16 ar
    16   18   17 1
    17   19   17 ar
    18   20   19 1
    19   21   14 ar
    20   22   21 1
    21   23    5 1
    22   24   23 1
    23   25   23 1
    24   26   23 1
    25   27   26 1
    26   28   26 1
    27   29   26 1
    28   30   31 1
    29   31   35 1
    30   32   33 1
    31   34   45 1
    32   35   36 1
    33   37   35 1
    34   38    9 1
    35   39   38 1
    36   40   38 1
    37   41   30 2
    38   42   41 1
    39   43   41 1
    40   44   32 1
    41   45   44 ar
    42   46   45 ar
    43   47   46 1
    44   48   46 ar
    45   49   48 1
    46   50   43 ar
    47   51   50 1
    48   52   34 1
    49   53   52 1
    50   54   52 1
    51   55   52 1
    52   56   55 1
    53   57   55 1
    54   58   55 1
    55   14   15 ar
    56   19   21 ar
    57   35   38 1
    58   43   44 ar
    59   48   50 ar
@<TRIPOS>SUBSTRUCTURE
     1 RES1 1

@<TRIPOS>CRYSIN
   4.6719   18.0917   12.4084  90.0000  93.9140  90.0000 231 1

