# MOL2 file generated by ConQuest
# Please check atom types

@<TRIPOS>MOLECULE
MARZUA
    64    66     2
SMALL
USER_CHARGES
****
Generated from CSD

@<TRIPOS>ATOM
      1 O1         7.2963    6.1310    3.7594 O.2       1 RES1    0.0000
      2 O2         2.7926    6.2425    4.9323 O.2       1 RES1   -1.0000
      3 N1         6.5805    8.5920    6.9887 N.3       1 RES1    0.0000
      4 N2         6.7137    7.7335    5.9377 N.2       1 RES1    0.0000
      5 N3         4.5266    7.9414    6.5442 N.2       1 RES1    0.0000
      6 N4         6.0239    5.9696    3.7474 N.3       1 RES1    0.0000
      7 N5         3.8993    6.0109    4.3005 N.pl3     1 RES1    1.0000
      8 N6         4.8427    9.5185    8.3283 N.3       1 RES1    0.0000
      9 C1         5.4568    7.3753    5.7101 C.2       1 RES1    0.0000
     10 C2         5.2856    8.6991    7.3439 C.2       1 RES1    0.0000
     11 C3         5.1264    6.4680    4.6338 C.2       1 RES1    0.0000
     12 C4         5.3276    5.3661    2.5574 C.3       1 RES1    0.0000
     13 C5         3.9734    4.9742    3.2015 C.3       1 RES1    0.0000
     14 C6         5.2075    6.5030    1.5253 C.3       1 RES1    0.0000
     15 C7         6.1443    4.2315    1.9781 C.3       1 RES1    0.0000
     16 C8         2.7608    5.0896    2.2772 C.3       1 RES1    0.0000
     17 C9         3.9889    3.6173    3.9100 C.3       1 RES1    0.0000
     18 H1         4.6349    7.2288    1.8790 H         1 RES1    0.0000
     19 H2         4.8342    6.1415    0.7106 H         1 RES1    0.0000
     20 H3         6.1442    6.7924    1.3501 H         1 RES1    0.0000
     21 H4         6.2399    3.4675    2.5615 H         1 RES1    0.0000
     22 H5         7.0710    4.5988    1.7021 H         1 RES1    0.0000
     23 H6         5.6918    3.8495    1.2229 H         1 RES1    0.0000
     24 H7         2.6416    5.9799    1.9153 H         1 RES1    0.0000
     25 H8         1.9415    4.9367    2.8259 H         1 RES1    0.0000
     26 H9         2.9026    4.4225    1.4956 H         1 RES1    0.0000
     27 H10        4.7988    3.5865    4.5495 H         1 RES1    0.0000
     28 H11        3.9984    2.8798    3.2423 H         1 RES1    0.0000
     29 H12        3.1330    3.5262    4.4454 H         1 RES1    0.0000
     30 H13        7.3954    8.9185    7.3589 H         1 RES1    0.0000
     31 H14        3.9293    9.4768    8.4859 H         1 RES1    0.0000
     32 H15        5.4377    9.7706    8.9073 H         1 RES1    0.0000
     33 O3        -2.0434   10.3572    9.0045 O.2       2 RES2    0.0000
     34 O4         2.4697   11.1213    9.7543 O.2       2 RES2   -1.0000
     35 N7         1.7476    8.0575    6.9957 N.3       2 RES2    0.0000
     36 N8         1.8937    8.9865    8.0003 N.2       2 RES2    0.0000
     37 N9        -0.2907    8.7842    7.3777 N.2       2 RES2    0.0000
     38 N10       -0.9426   10.8489    9.4234 N.3       2 RES2    0.0000
     39 N11        1.1959   11.2333    9.7617 N.pl3     2 RES2    1.0000
     40 N12        0.0028    7.1407    5.6620 N.3       2 RES2    0.0000
     41 C10        0.6438    9.3781    8.1840 C.2       2 RES2    0.0000
     42 C11        0.4553    7.9514    6.6450 C.2       2 RES2    0.0000
     43 C12        0.3035   10.4299    9.1187 C.2       2 RES2    0.0000
     44 C13       -0.9266   11.9156   10.4996 C.3       2 RES2    0.0000
     45 C14        0.5093   12.4628   10.3104 C.3       2 RES2    0.0000
     46 C15       -2.0462   12.9222   10.2344 C.3       2 RES2    0.0000
     47 C16       -1.1636   11.1885   11.8175 C.3       2 RES2    0.0000
     48 C17        0.6229   13.5217    9.2114 C.3       2 RES2    0.0000
     49 C18        1.1866   12.9369   11.5779 C.3       2 RES2    0.0000
     50 H16       -1.9704   13.2822    9.3535 H         2 RES2    0.0000
     51 H17       -1.9750   13.6201   10.8904 H         2 RES2    0.0000
     52 H18       -2.9395   12.4594   10.3947 H         2 RES2    0.0000
     53 H19       -0.4025   10.5934   12.0257 H         2 RES2    0.0000
     54 H20       -2.0572   10.6816   11.7663 H         2 RES2    0.0000
     55 H21       -1.2222   11.8717   12.5926 H         2 RES2    0.0000
     56 H22        0.1997   13.2234    8.3289 H         2 RES2    0.0000
     57 H23        1.5641   13.7083    9.0148 H         2 RES2    0.0000
     58 H24        0.2127   14.4135    9.4857 H         2 RES2    0.0000
     59 H25        1.1877   12.2831   12.2455 H         2 RES2    0.0000
     60 H26        0.6597   13.7083   11.9646 H         2 RES2    0.0000
     61 H27        2.1198   13.1206   11.4523 H         2 RES2    0.0000
     62 H28        2.5663    7.7284    6.5772 H         2 RES2    0.0000
     63 H29        0.5687    6.6411    5.3345 H         2 RES2    0.0000
     64 H30       -0.8783    7.1260    5.5311 H         2 RES2    0.0000
@<TRIPOS>BOND
     1    1    6 1
     2    2    7 1
     3    3    4 1
     4    4    9 2
     5    5    9 1
     6    6   11 1
     7    7   11 2
     8    8   10 1
     9    9   11 1
    10   10    3 1
    11   12    6 1
    12   13    7 1
    13   14   12 1
    14   15   12 1
    15   16   13 1
    16   17   13 1
    17   18   14 1
    18   19   14 1
    19   20   14 1
    20   21   15 1
    21   22   15 1
    22   23   15 1
    23   24   16 1
    24   25   16 1
    25   26   16 1
    26   27   17 1
    27   28   17 1
    28   29   17 1
    29   30    3 1
    30   31    8 1
    31   32    8 1
    32   33   38 1
    33   34   39 1
    34   35   36 1
    35   36   41 2
    36   37   41 1
    37   38   43 1
    38   39   43 2
    39   40   42 1
    40   41   43 1
    41   42   35 1
    42   44   38 1
    43   45   39 1
    44   46   44 1
    45   47   44 1
    46   48   45 1
    47   49   45 1
    48   50   46 1
    49   51   46 1
    50   52   46 1
    51   53   47 1
    52   54   47 1
    53   55   47 1
    54   56   48 1
    55   57   48 1
    56   58   48 1
    57   59   49 1
    58   60   49 1
    59   61   49 1
    60   62   35 1
    61   63   40 1
    62   64   40 1
    63    5   10 2
    64   12   13 1
    65   37   42 2
    66   44   45 1
@<TRIPOS>SUBSTRUCTURE
     1 RES1 1
     2 RES2 33

@<TRIPOS>CRYSIN
   9.6167   14.6927   16.5683  90.0000  94.1100  90.0000  14 1

