# MOL2 file generated by ConQuest
# Please check atom types

@<TRIPOS>MOLECULE
MASJEW
    46    47     1
SMALL
NO_CHARGES
****
Generated from CSD

@<TRIPOS>ATOM
      1 O1        -2.0391    6.9866    0.5243 O.3       1 RES1    0.0000
      2 N1         5.1288    5.8331    4.6312 N.pl3     1 RES1    0.0000
      3 C1        -2.5974    5.8121    1.1384 C.3       1 RES1    0.0000
      4 O2        -0.3851    5.0166    1.6188 O.3       1 RES1    0.0000
      5 C2        -3.8733    5.4934    0.3688 C.3       1 RES1    0.0000
      6 O3         0.2299    2.8582    1.7484 O.2       1 RES1    0.0000
      7 C3        -4.9624    6.5558    0.5801 C.3       1 RES1    0.0000
      8 C4        -5.2883    6.7703    2.0554 C.3       1 RES1    0.0000
      9 O4         5.1271    6.9393    5.1415 O.2       1 RES1    0.0000
     10 C5        -4.0020    7.1191    2.7970 C.3       1 RES1    0.0000
     11 O5         6.0871    5.0968    4.6850 O.2       1 RES1    0.0000
     12 C6        -2.9103    6.0613    2.6056 C.3       1 RES1    0.0000
     13 C7        -6.3877    7.8355    2.2428 C.3       1 RES1    0.0000
     14 C8        -7.7207    7.3547    1.6288 C.3       1 RES1    0.0000
     15 C9        -6.6088    8.1963    3.6981 C.3       1 RES1    0.0000
     16 C10       -1.6414    4.6467    0.9749 C.3       1 RES1    0.0000
     17 C11        0.4501    4.0373    1.9418 C.2       1 RES1    0.0000
     18 C12        1.6744    4.5465    2.6017 C.ar      1 RES1    0.0000
     19 C13        1.7013    5.7853    3.2237 C.ar      1 RES1    0.0000
     20 C14        2.8389    6.2138    3.8935 C.ar      1 RES1    0.0000
     21 C15        3.9274    5.3836    3.9135 C.ar      1 RES1    0.0000
     22 C16        3.9493    4.1545    3.2835 C.ar      1 RES1    0.0000
     23 C17        2.8064    3.7471    2.6256 C.ar      1 RES1    0.0000
     24 H1        -1.2938    7.2779    1.0167 H         1 RES1    0.0000
     25 H2        -4.2104    4.6302    0.6539 H         1 RES1    0.0000
     26 H3        -3.6667    5.4325   -0.5781 H         1 RES1    0.0000
     27 H4        -4.6661    7.3957    0.1934 H         1 RES1    0.0000
     28 H5        -5.7676    6.2827    0.1116 H         1 RES1    0.0000
     29 H6        -5.6242    5.9230    2.4163 H         1 RES1    0.0000
     30 H7        -4.1946    7.2096    3.7420 H         1 RES1    0.0000
     31 H8        -3.6744    7.9744    2.4761 H         1 RES1    0.0000
     32 H9        -2.1031    6.3527    3.0582 H         1 RES1    0.0000
     33 H10       -3.1994    5.2305    3.0163 H         1 RES1    0.0000
     34 H11       -6.1096    8.6464    1.7683 H         1 RES1    0.0000
     35 H12       -7.5861    7.1408    0.7018 H         1 RES1    0.0000
     36 H13       -8.3773    8.0501    1.7045 H         1 RES1    0.0000
     37 H14       -8.0252    6.5740    2.0973 H         1 RES1    0.0000
     38 H15       -5.7797    8.4831    4.0869 H         1 RES1    0.0000
     39 H16       -6.9361    7.4281    4.1726 H         1 RES1    0.0000
     40 H17       -7.2528    8.9065    3.7580 H         1 RES1    0.0000
     41 H18       -2.0093    3.8512    1.3895 H         1 RES1    0.0000
     42 H19       -1.4949    4.4635    0.0339 H         1 RES1    0.0000
     43 H20        0.9501    6.3327    3.1938 H         1 RES1    0.0000
     44 H21        2.8607    7.0417    4.3162 H         1 RES1    0.0000
     45 H22        4.7088    3.6185    3.3014 H         1 RES1    0.0000
     46 H23        2.7952    2.9242    2.1930 H         1 RES1    0.0000
@<TRIPOS>BOND
     1    1    3 1
     2    2    9 2
     3    3    5 1
     4    4   16 1
     5    5    7 1
     6    6   17 2
     7    7    8 1
     8    8   10 1
     9   10   12 1
    10   11    2 2
    11   12    3 1
    12   13    8 1
    13   14   13 1
    14   15   13 1
    15   16    3 1
    16   17    4 1
    17   18   17 1
    18   19   18 ar
    19   20   19 ar
    20   21    2 1
    21   22   21 ar
    22   23   18 ar
    23   24    1 1
    24   25    5 1
    25   26    5 1
    26   27    7 1
    27   28    7 1
    28   29    8 1
    29   30   10 1
    30   31   10 1
    31   32   12 1
    32   33   12 1
    33   34   13 1
    34   35   14 1
    35   36   14 1
    36   37   14 1
    37   38   15 1
    38   39   15 1
    39   40   15 1
    40   41   16 1
    41   42   16 1
    42   43   19 1
    43   44   20 1
    44   45   22 1
    45   46   23 1
    46   20   21 ar
    47   22   23 ar
@<TRIPOS>SUBSTRUCTURE
     1 RES1 1

@<TRIPOS>CRYSIN
  14.9154    5.6903   20.9257  90.0000 107.6910  90.0000 231 1

