# MOL2 file generated by ConQuest
# Please check atom types

@<TRIPOS>MOLECULE
MASNUS
    47    50     1
SMALL
NO_CHARGES
****
Generated from CSD

@<TRIPOS>ATOM
      1 O1         3.9887    7.0900    5.5368 O.3       1 RES1    0.0000
      2 O2         4.0723    6.5146    2.3517 O.3       1 RES1    0.0000
      3 O3         4.1424    4.9098    4.8608 O.3       1 RES1    0.0000
      4 O4         3.8648    5.1920    0.5560 O.2       1 RES1    0.0000
      5 O5         3.4969    8.3222    7.3347 O.2       1 RES1    0.0000
      6 O6        -2.4139   11.6050   -1.7340 O.2       1 RES1    0.0000
      7 O7        -2.6853   10.2446   -3.3679 O.2       1 RES1    0.0000
      8 N1        -2.1314   10.5843   -2.3208 N.pl3     1 RES1    0.0000
      9 C1         4.5108    4.4236    3.5550 C.3       1 RES1    0.0000
     10 H1         3.7031    4.1458    3.0750 H         1 RES1    0.0000
     11 C2         3.5593    6.1701    1.1813 C.2       1 RES1    0.0000
     12 C3         5.1060    5.6458    2.8669 C.3       1 RES1    0.0000
     13 H2         5.7496    5.3948    2.1722 H         1 RES1    0.0000
     14 C4         5.4654    3.2604    3.6332 C.ar      1 RES1    0.0000
     15 C5         1.8414    7.0804   -0.3083 C.2       1 RES1    0.0000
     16 H3         2.0193    6.3378   -0.8389 H         1 RES1    0.0000
     17 C6         5.6604    2.5975    4.8278 C.ar      1 RES1    0.0000
     18 H4         5.2009    2.8781    5.5863 H         1 RES1    0.0000
     19 C7        -0.4100   10.0992   -0.6650 C.ar      1 RES1    0.0000
     20 H5        -0.5852   10.9144   -0.2543 H         1 RES1    0.0000
     21 C8         0.8247    8.0173   -0.7916 C.ar      1 RES1    0.0000
     22 C9        -1.0847    9.7034   -1.7957 C.ar      1 RES1    0.0000
     23 C10        0.5380    9.2285   -0.1673 C.ar      1 RES1    0.0000
     24 H6         0.9992    9.4571    0.6066 H         1 RES1    0.0000
     25 C11       -0.8498    8.5346   -2.4386 C.ar      1 RES1    0.0000
     26 H7        -1.3319    8.3068   -3.2005 H         1 RES1    0.0000
     27 C12        5.7689    6.3696    4.0075 C.3       1 RES1    0.0000
     28 H8         6.6833    6.0672    4.1231 H         1 RES1    0.0000
     29 H9         5.7715    7.3271    3.8534 H         1 RES1    0.0000
     30 C13        0.1145    7.6946   -1.9432 C.ar      1 RES1    0.0000
     31 H10        0.2966    6.8954   -2.3836 H         1 RES1    0.0000
     32 C14        4.9308    6.0210    5.2142 C.3       1 RES1    0.0000
     33 C15        6.1350    2.7995    2.5146 C.ar      1 RES1    0.0000
     34 H11        5.9955    3.2017    1.6878 H         1 RES1    0.0000
     35 C16        5.2082    6.6212    7.4172 C.2       1 RES1    0.0000
     36 H12        5.5153    6.6675    8.2936 H         1 RES1    0.0000
     37 C17        7.0154    1.7345    2.6324 C.ar      1 RES1    0.0000
     38 H13        7.4909    1.4461    1.8871 H         1 RES1    0.0000
     39 C18        4.1563    7.4429    6.8480 C.2       1 RES1    0.0000
     40 C19        2.5084    7.1922    0.7806 C.2       1 RES1    0.0000
     41 H14        2.3451    7.9177    1.3399 H         1 RES1    0.0000
     42 C20        7.1943    1.0969    3.8490 C.ar      1 RES1    0.0000
     43 H15        7.7762    0.3750    3.9217 H         1 RES1    0.0000
     44 C21        5.6517    5.8094    6.5045 C.2       1 RES1    0.0000
     45 H16        6.3260    5.1828    6.6366 H         1 RES1    0.0000
     46 C22        6.5190    1.5345    4.9169 C.ar      1 RES1    0.0000
     47 H17        6.6343    1.1085    5.7361 H         1 RES1    0.0000
@<TRIPOS>BOND
     1    1   32 1
     2    2   11 1
     3    3    9 1
     4    4   11 2
     5    5   39 2
     6    6    8 2
     7    7    8 2
     8    8   22 1
     9    9   10 1
    10   11   40 1
    11   12    2 1
    12   13   12 1
    13   14    9 1
    14   15   16 1
    15   17   14 ar
    16   18   17 1
    17   19   20 1
    18   21   15 1
    19   22   19 ar
    20   23   19 ar
    21   24   23 1
    22   25   22 ar
    23   26   25 1
    24   27   12 1
    25   28   27 1
    26   29   27 1
    27   30   21 ar
    28   31   30 1
    29   32    3 1
    30   33   14 ar
    31   34   33 1
    32   35   36 1
    33   37   33 ar
    34   38   37 1
    35   39    1 1
    36   40   15 2
    37   41   40 1
    38   42   37 ar
    39   43   42 1
    40   44   32 1
    41   45   44 1
    42   46   17 ar
    43   47   46 1
    44    9   12 1
    45   21   23 ar
    46   25   30 ar
    47   27   32 1
    48   35   39 1
    49   35   44 2
    50   42   46 ar
@<TRIPOS>SUBSTRUCTURE
     1 RES1 1

@<TRIPOS>CRYSIN
   4.9090    8.9200   11.3160  77.7840  83.9530  86.5830   1 1

