# MOL2 file generated by ConQuest
# Please check atom types

@<TRIPOS>MOLECULE
MATBIV
    46    40     3
SMALL
NO_CHARGES
****
Generated from CSD

@<TRIPOS>ATOM
      1 C1         5.7676    9.8100    8.0586 C.ar      1 RES1    0.0000
      2 C2         5.4569    9.1875    9.2602 C.ar      1 RES1    0.0000
      3 H1         4.5797    9.2443    9.6203 H         1 RES1    0.0000
      4 C3         6.4450    8.4807    9.9255 C.ar      1 RES1    0.0000
      5 N1         6.0105    7.7787   11.1428 N.pl3     1 RES1    0.0000
      6 O1         6.5550    6.7037   11.4085 O.2       1 RES1    0.0000
      7 O2         5.0889    8.2474   11.7778 O.2       1 RES1    0.0000
      8 C4         7.7698    8.4155    9.4863 C.ar      1 RES1    0.0000
      9 C5         8.0392    9.0648    8.2774 C.ar      1 RES1    0.0000
     10 H2         8.9256    9.0479    7.9375 H         1 RES1    0.0000
     11 C6         7.0622    9.7316    7.5578 C.ar      1 RES1    0.0000
     12 H3         7.2755   10.1353    6.7242 H         1 RES1    0.0000
     13 C7         4.7160   10.5718    7.3405 C.2       1 RES1    0.0000
     14 O3         3.6133   10.7582    7.9350 O.2       1 RES1    0.0000
     15 O4         4.9705   11.0019    6.1733 O.3       1 RES1    0.0000
     16 H4         4.3417   11.4297    5.8106 H         1 RES1    0.0000
     17 C8         8.8950    7.7491   10.2327 C.3       1 RES1    0.0000
     18 H5         8.8576    8.0069   11.1773 H         1 RES1    0.0000
     19 H6         9.7523    8.0323    9.8515 H         1 RES1    0.0000
     20 H7         8.8074    6.7759   10.1553 H         1 RES1    0.0000
     21 O5         6.8917    7.2383   11.8330 Du        3 SUP3    0.0000
     22 O6         4.9055    8.0386   11.5988 Du        3 SUP3    0.0000
     23 H8         3.0265   11.1594    7.5088 Du        3 SUP3    0.0000
     24 C9         0.9632   13.4112    4.9019 C.ar      2 RES2    0.0000
     25 C10        1.2259   14.0415    3.6969 C.ar      2 RES2    0.0000
     26 H9         2.0771   13.9572    3.2838 H         2 RES2    0.0000
     27 C11        0.2226   14.7991    3.1014 C.ar      2 RES2    0.0000
     28 N2         0.5968   15.4604    1.8428 N.pl3     2 RES2    0.0000
     29 O7         0.0430   16.5187    1.5557 O.2       2 RES2    0.0000
     30 O8         1.4583   14.9416    1.1496 O.2       2 RES2    0.0000
     31 C12       -1.0591   14.9336    3.6422 C.ar      2 RES2    0.0000
     32 C13       -1.2811   14.2699    4.8537 C.ar      2 RES2    0.0000
     33 H10       -2.1390   14.3267    5.2572 H         2 RES2    0.0000
     34 C14       -0.2951   13.5330    5.4844 C.ar      2 RES2    0.0000
     35 H11       -0.4766   13.1105    6.3150 H         2 RES2    0.0000
     36 C15        2.0190   12.5991    5.5585 C.2       2 RES2    0.0000
     37 O9         3.1046   12.3976    4.9355 O.2       2 RES2    0.0000
     38 O10        1.7707   12.1373    6.7123 O.3       2 RES2    0.0000
     39 H12        2.4106   11.7295    7.0792 H         2 RES2    0.0000
     40 C16       -2.1926   15.6994    3.0124 C.3       2 RES2    0.0000
     41 H13       -2.0331   16.6621    3.1140 H         2 RES2    0.0000
     42 H14       -3.0341   15.4585    3.4536 H         2 RES2    0.0000
     43 H15       -2.2477   15.4754    2.0593 H         2 RES2    0.0000
     44 O11       -0.2741   16.0012    1.1805 Du        3 SUP3    0.0000
     45 O12        1.7394   15.2558    1.4547 Du        3 SUP3    0.0000
     46 H16        3.6770   11.9449    5.3196 Du        3 SUP3    0.0000
@<TRIPOS>BOND
     1    1    2 ar
     2    2    3 1
     3    4    2 ar
     4    5    4 1
     5    6    5 2
     6    7    5 2
     7    8    4 ar
     8    9    8 ar
     9   10    9 1
    10   11    1 ar
    11   12   11 1
    12   13    1 1
    13   14   13 2
    14   15   13 1
    15   16   15 1
    16   17    8 1
    17   18   17 1
    18   19   17 1
    19   20   17 1
    20   24   25 ar
    21   25   26 1
    22   27   25 ar
    23   28   27 1
    24   29   28 2
    25   30   28 2
    26   31   27 ar
    27   32   31 ar
    28   33   32 1
    29   34   24 ar
    30   35   34 1
    31   36   24 1
    32   37   36 2
    33   38   36 1
    34   39   38 1
    35   40   31 1
    36   41   40 1
    37   42   40 1
    38   43   40 1
    39    9   11 ar
    40   32   34 ar
@<TRIPOS>SUBSTRUCTURE
     1 RES1 1
     2 RES2 24
     3 SUP3 21

@<TRIPOS>CRYSIN
   7.4313   21.1153   10.3853  90.0000  99.9210  90.0000 231 1

