# MOL2 file generated by ConQuest
# Please check atom types

@<TRIPOS>MOLECULE
MATBIV01
    40    40     2
SMALL
NO_CHARGES
****
Generated from CSD

@<TRIPOS>ATOM
      1 C1         2.7207    4.3809    3.6780 C.ar      1 RES1    0.0000
      2 C2         2.4996    3.7245    4.8808 C.ar      1 RES1    0.0000
      3 H1         1.6605    3.7841    5.2774 H         1 RES1    0.0000
      4 C3         3.4806    2.9901    5.5042 C.ar      1 RES1    0.0000
      5 H2         3.3012    2.5708    6.3146 H         1 RES1    0.0000
      6 C4         4.7291    2.8720    4.9319 C.ar      1 RES1    0.0000
      7 C5         4.9894    3.5034    3.7393 C.ar      1 RES1    0.0000
      8 H3         5.8248    3.4277    3.3387 H         1 RES1    0.0000
      9 C6         3.9952    4.2516    3.1445 C.ar      1 RES1    0.0000
     10 C7         1.5830    5.1431    3.0597 C.3       1 RES1    0.0000
     11 H4         0.7630    4.9019    3.4961 H         1 RES1    0.0000
     12 H5         1.5237    4.9273    2.1267 H         1 RES1    0.0000
     13 H6         1.7357    6.0855    3.1629 H         1 RES1    0.0000
     14 C8         5.7787    2.0628    5.5809 C.2       1 RES1    0.0000
     15 N1         4.3673    4.9025    1.8875 N.pl3     1 RES1    0.0000
     16 O1         3.7920    5.9168    1.5667 O.2       1 RES1    0.0000
     17 O2         5.2591    4.4420    1.2406 O.2       1 RES1    0.0000
     18 O3         5.5233    1.5804    6.7159 O.3       1 RES1    0.0000
     19 H7         6.1691    1.1518    6.9830 H         1 RES1    0.0000
     20 O4         6.8683    1.8772    4.9751 O.2       1 RES1    0.0000
     21 C9         1.6194    2.1366    0.7624 C.ar      2 RES2    0.0000
     22 C10        1.3653    1.4890    1.9581 C.ar      2 RES2    0.0000
     23 H8         0.5002    1.5060    2.2984 H         2 RES2    0.0000
     24 C11        2.3371    0.8200    2.6683 C.ar      2 RES2    0.0000
     25 H9         2.1271    0.4157    3.4787 H         2 RES2    0.0000
     26 C12        3.6173    0.7521    2.1747 C.ar      2 RES2    0.0000
     27 C13        3.9171    1.3802    0.9903 C.ar      2 RES2    0.0000
     28 H10        4.7779    1.3342    0.6408 H         2 RES2    0.0000
     29 C14        2.9341    2.0768    0.3229 C.ar      2 RES2    0.0000
     30 C15        0.4987    2.8037    0.0296 C.3       2 RES2    0.0000
     31 H11       -0.3360    2.5793    0.4476 H         2 RES2    0.0000
     32 H12        0.4902    2.5050   -0.8830 H         2 RES2    0.0000
     33 H13        0.6226    3.7544    0.0542 H         2 RES2    0.0000
     34 C16        4.6683   -0.0059    2.8839 C.2       2 RES2    0.0000
     35 N2         3.3599    2.7710   -0.8911 N.pl3     2 RES2    0.0000
     36 O5         2.7963    3.7785   -1.2028 O.2       2 RES2    0.0000
     37 O6         4.3095    2.3697   -1.4767 O.2       2 RES2    0.0000
     38 O7         4.4003   -0.4579    4.0313 O.3       2 RES2    0.0000
     39 H14        5.0523   -0.8569    4.3269 H         2 RES2    0.0000
     40 O8         5.7738   -0.1654    2.3106 O.2       2 RES2    0.0000
@<TRIPOS>BOND
     1    1    2 ar
     2    2    3 1
     3    4    2 ar
     4    5    4 1
     5    6    4 ar
     6    7    6 ar
     7    8    7 1
     8    9    1 ar
     9   10    1 1
    10   11   10 1
    11   12   10 1
    12   13   10 1
    13   14    6 1
    14   15    9 1
    15   16   15 2
    16   17   15 2
    17   18   14 1
    18   19   18 1
    19   20   14 2
    20   21   22 ar
    21   22   23 1
    22   24   22 ar
    23   25   24 1
    24   26   24 ar
    25   27   26 ar
    26   28   27 1
    27   29   21 ar
    28   30   21 1
    29   31   30 1
    30   32   30 1
    31   33   30 1
    32   34   26 1
    33   35   29 1
    34   36   35 2
    35   37   35 2
    36   38   34 1
    37   39   38 1
    38   40   34 2
    39    7    9 ar
    40   27   29 ar
@<TRIPOS>SUBSTRUCTURE
     1 RES1 1
     2 RES2 21

@<TRIPOS>CRYSIN
   7.4538   21.2111   10.3739  90.0000  99.8970  90.0000 231 1

