# MOL2 file generated by ConQuest
# Please check atom types

@<TRIPOS>MOLECULE
MATCUF
    34    35     1
SMALL
NO_CHARGES
****
Generated from CSD

@<TRIPOS>ATOM
      1 O1         0.4384    5.9946    5.1122 O.2       1 RES1    0.0000
      2 O2        -1.7384    2.1687    4.1043 O.2       1 RES1    0.0000
      3 O3         4.0032   -2.0291    1.3593 O.2       1 RES1    0.0000
      4 O4         4.5238   -3.2193    3.0622 O.2       1 RES1    0.0000
      5 N1        -0.6813    4.1091    4.5904 N.am      1 RES1    0.0000
      6 N2         1.4737    4.0433    5.5798 N.2       1 RES1    0.0000
      7 N3         0.3109    2.0542    5.0801 N.am      1 RES1    0.0000
      8 N4         2.4858    2.0023    5.9383 N.3       1 RES1    0.0000
      9 N5         4.1349   -2.1824    2.5639 N.pl3     1 RES1    0.0000
     10 C1         0.4279    4.7819    5.1143 C.2       1 RES1    0.0000
     11 C2         1.4184    2.7414    5.5192 C.2       1 RES1    0.0000
     12 C3        -0.7773    2.7489    4.5512 C.2       1 RES1    0.0000
     13 C4         2.9792    0.9572    5.0887 C.ar      1 RES1    0.0000
     14 C5         2.9651    1.1376    3.7265 C.ar      1 RES1    0.0000
     15 C6         3.3643    0.1032    2.8897 C.ar      1 RES1    0.0000
     16 C7         3.7906   -1.0762    3.4556 C.ar      1 RES1    0.0000
     17 C8         3.8529   -1.2589    4.8114 C.ar      1 RES1    0.0000
     18 C9         3.4408   -0.2227    5.6411 C.ar      1 RES1    0.0000
     19 C10       -1.8433    4.8828    4.1421 C.3       1 RES1    0.0000
     20 C11        0.1177    0.6093    5.3310 C.3       1 RES1    0.0000
     21 C12        3.4796    2.6858    6.7737 C.3       1 RES1    0.0000
     22 H1         2.6862    2.0336    3.3573 H         1 RES1    0.0000
     23 H2         3.3159    0.2308    2.0172 H         1 RES1    0.0000
     24 H3         4.1509   -2.1265    5.1820 H         1 RES1    0.0000
     25 H4         3.4081   -0.4343    6.6361 H         1 RES1    0.0000
     26 H5        -1.4889    5.7049    3.6353 H         1 RES1    0.0000
     27 H6        -2.4773    4.3748    3.8919 H         1 RES1    0.0000
     28 H7        -2.1657    5.4645    4.7615 H         1 RES1    0.0000
     29 H8        -0.8323    0.4824    5.4957 H         1 RES1    0.0000
     30 H9         0.5153    0.4167    6.2013 H         1 RES1    0.0000
     31 H10        0.5157    0.1026    4.5762 H         1 RES1    0.0000
     32 H11        3.8962    3.2899    6.2797 H         1 RES1    0.0000
     33 H12        4.1213    2.0192    7.1066 H         1 RES1    0.0000
     34 H13        3.1227    3.1089    7.5842 H         1 RES1    0.0000
@<TRIPOS>BOND
     1    1   10 2
     2    2   12 2
     3    3    9 2
     4    4    9 2
     5    5   10 1
     6    6   10 1
     7    7   11 1
     8    8   11 1
     9    9   16 1
    10   11    6 2
    11   12    5 1
    12   13    8 1
    13   14   13 ar
    14   15   14 ar
    15   16   15 ar
    16   17   16 ar
    17   18   13 ar
    18   19    5 1
    19   20    7 1
    20   21    8 1
    21   22   14 1
    22   23   15 1
    23   24   17 1
    24   25   18 1
    25   26   19 1
    26   27   19 1
    27   28   19 1
    28   29   20 1
    29   30   20 1
    30   31   20 1
    31   32   21 1
    32   33   21 1
    33   34   21 1
    34    7   12 1
    35   17   18 ar
@<TRIPOS>SUBSTRUCTURE
     1 RES1 1

@<TRIPOS>CRYSIN
  11.3330   16.0250    7.1620  90.0000  95.5870  90.0000  14 1

