# MOL2 file generated by ConQuest
# Please check atom types

@<TRIPOS>MOLECULE
MATDEQ01
    34    35     1
SMALL
NO_CHARGES
****
Generated from CSD

@<TRIPOS>ATOM
      1 O1         1.7787    0.4504    0.9957 O.2       1 RES1    0.0000
      2 O2         3.6037    4.6015    0.4880 O.2       1 RES1    0.0000
      3 O3        -4.6369    1.9966    6.9158 O.2       1 RES1    0.0000
      4 O4        -5.8973    2.6729    5.3130 O.2       1 RES1    0.0000
      5 N1         2.7724    2.5014    0.8189 N.am      1 RES1    0.0000
      6 N2         0.6301    2.2539    1.8030 N.am      1 RES1    0.0000
      7 N3         1.6619    4.3812    1.6741 N.am      1 RES1    0.0000
      8 N4        -0.2742    4.2158    2.8724 N.2       1 RES1    0.0000
      9 N5        -4.7898    2.5092    5.8232 N.pl3     1 RES1    0.0000
     10 C1         1.7358    1.6529    1.2014 C.2       1 RES1    0.0000
     11 C2         0.6007    3.6034    2.1787 C.2       1 RES1    0.0000
     12 C3         2.7349    3.8790    0.9499 C.2       1 RES1    0.0000
     13 C4        -1.3702    3.7114    3.5964 C.ar      1 RES1    0.0000
     14 C5        -1.2145    2.9976    4.7830 C.ar      1 RES1    0.0000
     15 C6        -2.3259    2.6099    5.5285 C.ar      1 RES1    0.0000
     16 C7        -3.5918    2.9360    5.0717 C.ar      1 RES1    0.0000
     17 C8        -3.7695    3.6666    3.9207 C.ar      1 RES1    0.0000
     18 C9        -2.6660    4.0721    3.1860 C.ar      1 RES1    0.0000
     19 C10       -0.5742    1.3933    1.9480 C.3       1 RES1    0.0000
     20 C11        1.6867    5.8266    2.0073 C.3       1 RES1    0.0000
     21 C12        3.9587    1.8912    0.1691 C.3       1 RES1    0.0000
     22 H1        -0.3477    2.7751    5.0628 H         1 RES1    0.0000
     23 H2        -2.2517    2.1386    6.2790 H         1 RES1    0.0000
     24 H3        -4.6506    3.8789    3.6389 H         1 RES1    0.0000
     25 H4        -2.7682    4.6162    2.3930 H         1 RES1    0.0000
     26 H5        -0.5553    0.7578    1.2163 H         1 RES1    0.0000
     27 H6        -1.3647    1.9518    1.8194 H         1 RES1    0.0000
     28 H7        -0.5772    0.9874    2.7885 H         1 RES1    0.0000
     29 H8         0.8552    6.2669    1.7008 H         1 RES1    0.0000
     30 H9         2.4083    6.2329    1.6118 H         1 RES1    0.0000
     31 H10        1.7071    5.8512    2.9961 H         1 RES1    0.0000
     32 H11        4.3068    1.1398    0.7021 H         1 RES1    0.0000
     33 H12        4.6497    2.5320    0.0297 H         1 RES1    0.0000
     34 H13        3.7524    1.5789   -0.6823 H         1 RES1    0.0000
@<TRIPOS>BOND
     1    1   10 2
     2    2   12 2
     3    3    9 2
     4    4    9 2
     5    5   10 1
     6    6   10 1
     7    7   11 1
     8    8   11 2
     9    9   16 1
    10   11    6 1
    11   12    5 1
    12   13    8 1
    13   14   13 ar
    14   15   14 ar
    15   16   15 ar
    16   17   16 ar
    17   18   13 ar
    18   19    6 1
    19   20    7 1
    20   21    5 1
    21   22   14 1
    22   23   15 1
    23   24   17 1
    24   25   18 1
    25   26   19 1
    26   27   19 1
    27   28   19 1
    28   29   20 1
    29   30   20 1
    30   31   20 1
    31   32   21 1
    32   33   21 1
    33   34   21 1
    34    7   12 1
    35   17   18 ar
@<TRIPOS>SUBSTRUCTURE
     1 RES1 1

@<TRIPOS>CRYSIN
   8.2530    8.4930   10.0840  78.7900  88.5200  74.9500   2 1

