# MOL2 file generated by ConQuest
# Please check atom types

@<TRIPOS>MOLECULE
MATDET
    98   106     2
SMALL
NO_CHARGES
****
Generated from CSD

@<TRIPOS>ATOM
      1 O1         2.6752   14.2467   12.5419 O.3       1 RES1    0.0000
      2 O2         3.6378   12.4519   13.3517 O.2       1 RES1    0.0000
      3 O3         4.5948   13.8731    8.9637 O.3       1 RES1    0.0000
      4 H1         4.7704   13.0900    8.7972 H         1 RES1    0.0000
      5 O4         4.9587    9.4854    8.4688 O.3       1 RES1    0.0000
      6 O5         5.6853   11.5381    8.3643 O.2       1 RES1    0.0000
      7 O6         3.6671    9.9532   12.3240 O.3       1 RES1    0.0000
      8 H2         3.7341   10.7261   12.5904 H         1 RES1    0.0000
      9 O7        11.2895   11.4062    9.9642 O.2       1 RES1    0.0000
     10 O8         9.8218    9.8734    9.9521 O.2       1 RES1    0.0000
     11 N1        10.1385   11.0340   10.0656 N.pl3     1 RES1    0.0000
     12 C1         5.4007   12.0499   11.1993 C.3       1 RES1    0.0000
     13 H3         5.4808   11.7830   12.1378 H         1 RES1    0.0000
     14 C2         4.3360   13.1317   11.1993 C.2       1 RES1    0.0000
     15 C3         4.0375   13.9571   10.1640 C.2       1 RES1    0.0000
     16 C4         3.0564   15.0272   10.3048 C.ar      1 RES1    0.0000
     17 C5         2.7367   15.9405    9.3209 C.ar      1 RES1    0.0000
     18 H4         3.1537   15.8902    8.4915 H         1 RES1    0.0000
     19 C6         1.8090   16.9192    9.5571 C.ar      1 RES1    0.0000
     20 H5         1.5945   17.5261    8.8865 H         1 RES1    0.0000
     21 C7         1.2009   17.0039   10.7725 C.ar      1 RES1    0.0000
     22 H6         0.5792   17.6769   10.9284 H         1 RES1    0.0000
     23 C8         1.4922   16.1172   11.7594 C.ar      1 RES1    0.0000
     24 H7         1.0702   16.1751   12.5858 H         1 RES1    0.0000
     25 C9         2.4144   15.1419   11.5202 C.ar      1 RES1    0.0000
     26 C10        3.5665   13.2417   12.4057 C.2       1 RES1    0.0000
     27 C11        4.9368   10.7949   10.4834 C.2       1 RES1    0.0000
     28 C12        4.1336    9.8708   11.0767 C.2       1 RES1    0.0000
     29 C13        3.7277    8.6767   10.3714 C.ar      1 RES1    0.0000
     30 C14        2.8835    7.7188   10.9057 C.ar      1 RES1    0.0000
     31 H8         2.5349    7.8349   11.7609 H         1 RES1    0.0000
     32 C15        2.5601    6.6055   10.1897 C.ar      1 RES1    0.0000
     33 H9         1.9962    5.9626   10.5576 H         1 RES1    0.0000
     34 C16        3.0731    6.4304    8.9062 C.ar      1 RES1    0.0000
     35 H10        2.8599    5.6652    8.4218 H         1 RES1    0.0000
     36 C17        3.8960    7.3866    8.3522 C.ar      1 RES1    0.0000
     37 H11        4.2358    7.2807    7.4940 H         1 RES1    0.0000
     38 C18        4.2016    8.4993    9.0954 C.ar      1 RES1    0.0000
     39 C19        5.2087   10.6591    9.0787 C.2       1 RES1    0.0000
     40 C20        6.8006   12.5224   10.8134 C.ar      1 RES1    0.0000
     41 C21        7.1497   13.8529   10.8346 C.ar      1 RES1    0.0000
     42 H12        6.5018   14.4878   11.0389 H         1 RES1    0.0000
     43 C22        8.4267   14.2687   10.5651 C.ar      1 RES1    0.0000
     44 H13        8.6179   15.1785   10.5515 H         1 RES1    0.0000
     45 C23        9.4290   13.3664   10.3169 C.ar      1 RES1    0.0000
     46 H14       10.3032   13.6441   10.1595 H         1 RES1    0.0000
     47 C24        9.0901   12.0437   10.3124 C.ar      1 RES1    0.0000
     48 C25        7.8131   11.5969   10.5712 C.ar      1 RES1    0.0000
     49 H15        7.6287   10.6857   10.5848 H         1 RES1    0.0000
     50 O9         4.7995    5.7377   15.5768 O.3       2 RES2    0.0000
     51 O10        4.5538    7.5797   14.4219 O.2       2 RES2    0.0000
     52 O11        8.1795    4.6992   13.4713 O.3       2 RES2    0.0000
     53 H16        8.5704    5.3606   13.1852 H         2 RES2    0.0000
     54 O12        9.9862    8.8872   13.0914 O.3       2 RES2    0.0000
     55 O13        9.5319    6.7850   12.7069 O.2       2 RES2    0.0000
     56 O14        6.0667    9.7636   13.8800 O.3       2 RES2    0.0000
     57 H17        5.5668    9.1230   13.7770 H         2 RES2    0.0000
     58 O15        5.4442    3.3887    8.1221 O.2       2 RES2    0.0000
     59 O16        4.7283    3.2740   10.1110 O.2       2 RES2    0.0000
     60 N2         5.4284    3.7799    9.2649 N.pl3     2 RES2    0.0000
     61 C26        6.6677    7.1704   12.6403 C.3       2 RES2    0.0000
     62 H18        5.8401    7.6812   12.5253 H         2 RES2    0.0000
     63 C27        6.3381    6.1834   13.7559 C.2       2 RES2    0.0000
     64 C28        7.0513    5.0762   14.0828 C.2       2 RES2    0.0000
     65 C29        6.5841    4.1821   15.1272 C.ar      2 RES2    0.0000
     66 C30        7.2109    2.9792   15.4708 C.ar      2 RES2    0.0000
     67 H19        7.9604    2.7012   14.9955 H         2 RES2    0.0000
     68 C31        6.7411    2.2097   16.4940 C.ar      2 RES2    0.0000
     69 H20        7.1621    1.4085   16.7105 H         2 RES2    0.0000
     70 C32        5.6260    2.6308   17.2100 C.ar      2 RES2    0.0000
     71 H21        5.3171    2.1115   17.9183 H         2 RES2    0.0000
     72 C33        4.9733    3.7956   16.8966 C.ar      2 RES2    0.0000
     73 H22        4.2196    4.0627   17.3719 H         2 RES2    0.0000
     74 C34        5.4614    4.5583   15.8553 C.ar      2 RES2    0.0000
     75 C35        5.1916    6.5529   14.5626 C.2       2 RES2    0.0000
     76 C36        7.6766    8.2056   13.0475 C.2       2 RES2    0.0000
     77 C37        7.3189    9.4125   13.5515 C.2       2 RES2    0.0000
     78 C38        8.2805   10.4531   13.7422 C.ar      2 RES2    0.0000
     79 C39        7.9680   11.7546   14.1343 C.ar      2 RES2    0.0000
     80 H23        7.0900   11.9807   14.3386 H         2 RES2    0.0000
     81 C40        8.9653   12.7057   14.2190 C.ar      2 RES2    0.0000
     82 H24        8.7618   13.5744   14.4809 H         2 RES2    0.0000
     83 C41       10.2663   12.3581   13.9118 C.ar      2 RES2    0.0000
     84 H25       10.9304   13.0085   13.9678 H         2 RES2    0.0000
     85 C42       10.6087   11.1088   13.5334 C.ar      2 RES2    0.0000
     86 H26       11.4906   10.8946   13.3275 H         2 RES2    0.0000
     87 C43        9.6204   10.1682   13.4592 C.ar      2 RES2    0.0000
     88 C44        9.0790    7.9002   12.9385 C.2       2 RES2    0.0000
     89 C45        6.9015    6.5299   11.2690 C.ar      2 RES2    0.0000
     90 C46        7.6978    7.1261   10.3048 C.ar      2 RES2    0.0000
     91 H27        8.1603    7.9065   10.5137 H         2 RES2    0.0000
     92 C47        7.8187    6.5869    9.0439 C.ar      2 RES2    0.0000
     93 H28        8.3937    6.9831    8.4294 H         2 RES2    0.0000
     94 C48        7.1076    5.4752    8.6776 C.ar      2 RES2    0.0000
     95 H29        7.1765    5.1090    7.8255 H         2 RES2    0.0000
     96 C49        6.2906    4.9352    9.6312 C.ar      2 RES2    0.0000
     97 C50        6.1801    5.4124   10.9072 C.ar      2 RES2    0.0000
     98 H30        5.6244    4.9903   11.5217 H         2 RES2    0.0000
@<TRIPOS>BOND
     1    1   25 1
     2    2   26 2
     3    3    4 1
     4    5   38 1
     5    6   39 2
     6    7    8 1
     7    9   11 2
     8   10   11 2
     9   11   47 1
    10   12   13 1
    11   14   12 1
    12   15    3 1
    13   16   15 1
    14   17   16 ar
    15   18   17 1
    16   19   17 ar
    17   20   19 1
    18   21   19 ar
    19   22   21 1
    20   23   21 ar
    21   24   23 1
    22   25   16 ar
    23   26    1 1
    24   27   12 1
    25   28    7 1
    26   29   28 1
    27   30   29 ar
    28   31   30 1
    29   32   30 ar
    30   33   32 1
    31   34   32 ar
    32   35   34 1
    33   36   34 ar
    34   37   36 1
    35   38   29 ar
    36   39    5 1
    37   40   12 1
    38   41   40 ar
    39   42   41 1
    40   43   41 ar
    41   44   43 1
    42   45   43 ar
    43   46   45 1
    44   47   45 ar
    45   48   40 ar
    46   49   48 1
    47   50   74 1
    48   51   75 2
    49   52   53 1
    50   54   87 1
    51   55   88 2
    52   56   57 1
    53   58   60 2
    54   59   60 2
    55   60   96 1
    56   61   62 1
    57   63   61 1
    58   64   52 1
    59   65   64 1
    60   66   65 ar
    61   67   66 1
    62   68   66 ar
    63   69   68 1
    64   70   68 ar
    65   71   70 1
    66   72   70 ar
    67   73   72 1
    68   74   65 ar
    69   75   50 1
    70   76   61 1
    71   77   56 1
    72   78   77 1
    73   79   78 ar
    74   80   79 1
    75   81   79 ar
    76   82   81 1
    77   83   81 ar
    78   84   83 1
    79   85   83 ar
    80   86   85 1
    81   87   78 ar
    82   88   54 1
    83   89   61 1
    84   90   89 ar
    85   91   90 1
    86   92   90 ar
    87   93   92 1
    88   94   92 ar
    89   95   94 1
    90   96   94 ar
    91   97   89 ar
    92   98   97 1
    93   14   15 2
    94   14   26 1
    95   23   25 ar
    96   27   28 2
    97   27   39 1
    98   36   38 ar
    99   47   48 ar
   100   63   64 2
   101   63   75 1
   102   72   74 ar
   103   76   77 2
   104   76   88 1
   105   85   87 ar
   106   96   97 ar
@<TRIPOS>SUBSTRUCTURE
     1 RES1 1
     2 RES2 50

@<TRIPOS>CRYSIN
   9.9725   13.6991   16.1145  76.1310  74.3910  84.0350   2 1

