# MOL2 file generated by ConQuest
# Please check atom types

@<TRIPOS>MOLECULE
MATGOD
    92    96     2
SMALL
NO_CHARGES
****
Generated from CSD

@<TRIPOS>ATOM
      1 O1        -1.6098    1.1873    3.7805 O.2       1 RES1    0.0000
      2 O2        -1.5149    0.9966    1.6124 O.2       1 RES1    0.0000
      3 O3         4.5872    3.2645    3.7313 O.2       1 RES1    0.0000
      4 O4         4.5626    3.7348    1.6110 O.2       1 RES1    0.0000
      5 N1         0.5805    1.0093    5.2407 N.3       1 RES1    0.0000
      6 N2         2.3718    3.2962    5.1236 N.3       1 RES1    0.0000
      7 N3        -0.9633    1.0004    2.7233 N.pl3     1 RES1    0.0000
      8 N4         3.9754    3.5874    2.6950 N.pl3     1 RES1    0.0000
      9 C1         1.3220    1.4403    6.4277 C.3       1 RES1    0.0000
     10 C2         1.6667    2.9492    6.3530 C.3       1 RES1    0.0000
     11 C3         2.4900    3.3306    7.5663 C.3       1 RES1    0.0000
     12 C4         1.7394    3.0445    8.8603 C.3       1 RES1    0.0000
     13 C5         1.3231    1.5776    8.9188 C.3       1 RES1    0.0000
     14 C6         0.5337    1.1632    7.6874 C.3       1 RES1    0.0000
     15 C7         1.1535    0.7043    4.0476 C.ar      1 RES1    0.0000
     16 C8         0.4509    0.7220    2.8061 C.ar      1 RES1    0.0000
     17 C9         1.1067    0.5047    1.5888 C.ar      1 RES1    0.0000
     18 C10        2.4407    0.1869    1.5686 C.ar      1 RES1    0.0000
     19 C11        3.1273    0.0839    2.7596 C.ar      1 RES1    0.0000
     20 C12        2.5238    0.3343    3.9588 C.ar      1 RES1    0.0000
     21 C13        1.8123    3.6814    3.9568 C.ar      1 RES1    0.0000
     22 C14        2.5608    3.8174    2.7596 C.ar      1 RES1    0.0000
     23 C15        1.9439    4.1645    1.5443 C.ar      1 RES1    0.0000
     24 C16        0.6026    4.4213    1.4919 C.ar      1 RES1    0.0000
     25 C17       -0.1341    4.3310    2.6607 C.ar      1 RES1    0.0000
     26 C18        0.4382    3.9751    3.8477 C.ar      1 RES1    0.0000
     27 O5         4.9526    1.0805    6.1951 O.2       2 RES2    0.0000
     28 O6         5.1050    1.0780    8.3556 O.2       2 RES2    0.0000
     29 O7        11.1209    3.2365    5.9620 O.2       2 RES2    0.0000
     30 O8        11.2021    3.8098    8.0344 O.2       2 RES2    0.0000
     31 N5         7.1178    0.8937    4.7097 N.3       2 RES2    0.0000
     32 N6         8.8525    3.2454    4.6734 N.3       2 RES2    0.0000
     33 N7         5.6308    0.9674    7.2514 N.pl3     2 RES2    0.0000
     34 N8        10.5534    3.5823    7.0131 N.pl3     2 RES2    0.0000
     35 C19        7.8186    1.3106    3.5005 C.3       2 RES2    0.0000
     36 C20        8.0914    2.8323    3.5005 C.3       2 RES2    0.0000
     37 C21        8.8484    3.2111    2.2307 C.3       2 RES2    0.0000
     38 C22        8.0386    2.8526    0.9973 C.3       2 RES2    0.0000
     39 C23        7.7043    1.3615    1.0013 C.3       2 RES2    0.0000
     40 C24        6.9835    0.9585    2.2731 C.3       2 RES2    0.0000
     41 C25        7.7171    0.6496    5.9271 C.ar      2 RES2    0.0000
     42 C26        7.0437    0.7119    7.1605 C.ar      2 RES2    0.0000
     43 C27        7.7128    0.5504    8.3718 C.ar      2 RES2    0.0000
     44 C28        9.0427    0.2911    8.3899 C.ar      2 RES2    0.0000
     45 C29        9.7255    0.1754    7.1888 C.ar      2 RES2    0.0000
     46 C30        9.0916    0.3432    6.0017 C.ar      2 RES2    0.0000
     47 C31        8.3472    3.6077    5.8544 C.ar      2 RES2    0.0000
     48 C32        9.1178    3.7501    7.0353 C.ar      2 RES2    0.0000
     49 C33        8.5454    4.0107    8.2829 C.ar      2 RES2    0.0000
     50 C34        7.2056    4.2331    8.4081 C.ar      2 RES2    0.0000
     51 C35        6.4214    4.1963    7.2332 C.ar      2 RES2    0.0000
     52 C36        6.9631    3.9064    6.0300 C.ar      2 RES2    0.0000
     53 H1        -0.2946    0.9432    5.3033 H         1 RES1    0.0000
     54 H2         3.2508    3.2479    5.1458 H         1 RES1    0.0000
     55 H3         2.1770    0.9242    6.4701 H         1 RES1    0.0000
     56 H4         0.8122    3.4679    6.3793 H         1 RES1    0.0000
     57 H5         2.7122    4.2941    7.5219 H         1 RES1    0.0000
     58 H6         3.3389    2.8208    7.5602 H         1 RES1    0.0000
     59 H7         0.9353    3.6204    8.9128 H         1 RES1    0.0000
     60 H8         2.3190    3.2556    9.6355 H         1 RES1    0.0000
     61 H9         2.1329    1.0119    8.9915 H         1 RES1    0.0000
     62 H10        0.7712    1.4263    9.7263 H         1 RES1    0.0000
     63 H11        0.3223    0.1970    7.7399 H         1 RES1    0.0000
     64 H12       -0.3213    1.6627    7.6591 H         1 RES1    0.0000
     65 H13        0.6248    0.5784    0.7732 H         1 RES1    0.0000
     66 H14        2.8863    0.0407    0.7429 H         1 RES1    0.0000
     67 H15        4.0427   -0.1691    2.7455 H         1 RES1    0.0000
     68 H16        3.0356    0.2606    4.7562 H         1 RES1    0.0000
     69 H17        2.4644    4.2191    0.7510 H         1 RES1    0.0000
     70 H18        0.1848    4.6577    0.6722 H         1 RES1    0.0000
     71 H19       -1.0637    4.5217    2.6365 H         1 RES1    0.0000
     72 H20       -0.1053    3.9242    4.6250 H         1 RES1    0.0000
     73 H21        6.2460    0.7907    4.6573 H         2 RES2    0.0000
     74 H22        9.7276    3.2556    4.5967 H         2 RES2    0.0000
     75 H23        8.6909    0.8250    3.4480 H         2 RES2    0.0000
     76 H24        7.2142    3.3128    3.5046 H         2 RES2    0.0000
     77 H25        9.0321    4.1836    2.2348 H         2 RES2    0.0000
     78 H26        9.7148    2.7344    2.2085 H         2 RES2    0.0000
     79 H27        8.5573    3.0751    0.1817 H         2 RES2    0.0000
     80 H28        7.2006    3.3814    0.9831 H         2 RES2    0.0000
     81 H29        7.1342    1.1504    0.2200 H         2 RES2    0.0000
     82 H30        8.5418    0.8377    0.9185 H         2 RES2    0.0000
     83 H31        6.8099   -0.0153    2.2610 H         2 RES2    0.0000
     84 H32        6.1123    1.4263    2.3216 H         2 RES2    0.0000
     85 H33        7.2341    0.6204    9.1894 H         2 RES2    0.0000
     86 H34        9.5007    0.1894    9.2156 H         2 RES2    0.0000
     87 H35       10.6543   -0.0242    7.1968 H         2 RES2    0.0000
     88 H36        9.5886    0.2530    5.1983 H         2 RES2    0.0000
     89 H37        9.0968    4.0348    9.0561 H         2 RES2    0.0000
     90 H38        6.8135    4.4073    9.2540 H         2 RES2    0.0000
     91 H39        5.4916    4.3793    7.2897 H         2 RES2    0.0000
     92 H40        6.3977    3.9013    5.2649 H         2 RES2    0.0000
@<TRIPOS>BOND
     1    1    7 2
     2    2    7 2
     3    3    8 2
     4    4    8 2
     5    5    9 1
     6    6   10 1
     7    7   16 1
     8    8   22 1
     9    9   10 1
    10   10   11 1
    11   11   12 1
    12   12   13 1
    13   13   14 1
    14   14    9 1
    15   15    5 1
    16   16   15 ar
    17   17   16 ar
    18   18   17 ar
    19   19   18 ar
    20   20   15 ar
    21   21    6 1
    22   22   21 ar
    23   23   22 ar
    24   24   23 ar
    25   25   24 ar
    26   26   21 ar
    27   27   33 2
    28   28   33 2
    29   29   34 2
    30   30   34 2
    31   31   35 1
    32   32   36 1
    33   33   42 1
    34   34   48 1
    35   35   36 1
    36   36   37 1
    37   37   38 1
    38   38   39 1
    39   39   40 1
    40   40   35 1
    41   41   31 1
    42   42   41 ar
    43   43   42 ar
    44   44   43 ar
    45   45   44 ar
    46   46   41 ar
    47   47   32 1
    48   48   47 ar
    49   49   48 ar
    50   50   49 ar
    51   51   50 ar
    52   52   47 ar
    53   53    5 1
    54   54    6 1
    55   55    9 1
    56   56   10 1
    57   57   11 1
    58   58   11 1
    59   59   12 1
    60   60   12 1
    61   61   13 1
    62   62   13 1
    63   63   14 1
    64   64   14 1
    65   65   17 1
    66   66   18 1
    67   67   19 1
    68   68   20 1
    69   69   23 1
    70   70   24 1
    71   71   25 1
    72   72   26 1
    73   73   31 1
    74   74   32 1
    75   75   35 1
    76   76   36 1
    77   77   37 1
    78   78   37 1
    79   79   38 1
    80   80   38 1
    81   81   39 1
    82   82   39 1
    83   83   40 1
    84   84   40 1
    85   85   43 1
    86   86   44 1
    87   87   45 1
    88   88   46 1
    89   89   49 1
    90   90   50 1
    91   91   51 1
    92   92   52 1
    93   19   20 ar
    94   25   26 ar
    95   45   46 ar
    96   51   52 ar
@<TRIPOS>SUBSTRUCTURE
     1 RES1 1
     2 RES2 27

@<TRIPOS>CRYSIN
  13.1140   12.7121   20.9590  90.0000 105.5940  90.0000 231 1

