# MOL2 file generated by ConQuest
# Please check atom types

@<TRIPOS>MOLECULE
MATKEX
    61    64     1
SMALL
NO_CHARGES
****
Generated from CSD

@<TRIPOS>ATOM
      1 C1        -5.5785   -8.7939   -5.1628 C.3       1 RES1    0.0000
      2 H1        -6.1570   -8.8535   -5.9760 H         1 RES1    0.0000
      3 C2        -4.2226   -8.1593   -5.5486 C.3       1 RES1    0.0000
      4 H2        -4.1129   -8.0918   -6.5389 H         1 RES1    0.0000
      5 C3        -4.2633   -6.7779   -4.8852 C.3       1 RES1    0.0000
      6 H3        -4.0156   -6.0470   -5.5197 H         1 RES1    0.0000
      7 C4        -5.6688   -6.6150   -4.3480 C.3       1 RES1    0.0000
      8 H4        -5.6130   -6.2079   -3.4375 H         1 RES1    0.0000
      9 O1        -6.1968   -7.9557   -4.2187 O.3       1 RES1    0.0000
     10 C5        -6.5736   -5.7630   -5.1964 C.3       1 RES1    0.0000
     11 H5        -7.4731   -5.6994   -4.7873 H         1 RES1    0.0000
     12 H6        -6.2030   -4.8493   -5.2901 H         1 RES1    0.0000
     13 O2        -3.1356   -8.8306   -4.9423 O.3       1 RES1    0.0000
     14 C6        -2.3439   -7.8286   -4.2712 C.3       1 RES1    0.0000
     15 O3        -3.3310   -6.9040   -3.8228 O.3       1 RES1    0.0000
     16 C7        -1.6629   -8.4394   -3.0967 C.3       1 RES1    0.0000
     17 H7        -0.9977   -9.0889   -3.4074 H         1 RES1    0.0000
     18 H8        -2.3262   -8.8932   -2.5358 H         1 RES1    0.0000
     19 H9        -1.2180   -7.7392   -2.5767 H         1 RES1    0.0000
     20 C8        -1.3781   -7.1801   -5.2535 C.3       1 RES1    0.0000
     21 H10       -0.7164   -7.8415   -5.5442 H         1 RES1    0.0000
     22 H11       -0.9208   -6.4313   -4.8174 H         1 RES1    0.0000
     23 H12       -1.8751   -6.8504   -6.0306 H         1 RES1    0.0000
     24 O4        -6.6470   -6.4115   -6.4815 O.3       1 RES1    0.0000
     25 O5        -8.4001   -5.1045   -7.0130 O.2       1 RES1    0.0000
     26 C9        -7.6589   -6.0112   -7.2786 C.2       1 RES1    0.0000
     27 C10       -7.7756   -6.8593   -8.5016 C.ar      1 RES1    0.0000
     28 C11       -8.8689   -6.6448   -9.3402 C.ar      1 RES1    0.0000
     29 H13       -9.4801   -5.9467   -9.1402 H         1 RES1    0.0000
     30 C12       -9.0750   -7.4185  -10.4392 C.ar      1 RES1    0.0000
     31 H14       -9.8180   -7.2655  -11.0120 H         1 RES1    0.0000
     32 C13       -8.1781   -8.4294  -10.6997 C.ar      1 RES1    0.0000
     33 C14       -7.0787   -8.6588   -9.9242 C.ar      1 RES1    0.0000
     34 H15       -6.4604   -9.3441  -10.1512 H         1 RES1    0.0000
     35 C15       -6.8805   -7.8753   -8.8030 C.ar      1 RES1    0.0000
     36 H16       -6.1314   -8.0312   -8.2385 H         1 RES1    0.0000
     37 N1        -8.4178   -9.2905  -11.8812 N.pl3     1 RES1    0.0000
     38 O6        -7.5510  -10.0412  -12.2435 O.2       1 RES1    0.0000
     39 O7        -9.4783   -9.2110  -12.4613 O.2       1 RES1    0.0000
     40 N2        -5.4476  -10.1157   -4.5715 N.pl3     1 RES1    0.0000
     41 N3        -5.5069  -11.1674   -5.4226 N.2       1 RES1    0.0000
     42 N4        -5.3229  -12.2360   -4.7250 N.2       1 RES1    0.0000
     43 C16       -5.1549  -11.8874   -3.4208 C.2       1 RES1    0.0000
     44 C17       -5.2221  -10.4951   -3.3050 C.2       1 RES1    0.0000
     45 C18       -5.1036   -9.5755   -2.1398 C.3       1 RES1    0.0000
     46 H17       -4.5693   -8.7850   -2.4019 H         1 RES1    0.0000
     47 H18       -4.6224  -10.0383   -1.4100 H         1 RES1    0.0000
     48 C19       -6.4427   -9.1196   -1.6368 C.2       1 RES1    0.0000
     49 O8        -7.4652   -9.7185   -1.7677 O.2       1 RES1    0.0000
     50 O9        -6.3374   -7.9676   -0.9873 O.3       1 RES1    0.0000
     51 C20       -7.5554   -7.5277   -0.3252 C.3       1 RES1    0.0000
     52 H19       -7.3865   -6.6836    0.1421 H         1 RES1    0.0000
     53 H20       -7.8411   -8.2080    0.3197 H         1 RES1    0.0000
     54 H21       -8.2603   -7.3946   -0.9919 H         1 RES1    0.0000
     55 C21       -4.9957  -12.9262   -2.4702 C.2       1 RES1    0.0000
     56 O10       -4.8648  -14.1010   -2.6697 O.2       1 RES1    0.0000
     57 O11       -5.0319  -12.4723   -1.2321 O.3       1 RES1    0.0000
     58 C22       -4.9231  -13.5578   -0.2487 C.3       1 RES1    0.0000
     59 H22       -4.9231  -13.1804    0.6558 H         1 RES1    0.0000
     60 H23       -4.0882  -14.0504   -0.3962 H         1 RES1    0.0000
     61 H24       -5.6838  -14.1666   -0.3498 H         1 RES1    0.0000
@<TRIPOS>BOND
     1    1    2 1
     2    3    1 1
     3    4    3 1
     4    5    3 1
     5    6    5 1
     6    7    5 1
     7    8    7 1
     8    9    1 1
     9   10    7 1
    10   11   10 1
    11   12   10 1
    12   13    3 1
    13   14   13 1
    14   15    5 1
    15   16   14 1
    16   17   16 1
    17   18   16 1
    18   19   16 1
    19   20   14 1
    20   21   20 1
    21   22   20 1
    22   23   20 1
    23   24   10 1
    24   25   26 2
    25   26   24 1
    26   27   26 1
    27   28   27 ar
    28   29   28 1
    29   30   28 ar
    30   31   30 1
    31   32   30 ar
    32   33   32 ar
    33   34   33 1
    34   35   27 ar
    35   36   35 1
    36   37   32 1
    37   38   37 2
    38   39   37 2
    39   40    1 1
    40   41   40 1
    41   42   41 2
    42   43   42 1
    43   44   40 1
    44   45   44 1
    45   46   45 1
    46   47   45 1
    47   48   45 1
    48   49   48 2
    49   50   48 1
    50   51   50 1
    51   52   51 1
    52   53   51 1
    53   54   51 1
    54   55   43 1
    55   56   55 2
    56   57   55 1
    57   58   57 1
    58   59   58 1
    59   60   58 1
    60   61   58 1
    61    7    9 1
    62   14   15 1
    63   33   35 ar
    64   43   44 2
@<TRIPOS>SUBSTRUCTURE
     1 RES1 1

@<TRIPOS>CRYSIN
   8.8450    9.9310   27.3250  90.0000  90.0000  90.0000  19 1

