# MOL2 file generated by ConQuest
# Please check atom types

@<TRIPOS>MOLECULE
MAVBIX
    58    60     1
SMALL
NO_CHARGES
****
Generated from CSD

@<TRIPOS>ATOM
      1 N1        -2.5444   -3.4369  -13.5483 N.3       1 RES1    0.0000
      2 N2        -5.8725   -2.3058  -12.6317 N.3       1 RES1    0.0000
      3 H1        -5.9999   -1.7259  -13.2539 H         1 RES1    0.0000
      4 O1        -1.6343    3.6248  -12.7938 O.2       1 RES1    0.0000
      5 C1        -4.6413   -2.9842  -12.8502 C.2       1 RES1    0.0000
      6 O2        -2.9306    3.8185  -14.4866 O.2       1 RES1    0.0000
      7 C2        -3.4952   -2.4353  -13.3935 C.2       1 RES1    0.0000
      8 N3        -2.4038    3.1526  -13.6228 N.pl3     1 RES1    0.0000
      9 C3        -4.3864   -4.3869  -12.6519 C.2       1 RES1    0.0000
     10 C4        -3.1921   -0.9844  -13.4980 C.ar      1 RES1    0.0000
     11 C5        -2.6983    1.7098  -13.5730 C.ar      1 RES1    0.0000
     12 C6        -6.2237   -1.7247  -11.3099 C.3       1 RES1    0.0000
     13 C7        -3.8577   -0.1685  -14.4079 C.ar      1 RES1    0.0000
     14 H2        -4.4752   -0.5375  -14.9982 H         1 RES1    0.0000
     15 C8        -3.1222   -4.5978  -13.1018 C.2       1 RES1    0.0000
     16 H3        -2.7012   -5.4263  -13.1062 H         1 RES1    0.0000
     17 C9        -5.2626   -5.4722  -12.1661 C.ar      1 RES1    0.0000
     18 C10       -3.6009    1.1918  -14.4365 C.ar      1 RES1    0.0000
     19 H4        -4.0437    1.7419  -15.0407 H         1 RES1    0.0000
     20 C11       -4.6952   -6.5941  -11.5501 C.ar      1 RES1    0.0000
     21 H5        -3.7765   -6.6273  -11.4065 H         1 RES1    0.0000
     22 C12       -2.0270    0.9397  -12.6503 C.ar      1 RES1    0.0000
     23 H6        -1.4228    1.3236  -12.0560 H         1 RES1    0.0000
     24 C13       -2.2744   -0.4091  -12.6303 C.ar      1 RES1    0.0000
     25 H7        -1.8184   -0.9477  -12.0236 H         1 RES1    0.0000
     26 C14       -1.3926   -3.4930  -14.5184 C.3       1 RES1    0.0000
     27 C15       -6.6316   -5.4790  -12.3656 C.ar      1 RES1    0.0000
     28 H8        -7.0309   -4.7559  -12.7946 H         1 RES1    0.0000
     29 C16       -6.8364   -7.6324  -11.3417 C.ar      1 RES1    0.0000
     30 H9        -7.3623   -8.3498  -11.0665 H         1 RES1    0.0000
     31 C17       -5.4901   -7.6576  -11.1495 C.ar      1 RES1    0.0000
     32 H10       -5.0974   -8.3979  -10.7468 H         1 RES1    0.0000
     33 C18       -7.4190   -6.5311  -11.9467 C.ar      1 RES1    0.0000
     34 H11       -8.3404   -6.5013  -12.0702 H         1 RES1    0.0000
     35 C19       -7.6229   -1.1506  -11.4915 C.3       1 RES1    0.0000
     36 H12       -7.5993   -0.4504  -12.1471 H         1 RES1    0.0000
     37 H13       -7.9335   -0.7953  -10.6537 H         1 RES1    0.0000
     38 H14       -8.2177   -1.8439  -11.7849 H         1 RES1    0.0000
     39 C20       -5.3003   -0.6165  -10.8824 C.3       1 RES1    0.0000
     40 H15       -4.4100   -0.9615  -10.7853 H         1 RES1    0.0000
     41 H16       -5.5977   -0.2590  -10.0426 H         1 RES1    0.0000
     42 H17       -5.3041    0.0768  -11.5461 H         1 RES1    0.0000
     43 C21       -6.2709   -2.8054  -10.2713 C.3       1 RES1    0.0000
     44 H18       -6.9044   -3.4770  -10.5343 H         1 RES1    0.0000
     45 H19       -6.5362   -2.4284   -9.4275 H         1 RES1    0.0000
     46 H20       -5.4014   -3.2031  -10.1823 H         1 RES1    0.0000
     47 C22       -0.3644   -4.4373  -13.9723 C.3       1 RES1    0.0000
     48 H21       -0.0302   -4.0992  -13.1386 H         1 RES1    0.0000
     49 H22        0.3607   -4.5175  -14.5975 H         1 RES1    0.0000
     50 H23       -0.7629   -5.2991  -13.8326 H         1 RES1    0.0000
     51 C23       -0.7883   -2.1614  -14.7958 C.3       1 RES1    0.0000
     52 H24       -1.4832   -1.5311  -15.0022 H         1 RES1    0.0000
     53 H25       -0.1860   -2.2301  -15.5385 H         1 RES1    0.0000
     54 H26       -0.3059   -1.8611  -14.0208 H         1 RES1    0.0000
     55 C24       -1.9506   -4.0889  -15.8035 C.3       1 RES1    0.0000
     56 H27       -2.2905   -4.9691  -15.6255 H         1 RES1    0.0000
     57 H28       -1.2529   -4.1428  -16.4612 H         1 RES1    0.0000
     58 H29       -2.6596   -3.5320  -16.1334 H         1 RES1    0.0000
@<TRIPOS>BOND
     1    1    7 1
     2    2    3 1
     3    4    8 2
     4    5    2 1
     5    6    8 2
     6    7    5 2
     7    8   11 1
     8    9    5 1
     9   10    7 1
    10   11   18 ar
    11   12    2 1
    12   13   10 ar
    13   14   13 1
    14   15    1 1
    15   16   15 1
    16   17    9 1
    17   18   13 ar
    18   19   18 1
    19   20   17 ar
    20   21   20 1
    21   22   11 ar
    22   23   22 1
    23   24   10 ar
    24   25   24 1
    25   26    1 1
    26   27   17 ar
    27   28   27 1
    28   29   30 1
    29   31   20 ar
    30   32   31 1
    31   33   27 ar
    32   34   33 1
    33   35   12 1
    34   36   35 1
    35   37   35 1
    36   38   35 1
    37   39   12 1
    38   40   39 1
    39   41   39 1
    40   42   39 1
    41   43   12 1
    42   44   43 1
    43   45   43 1
    44   46   43 1
    45   47   26 1
    46   48   47 1
    47   49   47 1
    48   50   47 1
    49   51   26 1
    50   52   51 1
    51   53   51 1
    52   54   51 1
    53   55   26 1
    54   56   55 1
    55   57   55 1
    56   58   55 1
    57    9   15 2
    58   22   24 ar
    59   29   31 ar
    60   29   33 ar
@<TRIPOS>SUBSTRUCTURE
     1 RES1 1

@<TRIPOS>CRYSIN
   9.4413   11.4600   20.2350  90.0000  90.0000  90.0000  19 1

