# MOL2 file generated by ConQuest
# Please check atom types

@<TRIPOS>MOLECULE
MAVHAT01
    45    49     1
SMALL
NO_CHARGES
****
Generated from CSD

@<TRIPOS>ATOM
      1 O1        11.1610    7.7031   10.5138 O.2       1 RES1    0.0000
      2 N1        10.8891    6.7018   13.3073 N.3       1 RES1    0.0000
      3 C1        10.6700    6.6455   10.8964 C.2       1 RES1    0.0000
      4 C2         9.3782    4.7640   10.9509 C.ar      1 RES1    0.0000
      5 N2         9.6170    6.0123   10.3362 N.am      1 RES1    0.0000
      6 H1         9.1972    6.3269    9.5988 H         1 RES1    0.0000
      7 C3        12.6376    5.5292   12.1736 C.3       1 RES1    0.0000
      8 H2        12.7891    4.9237   12.9549 H         1 RES1    0.0000
      9 C4        10.2375    3.4097   12.7290 C.ar      1 RES1    0.0000
     10 H3        10.8248    3.2802   13.4633 H         1 RES1    0.0000
     11 C5        11.1144    5.8260   12.1384 C.3       1 RES1    0.0000
     12 C6        13.2488    4.8423   10.9742 C.ar      1 RES1    0.0000
     13 C7         8.5015    3.7863   10.5557 C.ar      1 RES1    0.0000
     14 H4         7.9154    3.9166    9.8186 H         1 RES1    0.0000
     15 N3        14.5620    6.7344   13.1609 N.pl3     1 RES1    0.0000
     16 C8        13.6512    5.5262    9.8288 C.ar      1 RES1    0.0000
     17 H5        13.5271    6.4662    9.7720 H         1 RES1    0.0000
     18 C9         9.3653    2.4020   12.3392 C.ar      1 RES1    0.0000
     19 H6         9.3614    1.5742   12.8059 H         1 RES1    0.0000
     20 C10       13.1957    6.8925   12.5696 C.3       1 RES1    0.0000
     21 H7        13.2661    7.4582   11.7480 H         1 RES1    0.0000
     22 C11       14.2321    4.8438    8.7697 C.ar      1 RES1    0.0000
     23 H8        14.5113    5.3229    7.9972 H         1 RES1    0.0000
     24 C12       13.4329    3.4625   11.0133 C.ar      1 RES1    0.0000
     25 H9        13.1629    2.9759   11.7834 H         1 RES1    0.0000
     26 C13       12.1204    7.5139   13.5082 C.3       1 RES1    0.0000
     27 H10       11.9352    8.4486   13.2044 H         1 RES1    0.0000
     28 C14       14.4092    3.4798    8.8259 C.ar      1 RES1    0.0000
     29 H11       14.8088    3.0181    8.0977 H         1 RES1    0.0000
     30 C15       10.2382    4.6036   12.0341 C.ar      1 RES1    0.0000
     31 O2        14.7132    5.9503   14.0792 O.2       1 RES1    0.0000
     32 O3        15.4681    7.3708   12.6854 O.2       1 RES1    0.0000
     33 C16        8.5045    2.5970   11.2757 C.ar      1 RES1    0.0000
     34 H12        7.9028    1.9041   11.0310 H         1 RES1    0.0000
     35 C17       14.0032    2.7891    9.9475 C.ar      1 RES1    0.0000
     36 H13       14.1158    1.8468    9.9899 H         1 RES1    0.0000
     37 C18       11.0311    7.0605   15.6012 C.3       1 RES1    0.0000
     38 H14       11.1626    6.6545   16.4953 H         1 RES1    0.0000
     39 H15       10.3792    7.8016   15.6721 H         1 RES1    0.0000
     40 C19       10.5934    6.0392   14.5938 C.3       1 RES1    0.0000
     41 H16       11.1058    5.1986   14.6906 H         1 RES1    0.0000
     42 H17        9.6275    5.8418   14.6813 H         1 RES1    0.0000
     43 C20       12.3407    7.5328   15.0119 C.3       1 RES1    0.0000
     44 H18       13.0802    6.9249   15.2661 H         1 RES1    0.0000
     45 H19       12.5559    8.4471   15.3239 H         1 RES1    0.0000
@<TRIPOS>BOND
     1    1    3 2
     2    2   11 1
     3    3    5 1
     4    4    5 1
     5    5    6 1
     6    7    8 1
     7    9   10 1
     8   11    3 1
     9   12    7 1
    10   13    4 ar
    11   14   13 1
    12   15   20 1
    13   16   12 ar
    14   17   16 1
    15   18    9 ar
    16   19   18 1
    17   20    7 1
    18   21   20 1
    19   22   16 ar
    20   23   22 1
    21   24   12 ar
    22   25   24 1
    23   26    2 1
    24   27   26 1
    25   28   22 ar
    26   29   28 1
    27   30    4 ar
    28   31   15 2
    29   32   15 2
    30   33   13 ar
    31   34   33 1
    32   35   24 ar
    33   36   35 1
    34   37   38 1
    35   39   37 1
    36   40    2 1
    37   41   40 1
    38   42   40 1
    39   43   26 1
    40   44   43 1
    41   45   43 1
    42    7   11 1
    43    9   30 ar
    44   11   30 1
    45   18   33 ar
    46   20   26 1
    47   28   35 ar
    48   37   40 1
    49   37   43 1
@<TRIPOS>SUBSTRUCTURE
     1 RES1 1

@<TRIPOS>CRYSIN
  23.7629    7.5320   19.1181  90.0000 103.0540  90.0000  15 1

