# MOL2 file generated by ConQuest
# Please check atom types

@<TRIPOS>MOLECULE
MAVWOY
    32    34     1
SMALL
NO_CHARGES
****
Generated from CSD

@<TRIPOS>ATOM
      1 O1         4.5750    3.4115    1.1536 O.3       1 RES1    0.0000
      2 O2         7.0228    4.0706    1.2643 O.3       1 RES1    0.0000
      3 N1         6.5765    3.3114    2.3583 N.2       1 RES1    0.0000
      4 C1         3.2437    2.2407    2.6119 C.ar      1 RES1    0.0000
      5 C2         2.2053    1.6092    3.2901 C.ar      1 RES1    0.0000
      6 H1         1.3453    1.5879    2.9369 H         1 RES1    0.0000
      7 C3         2.4911    1.0173    4.4977 C.ar      1 RES1    0.0000
      8 H2         1.8130    0.5894    4.9680 H         1 RES1    0.0000
      9 C4         3.7703    1.0453    5.0295 C.ar      1 RES1    0.0000
     10 H3         3.9355    0.6294    5.8439 H         1 RES1    0.0000
     11 C5         4.7994    1.6772    4.3732 C.ar      1 RES1    0.0000
     12 H4         5.6563    1.7043    4.7346 H         1 RES1    0.0000
     13 C6         4.5146    2.2712    3.1556 C.ar      1 RES1    0.0000
     14 C7         5.3456    3.0224    2.2280 C.2       1 RES1    0.0000
     15 C8         3.2671    2.9561    1.3473 C.2       1 RES1    0.0000
     16 C9         2.2960    3.1851    0.4649 C.2       1 RES1    0.0000
     17 H5         1.4665    2.8355    0.7023 H         1 RES1    0.0000
     18 C10        2.3133    3.8916   -0.8100 C.ar      1 RES1    0.0000
     19 C11        3.4372    4.5306   -1.3378 C.ar      1 RES1    0.0000
     20 H6         4.2346    4.5273   -0.8579 H         1 RES1    0.0000
     21 C12        3.3813    5.1655   -2.5578 C.ar      1 RES1    0.0000
     22 H7         4.1404    5.5839   -2.8950 H         1 RES1    0.0000
     23 C13        2.2140    5.1872   -3.2845 C.ar      1 RES1    0.0000
     24 H8         2.1825    5.6168   -4.1081 H         1 RES1    0.0000
     25 C14        1.0973    4.5690   -2.7805 C.ar      1 RES1    0.0000
     26 H9         0.3057    4.5774   -3.2661 H         1 RES1    0.0000
     27 C15        1.1442    3.9367   -1.5602 C.ar      1 RES1    0.0000
     28 H10        0.3756    3.5300   -1.2290 H         1 RES1    0.0000
     29 C16        8.3931    4.3938    1.4565 C.3       1 RES1    0.0000
     30 H11        8.7073    4.9102    0.7103 H         1 RES1    0.0000
     31 H12        8.9074    3.5855    1.5243 H         1 RES1    0.0000
     32 H13        8.4899    4.9044    2.2645 H         1 RES1    0.0000
@<TRIPOS>BOND
     1    1   14 1
     2    2    3 1
     3    3   14 2
     4    4    5 ar
     5    5    6 1
     6    7    5 ar
     7    8    7 1
     8    9    7 ar
     9   10    9 1
    10   11    9 ar
    11   12   11 1
    12   13    4 ar
    13   14   13 1
    14   15    1 1
    15   16   15 2
    16   17   16 1
    17   18   16 1
    18   19   18 ar
    19   20   19 1
    20   21   19 ar
    21   22   21 1
    22   23   21 ar
    23   24   23 1
    24   25   23 ar
    25   26   25 1
    26   27   18 ar
    27   28   27 1
    28   29    2 1
    29   30   29 1
    30   31   29 1
    31   32   29 1
    32    4   15 1
    33   11   13 ar
    34   25   27 ar
@<TRIPOS>SUBSTRUCTURE
     1 RES1 1

@<TRIPOS>CRYSIN
  30.4950    4.1711   20.4558  90.0000 102.7450  90.0000  15 1

