# MOL2 file generated by ConQuest
# Please check atom types

@<TRIPOS>MOLECULE
MAVWUE
    32    34     1
SMALL
NO_CHARGES
****
Generated from CSD

@<TRIPOS>ATOM
      1 N1         2.1043    0.8489    1.8871 N.am      1 RES1    0.0000
      2 O1         0.7872    1.2969    1.9725 O.3       1 RES1    0.0000
      3 O2         2.7500    2.9784    1.4182 O.2       1 RES1    0.0000
      4 C1         3.0587    1.8090    1.6028 C.2       1 RES1    0.0000
      5 C2         4.4245    1.2838    1.5697 C.ar      1 RES1    0.0000
      6 C3         5.4752    2.1516    1.2685 C.ar      1 RES1    0.0000
      7 H1         5.2993    3.0422    1.0696 H         1 RES1    0.0000
      8 C4         6.7629    1.6940    1.2651 C.ar      1 RES1    0.0000
      9 H2         7.4604    2.2776    1.0679 H         1 RES1    0.0000
     10 C5         7.0369    0.3660    1.5528 C.ar      1 RES1    0.0000
     11 H3         7.9172    0.0655    1.5545 H         1 RES1    0.0000
     12 C6         6.0230   -0.5049    1.8338 C.ar      1 RES1    0.0000
     13 H4         6.2179   -1.3969    2.0118 H         1 RES1    0.0000
     14 C7         4.6893   -0.0677    1.8561 C.ar      1 RES1    0.0000
     15 C8         3.6001   -0.9429    2.1475 C.2       1 RES1    0.0000
     16 H5         3.7726   -1.8372    2.3382 H         1 RES1    0.0000
     17 C9         2.3333   -0.5025    2.1516 C.2       1 RES1    0.0000
     18 C10        1.1432   -1.3606    2.3767 C.ar      1 RES1    0.0000
     19 C11        0.2602   -1.6328    1.3426 C.ar      1 RES1    0.0000
     20 H6         0.4141   -1.2749    0.4978 H         1 RES1    0.0000
     21 C12       -0.8441   -2.4304    1.5571 C.ar      1 RES1    0.0000
     22 H7        -1.4201   -2.6198    0.8526 H         1 RES1    0.0000
     23 C13       -1.1001   -2.9467    2.8058 C.ar      1 RES1    0.0000
     24 H8        -1.8588   -3.4647    2.9522 H         1 RES1    0.0000
     25 C14       -0.2266   -2.6918    3.8332 C.ar      1 RES1    0.0000
     26 H9        -0.3900   -3.0467    4.6772 H         1 RES1    0.0000
     27 C15        0.8938   -1.9095    3.6203 C.ar      1 RES1    0.0000
     28 H10        1.4852   -1.7510    4.3207 H         1 RES1    0.0000
     29 C16        0.5032    1.7181    3.3191 C.3       1 RES1    0.0000
     30 H11       -0.4022    2.0321    3.3716 H         1 RES1    0.0000
     31 H12        1.1024    2.4264    3.5654 H         1 RES1    0.0000
     32 H13        0.6212    0.9774    3.9176 H         1 RES1    0.0000
@<TRIPOS>BOND
     1    1    2 1
     2    2   29 1
     3    3    4 2
     4    4    1 1
     5    5    4 1
     6    6    5 ar
     7    7    6 1
     8    8    6 ar
     9    9    8 1
    10   10    8 ar
    11   11   10 1
    12   12   10 ar
    13   13   12 1
    14   14    5 ar
    15   15   14 1
    16   16   15 1
    17   17    1 1
    18   18   17 1
    19   19   18 ar
    20   20   19 1
    21   21   19 ar
    22   22   21 1
    23   23   21 ar
    24   24   23 1
    25   25   23 ar
    26   26   25 1
    27   27   18 ar
    28   28   27 1
    29   29   30 1
    30   31   29 1
    31   32   29 1
    32   12   14 ar
    33   15   17 2
    34   25   27 ar
@<TRIPOS>SUBSTRUCTURE
     1 RES1 1

@<TRIPOS>CRYSIN
  10.0672   14.8765    9.2489  90.0000 111.3860  90.0000  14 1

