# MOL2 file generated by ConQuest
# Please check atom types

@<TRIPOS>MOLECULE
MAVXAL
    36    38     1
SMALL
NO_CHARGES
****
Generated from CSD

@<TRIPOS>ATOM
      1 O1         4.4769    8.5894    0.3494 O.3       1 RES1    0.0000
      2 O2         4.7070    6.5878    1.8032 O.3       1 RES1    0.0000
      3 O3        10.1606    5.4525    4.7282 O.3       1 RES1    0.0000
      4 N1         3.3165    7.7910    0.4323 N.2       1 RES1    0.0000
      5 C1         1.6198    3.8554    2.5434 C.ar      1 RES1    0.0000
      6 H1         1.7472    3.1615    3.1500 H         1 RES1    0.0000
      7 C2         0.4228    3.9689    1.8812 C.ar      1 RES1    0.0000
      8 H2        -0.2552    3.3559    2.0472 H         1 RES1    0.0000
      9 C3         0.2182    4.9835    0.9715 C.ar      1 RES1    0.0000
     10 H3        -0.5946    5.0516    0.5245 H         1 RES1    0.0000
     11 C4         1.2164    5.8945    0.7266 C.ar      1 RES1    0.0000
     12 H4         1.0799    6.5728    0.1045 H         1 RES1    0.0000
     13 C5         2.4323    5.8087    1.4045 C.ar      1 RES1    0.0000
     14 C6         3.4994    6.7757    1.1900 C.2       1 RES1    0.0000
     15 C7         4.9153    5.5455    2.6963 C.2       1 RES1    0.0000
     16 C8         6.2761    5.5604    3.2335 C.ar      1 RES1    0.0000
     17 C9         7.2150    6.4671    2.7804 C.ar      1 RES1    0.0000
     18 H5         6.9660    7.0929    2.1385 H         1 RES1    0.0000
     19 C10        8.5186    6.4713    3.2552 C.ar      1 RES1    0.0000
     20 H6         9.1304    7.0936    2.9345 H         1 RES1    0.0000
     21 C11        8.9000    5.5554    4.1993 C.ar      1 RES1    0.0000
     22 C12        7.9698    4.6494    4.6840 C.ar      1 RES1    0.0000
     23 H7         8.2205    4.0342    5.3358 H         1 RES1    0.0000
     24 C13        6.6813    4.6529    4.2087 C.ar      1 RES1    0.0000
     25 H8         6.0694    4.0385    4.5442 H         1 RES1    0.0000
     26 C14        3.9352    4.6862    2.9595 C.2       1 RES1    0.0000
     27 H9         4.0835    4.0087    3.5788 H         1 RES1    0.0000
     28 C15        2.6470    4.7728    2.3147 C.ar      1 RES1    0.0000
     29 C16        4.1748    9.7187   -0.4607 C.3       1 RES1    0.0000
     30 H10        4.9510   10.2778   -0.5322 H         1 RES1    0.0000
     31 H11        3.4575   10.2168   -0.0616 H         1 RES1    0.0000
     32 H12        3.9110    9.4236   -1.3359 H         1 RES1    0.0000
     33 C17       11.1784    6.2997    4.2000 C.3       1 RES1    0.0000
     34 H13       12.0078    6.1223    4.6497 H         1 RES1    0.0000
     35 H14       10.9309    7.2177    4.3331 H         1 RES1    0.0000
     36 H15       11.2821    6.1287    3.2611 H         1 RES1    0.0000
@<TRIPOS>BOND
     1    1    4 1
     2    2   14 1
     3    3   21 1
     4    4   14 2
     5    5    6 1
     6    7    5 ar
     7    8    7 1
     8    9    7 ar
     9   10    9 1
    10   11    9 ar
    11   12   11 1
    12   13   11 ar
    13   14   13 1
    14   15    2 1
    15   16   15 1
    16   17   16 ar
    17   18   17 1
    18   19   17 ar
    19   20   19 1
    20   21   19 ar
    21   22   21 ar
    22   23   22 1
    23   24   16 ar
    24   25   24 1
    25   26   15 2
    26   27   26 1
    27   28    5 ar
    28   29    1 1
    29   30   29 1
    30   31   29 1
    31   32   29 1
    32   33    3 1
    33   34   33 1
    34   35   33 1
    35   36   33 1
    36   13   28 ar
    37   22   24 ar
    38   26   28 1
@<TRIPOS>SUBSTRUCTURE
     1 RES1 1

@<TRIPOS>CRYSIN
  19.0900    7.0950   10.9950  90.0000  90.3040  90.0000  14 1

