# MOL2 file generated by ConQuest
# Please check atom types

@<TRIPOS>MOLECULE
MAWHAT
    39    42     1
SMALL
NO_CHARGES
****
Generated from CSD

@<TRIPOS>ATOM
      1 O1         1.7362   -0.3275    4.4426 O.3       1 RES1    0.0000
      2 O2         2.4443    1.6357    2.2859 O.2       1 RES1    0.0000
      3 O3         1.0927    0.1173    1.4097 O.3       1 RES1    0.0000
      4 N1         1.1386   -0.3609    5.7784 N.3       1 RES1    0.0000
      5 C1         0.8110    0.4967    3.7190 C.3       1 RES1    0.0000
      6 C2         1.5572    0.8486    2.4253 C.2       1 RES1    0.0000
      7 C3         0.0501   -0.8012    1.8649 C.3       1 RES1    0.0000
      8 H1        -0.6531   -0.7790    1.1645 H         1 RES1    0.0000
      9 H2         0.5247   -1.7021    1.9355 H         1 RES1    0.0000
     10 C4        -0.3800   -0.2927    3.2192 C.3       1 RES1    0.0000
     11 H3        -0.5618   -1.0237    3.8352 H         1 RES1    0.0000
     12 H4        -1.1492    0.2911    3.1685 H         1 RES1    0.0000
     13 C5         0.5529    1.6498    4.6649 C.3       1 RES1    0.0000
     14 H5        -0.3209    2.0319    4.5466 H         1 RES1    0.0000
     15 H6         1.2091    2.3260    4.5287 H         1 RES1    0.0000
     16 C6         0.7611    1.0484    6.0728 C.3       1 RES1    0.0000
     17 H7         1.4657    1.5042    6.5050 H         1 RES1    0.0000
     18 C7        -0.4692    1.1055    6.9580 C.ar      1 RES1    0.0000
     19 C8        -0.5187    2.0404    7.9765 C.ar      1 RES1    0.0000
     20 H8         0.2044    2.6083    8.1175 H         1 RES1    0.0000
     21 C9        -1.6403    2.1364    8.7882 C.ar      1 RES1    0.0000
     22 H9        -1.6647    2.7670    9.4708 H         1 RES1    0.0000
     23 C10       -2.7120    1.3066    8.5865 C.ar      1 RES1    0.0000
     24 H10       -3.4622    1.3729    9.1320 H         1 RES1    0.0000
     25 C11       -2.6732    0.3733    7.5751 C.ar      1 RES1    0.0000
     26 H11       -3.3999   -0.1903    7.4360 H         1 RES1    0.0000
     27 C12       -1.5555    0.2701    6.7643 C.ar      1 RES1    0.0000
     28 H12       -1.5338   -0.3656    6.0857 H         1 RES1    0.0000
     29 C13        2.0354   -1.0248    6.6550 C.ar      1 RES1    0.0000
     30 C14        2.8593   -2.0397    6.1751 C.ar      1 RES1    0.0000
     31 H13        2.8947   -2.2188    5.2630 H         1 RES1    0.0000
     32 C15        3.6259   -2.7825    7.0564 C.ar      1 RES1    0.0000
     33 H14        4.1768   -3.4581    6.7305 H         1 RES1    0.0000
     34 C16        3.5844   -2.5342    8.4126 C.ar      1 RES1    0.0000
     35 H15        4.0986   -3.0401    8.9989 H         1 RES1    0.0000
     36 C17        2.7726   -1.5298    8.8886 C.ar      1 RES1    0.0000
     37 H16        2.7376   -1.3609    9.8027 H         1 RES1    0.0000
     38 C18        2.0059   -0.7681    8.0222 C.ar      1 RES1    0.0000
     39 H17        1.4712   -0.0841    8.3550 H         1 RES1    0.0000
@<TRIPOS>BOND
     1    1    4 1
     2    2    6 2
     3    3    6 1
     4    4   16 1
     5    5    1 1
     6    6    5 1
     7    7    3 1
     8    8    7 1
     9    9    7 1
    10   10    5 1
    11   11   10 1
    12   12   10 1
    13   13    5 1
    14   14   13 1
    15   15   13 1
    16   16   13 1
    17   17   16 1
    18   18   16 1
    19   19   18 ar
    20   20   19 1
    21   21   19 ar
    22   22   21 1
    23   23   21 ar
    24   24   23 1
    25   25   23 ar
    26   26   25 1
    27   27   18 ar
    28   28   27 1
    29   29    4 1
    30   30   29 ar
    31   31   30 1
    32   32   30 ar
    33   33   32 1
    34   34   32 ar
    35   35   34 1
    36   36   34 ar
    37   37   36 1
    38   38   29 ar
    39   39   38 1
    40    7   10 1
    41   25   27 ar
    42   36   38 ar
@<TRIPOS>SUBSTRUCTURE
     1 RES1 1

@<TRIPOS>CRYSIN
   8.8470    9.0240   10.7130 109.6700  92.7800 108.3700   2 1

