# MOL2 file generated by ConQuest
# Please check atom types

@<TRIPOS>MOLECULE
MAWSAE
    40    41     1
SMALL
NO_CHARGES
****
Generated from CSD

@<TRIPOS>ATOM
      1 N1         2.7539    2.1778    0.7961 N.2       1 RES1    0.0000
      2 C1         4.0141    2.3085    1.0170 C.2       1 RES1    0.0000
      3 O1         2.7767    1.0294   -2.9435 O.2       1 RES1    0.0000
      4 N2         2.3785    1.8003   -0.4823 N.pl3     1 RES1    0.0000
      5 H1         2.9592    1.6435   -1.0888 H         1 RES1    0.0000
      6 C2         5.1191    2.1015   -0.0021 C.3       1 RES1    0.0000
      7 H2         4.7777    1.4888   -0.6854 H         1 RES1    0.0000
      8 O2         1.1147    0.6258   -4.2319 O.2       1 RES1    0.0000
      9 C3         6.3603    1.4461    0.6268 C.3       1 RES1    0.0000
     10 H3         6.1775    0.5054    0.7789 H         1 RES1    0.0000
     11 H4         7.0990    1.5053    0.0000 H         1 RES1    0.0000
     12 N3         1.5614    0.9393   -3.1335 N.pl3     1 RES1    0.0000
     13 O3        -3.3674    0.7138   -2.7919 O.2       1 RES1    0.0000
     14 C4         6.7711    2.0870    1.9361 C.3       1 RES1    0.0000
     15 H5         7.0279    3.0092    1.7812 H         1 RES1    0.0000
     16 H6         7.5362    1.6174    2.3032 H         1 RES1    0.0000
     17 O4        -3.8300    0.9840   -0.6925 O.2       1 RES1    0.0000
     18 N4        -3.0334    0.9400   -1.6300 N.pl3     1 RES1    0.0000
     19 C5         5.6203    2.0355    2.9216 C.3       1 RES1    0.0000
     20 H7         5.9029    2.4233    3.7647 H         1 RES1    0.0000
     21 H8         5.3795    1.1106    3.0835 H         1 RES1    0.0000
     22 C6         4.3967    2.7940    2.3995 C.3       1 RES1    0.0000
     23 H9         4.6652    3.7312    2.3046 H         1 RES1    0.0000
     24 C7         5.4409    3.4239   -0.6924 C.3       1 RES1    0.0000
     25 H10        4.6355    3.8034   -1.0483 H         1 RES1    0.0000
     26 H11        6.0659    3.2691   -1.4057 H         1 RES1    0.0000
     27 H12        5.8272    4.0311   -0.0558 H         1 RES1    0.0000
     28 C8         3.2443    2.7665    3.3970 C.3       1 RES1    0.0000
     29 H13        2.5176    3.2946    3.0598 H         1 RES1    0.0000
     30 H14        3.5387    3.1261    4.2365 H         1 RES1    0.0000
     31 H15        2.9510    1.8608    3.5232 H         1 RES1    0.0000
     32 C9         1.0834    1.6029   -0.7677 C.ar      1 RES1    0.0000
     33 C10        0.6402    1.1855   -2.0574 C.ar      1 RES1    0.0000
     34 C11       -0.7086    0.9834   -2.3288 C.ar      1 RES1    0.0000
     35 H16       -0.9817    0.7186   -3.1770 H         1 RES1    0.0000
     36 C12       -1.6261    1.1759   -1.3413 C.ar      1 RES1    0.0000
     37 C13       -1.2394    1.5871   -0.0711 C.ar      1 RES1    0.0000
     38 H17       -1.8808    1.7150    0.5905 H         1 RES1    0.0000
     39 C14        0.0788    1.8024    0.2087 C.ar      1 RES1    0.0000
     40 H18        0.3218    2.0864    1.0595 H         1 RES1    0.0000
@<TRIPOS>BOND
     1    1    2 2
     2    2    6 1
     3    3   12 2
     4    4    1 1
     5    5    4 1
     6    6    7 1
     7    8   12 2
     8    9    6 1
     9   10    9 1
    10   11    9 1
    11   12   33 1
    12   13   18 2
    13   14    9 1
    14   15   14 1
    15   16   14 1
    16   17   18 2
    17   18   36 1
    18   19   14 1
    19   20   19 1
    20   21   19 1
    21   22    2 1
    22   23   22 1
    23   24    6 1
    24   25   24 1
    25   26   24 1
    26   27   24 1
    27   28   22 1
    28   29   28 1
    29   30   28 1
    30   31   28 1
    31   32    4 1
    32   33   32 ar
    33   34   33 ar
    34   35   34 1
    35   36   34 ar
    36   37   36 ar
    37   38   37 1
    38   39   32 ar
    39   40   39 1
    40   19   22 1
    41   37   39 ar
@<TRIPOS>SUBSTRUCTURE
     1 RES1 1

@<TRIPOS>CRYSIN
  15.6090    6.8766   15.1700  90.0000 113.0500  90.0000  14 1

