# MOL2 file generated by ConQuest
# Please check atom types

@<TRIPOS>MOLECULE
MAXXOB
    81    70     3
SMALL
NO_CHARGES
****
Generated from CSD

@<TRIPOS>ATOM
      1 C1         1.6570    1.6523   -1.0904 C.ar      1 RES1    0.0000
      2 C2         0.7579    1.4350   -2.2136 C.ar      1 RES1    0.0000
      3 O1         1.3870    1.2432   -3.3895 O.3       1 RES1    0.0000
      4 C3         0.5502    1.0287   -4.5347 C.3       1 RES1    0.0000
      5 H1         0.0266    1.8386   -4.7139 H         1 RES1    0.0000
      6 H2        -0.0567    0.2794   -4.3606 H         1 RES1    0.0000
      7 H3         1.1092    0.8224   -5.3130 H         1 RES1    0.0000
      8 C4         1.0711    1.7110    0.1657 C.ar      1 RES1    0.0000
      9 N1         1.9227    1.7289    1.3671 N.pl3     1 RES1    0.0000
     10 O2         3.0447    1.2763    1.2998 O.2       1 RES1    0.0000
     11 O3         1.4459    2.1884    2.4006 O.2       1 RES1    0.0000
     12 C5        -0.3054    1.6882    0.3666 C.ar      1 RES1    0.0000
     13 H4        -0.6670    1.7448    1.2425 H         1 RES1    0.0000
     14 C6        -1.1298    1.5840   -0.7243 C.ar      1 RES1    0.0000
     15 H5        -2.0721    1.5661   -0.6025 H         1 RES1    0.0000
     16 O4         3.2447   -0.6188   -1.5466 O.2       1 RES1    0.0000
     17 C7        -0.6036    1.5054   -1.9950 C.ar      1 RES1    0.0000
     18 H6        -1.2461    1.5730   -2.6795 H         1 RES1    0.0000
     19 C8         3.1157    1.7324   -1.3963 C.2       1 RES1    0.0000
     20 C9         3.7440    2.9038   -1.5314 C.2       1 RES1    0.0000
     21 H7         3.2334    3.7600   -1.4848 H         1 RES1    0.0000
     22 C10        5.1874    3.0611   -1.9345 C.3       1 RES1    0.0000
     23 H8         5.6036    3.7255   -1.3142 H         1 RES1    0.0000
     24 C11        5.9461    1.7337   -1.7750 C.3       1 RES1    0.0000
     25 H9         6.8139    1.7979   -2.2460 H         1 RES1    0.0000
     26 H10        6.1343    1.5820   -0.8141 H         1 RES1    0.0000
     27 C12        5.1715    0.5499   -2.3211 C.3       1 RES1    0.0000
     28 H11        5.0868    0.6416   -3.3025 H         1 RES1    0.0000
     29 H12        5.6727   -0.2829   -2.1351 H         1 RES1    0.0000
     30 C13        3.7955    0.4484   -1.7093 C.2       1 RES1    0.0000
     31 C14        5.2785    3.6275   -3.3503 C.3       1 RES1    0.0000
     32 H13        4.9017    2.9825   -3.9851 H         1 RES1    0.0000
     33 H14        6.2184    3.7966   -3.5755 H         1 RES1    0.0000
     34 H15        4.7752    4.4665   -3.3998 H         1 RES1    0.0000
     35 O5         1.3640    2.0076   -3.3554 Du        3 SUP3    0.0000
     36 C15        0.8212    1.8559   -2.0668 Du        3 SUP3    0.0000
     37 C16        0.4975    2.0973   -4.4818 Du        3 SUP3    0.0000
     38 H16        1.0099    2.3919   -5.2635 Du        3 SUP3    0.0000
     39 H17       -0.2144    2.7445   -4.2941 Du        3 SUP3    0.0000
     40 H18        0.1019    1.2191   -4.6627 Du        3 SUP3    0.0000
     41 H19       -1.0771    1.1521   -2.7478 Du        3 SUP3    0.0000
     42 O6         7.7205    5.2654   -1.2778 O.2       2 RES2    0.0000
     43 N2         8.9130    5.2757   -1.3722 N.pl3     2 RES2    0.0000
     44 C17        9.7563    5.1371   -0.1659 C.ar      2 RES2    0.0000
     45 O7         9.4720    5.3903   -2.4466 O.2       2 RES2    0.0000
     46 C18       11.1222    5.2909   -0.3500 C.ar      2 RES2    0.0000
     47 H20       11.4751    5.4869   -1.2101 H         2 RES2    0.0000
     48 O8         9.4813    4.3492    3.3352 O.3       2 RES2    0.0000
     49 C19       11.9564    5.1529    0.7354 C.ar      2 RES2    0.0000
     50 H21       12.8924    5.2702    0.6298 H         2 RES2    0.0000
     51 O9         7.4766    7.0916    1.2464 O.2       2 RES2    0.0000
     52 C20        6.9358    6.0015    1.3352 C.2       2 RES2    0.0000
     53 C21        7.7068    4.7466    1.3396 C.2       2 RES2    0.0000
     54 C22        7.1252    3.5855    1.6669 C.2       2 RES2    0.0000
     55 H22        7.6616    2.8010    1.6401 H         2 RES2    0.0000
     56 C23        5.6820    3.4323    2.0748 C.3       2 RES2    0.0000
     57 H23        5.1892    2.9045    1.3142 H         2 RES2    0.0000
     58 C24       11.4357    4.8452    1.9818 C.ar      2 RES2    0.0000
     59 H24       12.0178    4.7487    2.7273 H         2 RES2    0.0000
     60 C25       10.0653    4.6762    2.1470 C.ar      2 RES2    0.0000
     61 C26        9.1738    4.8480    1.0691 C.ar      2 RES2    0.0000
     62 C27        5.0542    4.7790    2.4047 C.3       2 RES2    0.0000
     63 H25        5.3665    5.0798    3.2956 H         2 RES2    0.0000
     64 H26        4.0682    4.6838    2.4423 H         2 RES2    0.0000
     65 C28        5.4247    5.8228    1.3568 C.3       2 RES2    0.0000
     66 H27        5.1077    5.5296    0.4659 H         2 RES2    0.0000
     67 H28        4.9882    6.6845    1.5719 H         2 RES2    0.0000
     68 C29        5.5734    2.5271    3.2991 C.3       2 RES2    0.0000
     69 H29        4.6298    2.3685    3.5039 H         2 RES2    0.0000
     70 H30        6.0067    2.9597    4.0637 H         2 RES2    0.0000
     71 H31        6.0167    1.6730    3.1130 H         2 RES2    0.0000
     72 C30       10.3343    4.1829    4.4738 C.3       2 RES2    0.0000
     73 H32       10.9982    3.4861    4.2872 H         2 RES2    0.0000
     74 H33        9.7951    3.9221    5.2498 H         2 RES2    0.0000
     75 H34       10.7920    5.0281    4.6644 H         2 RES2    0.0000
     76 C31        4.9007    4.7328    1.7750 Du        3 SUP3    0.0000
     77 H35        4.7165    4.7666    0.7987 Du        3 SUP3    0.0000
     78 H36        4.0304    4.6935    2.2392 Du        3 SUP3    0.0000
     79 C32        5.6093    6.0022    2.1726 Du        3 SUP3    0.0000
     80 H37        5.8061    6.0057    3.1420 Du        3 SUP3    0.0000
     81 H38        5.0592    6.7963    1.9542 Du        3 SUP3    0.0000
@<TRIPOS>BOND
     1    1    2 ar
     2    2    3 1
     3    3    4 1
     4    4    5 1
     5    6    4 1
     6    7    4 1
     7    8    1 ar
     8    9    8 1
     9   10    9 2
    10   11    9 2
    11   12    8 ar
    12   13   12 1
    13   14   12 ar
    14   15   14 1
    15   16   30 2
    16   17    2 ar
    17   18   17 1
    18   19    1 1
    19   20   19 2
    20   21   20 1
    21   22   20 1
    22   23   22 1
    23   24   22 1
    24   25   24 1
    25   26   24 1
    26   27   24 1
    27   28   27 1
    28   29   27 1
    29   30   19 1
    30   31   22 1
    31   32   31 1
    32   33   31 1
    33   34   31 1
    34   42   43 2
    35   43   44 1
    36   44   46 ar
    37   45   43 2
    38   46   47 1
    39   48   60 1
    40   49   46 ar
    41   50   49 1
    42   51   52 2
    43   52   53 1
    44   53   54 2
    45   54   55 1
    46   56   54 1
    47   57   56 1
    48   58   49 ar
    49   59   58 1
    50   60   58 ar
    51   61   44 ar
    52   62   56 1
    53   63   62 1
    54   64   62 1
    55   65   52 1
    56   66   65 1
    57   67   65 1
    58   68   56 1
    59   69   68 1
    60   70   68 1
    61   71   68 1
    62   72   48 1
    63   73   72 1
    64   74   72 1
    65   75   72 1
    66   14   17 ar
    67   27   30 1
    68   53   61 1
    69   60   61 ar
    70   62   65 1
@<TRIPOS>SUBSTRUCTURE
     1 RES1 1
     2 RES2 42
     3 SUP3 35

@<TRIPOS>CRYSIN
  21.5986    6.8991   17.6362  90.0000 104.5960  90.0000  14 1

