# MOL2 file generated by ConQuest
# Please check atom types

@<TRIPOS>MOLECULE
MAYCEW
    26    26     1
SMALL
NO_CHARGES
****
Generated from CSD

@<TRIPOS>ATOM
      1 O1         3.2247    7.5657    2.0249 O.3       1 RES1    0.0000
      2 O2         5.5855    7.2056   -0.5601 O.2       1 RES1    0.0000
      3 O3         4.1827    8.8908   -0.0849 O.3       1 RES1    0.0000
      4 O4         5.8277    4.0972    0.9833 O.2       1 RES1    0.0000
      5 O5         7.0501    5.5937    2.0807 O.3       1 RES1    0.0000
      6 O6         4.8023    3.9193    4.1600 O.2       1 RES1    0.0000
      7 O7         2.7426    4.5899    4.7265 O.3       1 RES1    0.0000
      8 N1         2.9517    6.7107    3.0906 N.2       1 RES1    0.0000
      9 C1         4.2996    7.0892    1.3863 C.2       1 RES1    0.0000
     10 C2         4.7609    5.9517    1.9983 C.2       1 RES1    0.0000
     11 C3         3.8614    5.7694    3.0564 C.2       1 RES1    0.0000
     12 C4         4.7718    7.7393    0.1394 C.2       1 RES1    0.0000
     13 C5         4.4953    9.5194   -1.3508 C.3       1 RES1    0.0000
     14 C6         5.9287    5.0923    1.6219 C.2       1 RES1    0.0000
     15 C7         8.2483    4.8131    1.8310 C.3       1 RES1    0.0000
     16 C8         3.8649    4.6589    4.0397 C.2       1 RES1    0.0000
     17 C9         2.6390    3.5236    5.6984 C.3       1 RES1    0.0000
     18 H1         5.2561   10.0801   -1.2557 H         1 RES1    0.0000
     19 H2         3.7549   10.0380   -1.6422 H         1 RES1    0.0000
     20 H3         4.6783    8.8423   -1.9907 H         1 RES1    0.0000
     21 H4         8.3837    4.2147    2.5558 H         1 RES1    0.0000
     22 H5         8.9948    5.3964    1.7588 H         1 RES1    0.0000
     23 H6         8.1533    4.3182    1.0251 H         1 RES1    0.0000
     24 H7         2.2731    2.7505    5.2853 H         1 RES1    0.0000
     25 H8         2.0819    3.7910    6.4206 H         1 RES1    0.0000
     26 H9         3.5088    3.3262    6.0253 H         1 RES1    0.0000
@<TRIPOS>BOND
     1    1    8 1
     2    2   12 2
     3    3   12 1
     4    4   14 2
     5    5   14 1
     6    6   16 2
     7    7   16 1
     8    8   11 2
     9    9    1 1
    10   10    9 2
    11   11   10 1
    12   12    9 1
    13   13    3 1
    14   14   10 1
    15   15    5 1
    16   16   11 1
    17   17    7 1
    18   18   13 1
    19   19   13 1
    20   20   13 1
    21   21   15 1
    22   22   15 1
    23   23   15 1
    24   24   17 1
    25   25   17 1
    26   26   17 1
@<TRIPOS>SUBSTRUCTURE
     1 RES1 1

@<TRIPOS>CRYSIN
   8.1320   10.7820   12.8280  90.0000  98.9600  90.0000 231 1

