# MOL2 file generated by ConQuest
# Please check atom types

@<TRIPOS>MOLECULE
MAYCEX
    64    69     1
SMALL
NO_CHARGES
****
Generated from CSD

@<TRIPOS>ATOM
      1 O1         1.0245   10.2116    9.1939 O.3       1 RES1    0.0000
      2 H1         0.3276   10.4213    8.7666 H         1 RES1    0.0000
      3 O2         3.6965    9.3758   10.9320 O.2       1 RES1    0.0000
      4 O3         8.6491    6.4172    4.6095 O.2       1 RES1    0.0000
      5 O4         9.3301    7.6916    6.1960 O.2       1 RES1    0.0000
      6 N1         1.8079    9.1985   12.2242 N.am      1 RES1    0.0000
      7 N2         0.5165    8.6517   12.1193 N.2       1 RES1    0.0000
      8 N3         8.4446    7.1236    5.5847 N.pl3     1 RES1    0.0000
      9 C1         1.7004    8.1423   10.1685 C.3       1 RES1    0.0000
     10 C2         2.4005    6.8027    9.9152 C.2       1 RES1    0.0000
     11 C3         2.9909    6.5525    8.7498 C.2       1 RES1    0.0000
     12 H2         3.3963    5.7206    8.6561 H         1 RES1    0.0000
     13 C4         3.0677    7.4835    7.5654 C.3       1 RES1    0.0000
     14 H3         2.4601    7.1428    6.8773 H         1 RES1    0.0000
     15 C5         2.6110    8.9045    7.9352 C.3       1 RES1    0.0000
     16 H4         3.3387    9.3695    8.3780 H         1 RES1    0.0000
     17 H5         2.3946    9.3916    7.1248 H         1 RES1    0.0000
     18 C6         1.4051    8.8899    8.8429 C.3       1 RES1    0.0000
     19 H6         0.6602    8.4503    8.3837 H         1 RES1    0.0000
     20 C7         2.4106    5.8127   11.0379 C.ar      1 RES1    0.0000
     21 C8         3.0727    6.0964   12.2309 C.ar      1 RES1    0.0000
     22 H7         3.5313    6.9010   12.3204 H         1 RES1    0.0000
     23 C9         3.0578    5.2010   13.2833 C.ar      1 RES1    0.0000
     24 H8         3.5055    5.4069   14.0726 H         1 RES1    0.0000
     25 C10        2.3827    4.0026   13.1708 C.ar      1 RES1    0.0000
     26 H9         2.3618    3.4083   13.8859 H         1 RES1    0.0000
     27 C11        1.7413    3.6942   11.9963 C.ar      1 RES1    0.0000
     28 H10        1.2926    2.8831   11.9128 H         1 RES1    0.0000
     29 C12        1.7592    4.5881   10.9345 C.ar      1 RES1    0.0000
     30 H11        1.3293    4.3648   10.1416 H         1 RES1    0.0000
     31 C13        4.4772    7.4571    6.9953 C.ar      1 RES1    0.0000
     32 C14        4.7544    6.7641    5.8260 C.ar      1 RES1    0.0000
     33 H12        4.0585    6.3689    5.3517 H         1 RES1    0.0000
     34 C15        6.0490    6.6523    5.3536 C.ar      1 RES1    0.0000
     35 H13        6.2317    6.1754    4.5766 H         1 RES1    0.0000
     36 C16        7.0626    7.2605    6.0555 C.ar      1 RES1    0.0000
     37 C17        6.8264    7.9857    7.1995 C.ar      1 RES1    0.0000
     38 H14        7.5233    8.4061    7.6505 H         1 RES1    0.0000
     39 C18        5.5318    8.0726    7.6608 C.ar      1 RES1    0.0000
     40 H15        5.3590    8.5554    8.4371 H         1 RES1    0.0000
     41 C19        2.5569    8.9903   11.1078 C.2       1 RES1    0.0000
     42 C20        2.2248    9.7092   13.4869 C.ar      1 RES1    0.0000
     43 C21        3.5055    9.4662   13.9337 C.ar      1 RES1    0.0000
     44 H16        4.1141    9.0267   13.3850 H         1 RES1    0.0000
     45 C22        3.8857    9.8781   15.1985 C.ar      1 RES1    0.0000
     46 H17        4.7425    9.6915   15.5105 H         1 RES1    0.0000
     47 C23        3.0032   10.5553   15.9874 C.ar      1 RES1    0.0000
     48 H18        3.2603   10.8331   16.8379 H         1 RES1    0.0000
     49 C24        1.7354   10.8304   15.5313 C.ar      1 RES1    0.0000
     50 H19        1.1477   11.3114   16.0666 H         1 RES1    0.0000
     51 C25        1.3224   10.3946   14.2741 C.ar      1 RES1    0.0000
     52 H20        0.4587   10.5622   13.9716 H         1 RES1    0.0000
     53 C26        0.4331    8.0450   10.9926 C.2       1 RES1    0.0000
     54 C27       -0.8177    7.3836   10.5907 C.ar      1 RES1    0.0000
     55 C28       -2.0223    7.7437   11.1834 C.ar      1 RES1    0.0000
     56 H21       -2.0511    8.4379   11.8024 H         1 RES1    0.0000
     57 C29       -3.1799    7.0613   10.8463 C.ar      1 RES1    0.0000
     58 H22       -3.9870    7.3059   11.2367 H         1 RES1    0.0000
     59 C30       -3.1511    6.0233    9.9407 C.ar      1 RES1    0.0000
     60 H23       -3.9294    5.5548    9.7436 H         1 RES1    0.0000
     61 C31       -1.9796    5.6876    9.3356 C.ar      1 RES1    0.0000
     62 H24       -1.9617    4.9978    8.7132 H         1 RES1    0.0000
     63 C32       -0.8171    6.3660    9.6415 C.ar      1 RES1    0.0000
     64 H25       -0.0258    6.1408    9.2084 H         1 RES1    0.0000
@<TRIPOS>BOND
     1    1    2 1
     2    3   41 2
     3    4    8 2
     4    5    8 2
     5    6    7 1
     6    7   53 2
     7    8   36 1
     8    9   10 1
     9   10   11 2
    10   11   12 1
    11   13   11 1
    12   14   13 1
    13   15   13 1
    14   16   15 1
    15   17   15 1
    16   18    1 1
    17   19   18 1
    18   20   10 1
    19   21   20 ar
    20   22   21 1
    21   23   21 ar
    22   24   23 1
    23   25   23 ar
    24   26   25 1
    25   27   25 ar
    26   28   27 1
    27   29   20 ar
    28   30   29 1
    29   31   13 1
    30   32   31 ar
    31   33   32 1
    32   34   32 ar
    33   35   34 1
    34   36   34 ar
    35   37   36 ar
    36   38   37 1
    37   39   31 ar
    38   40   39 1
    39   41    6 1
    40   42    6 1
    41   43   42 ar
    42   44   43 1
    43   45   43 ar
    44   46   45 1
    45   47   45 ar
    46   48   47 1
    47   49   47 ar
    48   50   49 1
    49   51   42 ar
    50   52   51 1
    51   53    9 1
    52   54   53 1
    53   55   54 ar
    54   56   55 1
    55   57   55 ar
    56   58   57 1
    57   59   57 ar
    58   60   59 1
    59   61   59 ar
    60   62   61 1
    61   63   54 ar
    62   64   63 1
    63    9   18 1
    64    9   41 1
    65   15   18 1
    66   27   29 ar
    67   37   39 ar
    68   49   51 ar
    69   61   63 ar
@<TRIPOS>SUBSTRUCTURE
     1 RES1 1

@<TRIPOS>CRYSIN
   9.9278   13.8213   19.0453  90.0000  90.0000  90.0000  19 1

