# MOL2 file generated by ConQuest
# Please check atom types

@<TRIPOS>MOLECULE
MAYDIB
    44    44     1
SMALL
NO_CHARGES
****
Generated from CSD

@<TRIPOS>ATOM
      1 O1         3.8133    3.6444    2.9857 O.2       1 RES1    0.0000
      2 O2         2.1805    2.4266    2.2947 O.2       1 RES1    0.0000
      3 O3         5.9486   -1.2872    1.7800 O.2       1 RES1    0.0000
      4 N1         3.2966    2.9154    2.1552 N.pl3     1 RES1    0.0000
      5 C1         4.1021    2.5041    0.9066 C.3       1 RES1    0.0000
      6 C2         5.2409    3.4972    0.6935 C.3       1 RES1    0.0000
      7 C3         3.1596    2.5008   -0.2940 C.3       1 RES1    0.0000
      8 C4         4.5944    1.0756    1.2053 C.3       1 RES1    0.0000
      9 C5         5.3914    0.9211    2.4856 C.3       1 RES1    0.0000
     10 C6         6.1140   -0.4028    2.5876 C.2       1 RES1    0.0000
     11 C7         7.0554   -0.5377    3.7512 C.3       1 RES1    0.0000
     12 H1         5.7742    3.1310   -0.0127 H         1 RES1    0.0000
     13 H2         5.8085    3.5839    1.4880 H         1 RES1    0.0000
     14 H3         2.3902    1.9582   -0.1027 H         1 RES1    0.0000
     15 H4         3.6540    2.0983   -1.0475 H         1 RES1    0.0000
     16 H5         5.1064    0.8147    0.4414 H         1 RES1    0.0000
     17 H6         3.8582    0.4814    1.2053 H         1 RES1    0.0000
     18 H7         6.0595    1.5762    2.5720 H         1 RES1    0.0000
     19 H8         4.8607    0.9939    3.2765 H         1 RES1    0.0000
     20 H9         6.5637   -0.3791    4.6177 H         1 RES1    0.0000
     21 H10        7.7565    0.1096    3.6585 H         1 RES1    0.0000
     22 H11        7.4252   -1.4231    3.7858 H         1 RES1    0.0000
     23 O1A        4.1068    3.7536   -2.9857 O.2       1 RES1    0.0000
     24 O2A        5.7396    4.9714   -2.2947 O.2       1 RES1    0.0000
     25 O3A        1.9714    8.6852   -1.7800 O.2       1 RES1    0.0000
     26 N1A        4.6235    4.4826   -2.1552 N.pl3     1 RES1    0.0000
     27 C1A        3.8180    4.8939   -0.9066 C.3       1 RES1    0.0000
     28 C2A        2.6792    3.9008   -0.6935 C.3       1 RES1    0.0000
     29 C3A        4.7605    4.8973    0.2940 C.3       1 RES1    0.0000
     30 C4A        3.3257    6.3224   -1.2053 C.3       1 RES1    0.0000
     31 C5A        2.5287    6.4769   -2.4856 C.3       1 RES1    0.0000
     32 C6A        1.8061    7.8008   -2.5876 C.2       1 RES1    0.0000
     33 C7A        0.8647    7.9358   -3.7512 C.3       1 RES1    0.0000
     34 H1A        2.1459    4.2671    0.0127 H         1 RES1    0.0000
     35 H2A        2.1116    3.8141   -1.4880 H         1 RES1    0.0000
     36 H3A        5.5299    5.4399    0.1027 H         1 RES1    0.0000
     37 H4A        4.2661    5.2997    1.0475 H         1 RES1    0.0000
     38 H5A        2.8137    6.5833   -0.4414 H         1 RES1    0.0000
     39 H6A        4.0619    6.9166   -1.2053 H         1 RES1    0.0000
     40 H7A        1.8606    5.8219   -2.5720 H         1 RES1    0.0000
     41 H8A        3.0594    6.4041   -3.2765 H         1 RES1    0.0000
     42 H9A        1.3564    7.7771   -4.6177 H         1 RES1    0.0000
     43 H10A       0.1636    7.2884   -3.6585 H         1 RES1    0.0000
     44 H11A       0.4949    8.8211   -3.7858 H         1 RES1    0.0000
@<TRIPOS>BOND
     1    1    4 2
     2    2    4 2
     3    3   10 2
     4    4    5 1
     5    5    6 1
     6    6   12 1
     7    7    5 1
     8    8    5 1
     9    9    8 1
    10   10    9 1
    11   11   10 1
    12   13    6 1
    13   14    7 1
    14   15    7 1
    15   16    8 1
    16   17    8 1
    17   18    9 1
    18   19    9 1
    19   20   11 1
    20   21   11 1
    21   22   11 1
    22   23   26 2
    23   24   26 2
    24   25   32 2
    25   26   27 1
    26   27   28 1
    27   28    7 1
    28   29    6 1
    29   30   27 1
    30   31   30 1
    31   32   31 1
    32   33   32 1
    33   34   28 1
    34   35   28 1
    35   36   29 1
    36   37   29 1
    37   38   30 1
    38   39   30 1
    39   40   31 1
    40   41   31 1
    41   42   33 1
    42   43   33 1
    43   44   33 1
    44   27   29 1
@<TRIPOS>SUBSTRUCTURE
     1 RES1 1

@<TRIPOS>CRYSIN
   6.1523    7.6063    9.4013  64.6020  82.6650  76.5610   2 1

