# MOL2 file generated by ConQuest
# Please check atom types

@<TRIPOS>MOLECULE
MAYKEF
    78    82     2
SMALL
NO_CHARGES
****
Generated from CSD

@<TRIPOS>ATOM
      1 C1         1.8819    3.4828    2.1105 C.3       1 RES1    0.0000
      2 H1         2.3144    2.6875    1.7921 H         1 RES1    0.0000
      3 H2         2.3021    4.2543    1.7212 H         1 RES1    0.0000
      4 H3         0.9553    3.4653    1.8631 H         1 RES1    0.0000
      5 C2         2.0010    3.5542    3.6265 C.3       1 RES1    0.0000
      6 H4         2.9575    3.6066    3.8326 H         1 RES1    0.0000
      7 C3         1.3477    4.7622    4.2727 C.3       1 RES1    0.0000
      8 H5         1.9099    5.5480    4.1903 H         1 RES1    0.0000
      9 H6         0.4841    4.9480    3.8719 H         1 RES1    0.0000
     10 C4         0.2925    5.1564    6.5050 C.3       1 RES1    0.0000
     11 H7        -0.6151    5.0718    6.1713 H         1 RES1    0.0000
     12 H8         0.5444    6.0925    6.4686 H         1 RES1    0.0000
     13 C5         0.3631    4.6586    7.9347 C.3       1 RES1    0.0000
     14 H9         1.2525    4.9019    8.2674 H         1 RES1    0.0000
     15 C6         0.2607    3.1547    8.0584 C.3       1 RES1    0.0000
     16 H10        0.6060    2.8732    8.9310 H         1 RES1    0.0000
     17 C7         0.9148    2.3338    6.9662 C.3       1 RES1    0.0000
     18 H11        1.8697    2.2049    7.1484 H         1 RES1    0.0000
     19 C8         0.7058    2.9859    5.6209 C.3       1 RES1    0.0000
     20 H12       -0.2543    3.0034    5.4244 H         1 RES1    0.0000
     21 C9         1.4350    2.3662    4.4386 C.3       1 RES1    0.0000
     22 H13        2.1728    1.8096    4.7637 H         1 RES1    0.0000
     23 C10       -1.0552    1.3287    7.6681 C.3       1 RES1    0.0000
     24 C11       -1.0351    0.5651    8.9942 C.3       1 RES1    0.0000
     25 H14       -0.2654    0.8302    9.5034 H         1 RES1    0.0000
     26 H15       -0.9949   -0.3778    8.8197 H         1 RES1    0.0000
     27 H16       -1.8317    0.7651    9.4900 H         1 RES1    0.0000
     28 C12       -2.1673    0.9890    6.7188 C.3       1 RES1    0.0000
     29 H17       -3.0114    1.1017    7.1618 H         1 RES1    0.0000
     30 H18       -2.0757    0.0778    6.4312 H         1 RES1    0.0000
     31 H19       -2.1262    1.5699    5.9565 H         1 RES1    0.0000
     32 N1         1.2015    4.3638    5.6794 N.3       1 RES1    0.0000
     33 N2         0.4927    1.5271    3.6274 N.pl3     1 RES1    0.0000
     34 O1        -0.5721    5.3193    8.7795 O.3       1 RES1    0.0000
     35 O2        -1.1003    2.7311    7.9232 O.3       1 RES1    0.0000
     36 O3         0.2131    1.0956    7.0266 O.3       1 RES1    0.0000
     37 O4        -0.5685    2.0192    3.2774 O.2       1 RES1    0.0000
     38 O5         0.8449    0.4000    3.3426 O.2       1 RES1    0.0000
     39 H20       -1.3252    4.9051    8.7353 H         1 RES1    0.0000
     40 C13        5.7429    5.2321   13.0771 C.3       2 RES2    0.0000
     41 H21        4.8046    5.1289   13.2516 H         2 RES2    0.0000
     42 H22        6.0653    6.0226   13.5163 H         2 RES2    0.0000
     43 H23        6.2164    4.4654   13.4108 H         2 RES2    0.0000
     44 C14        5.9696    5.3543   11.5813 C.3       2 RES2    0.0000
     45 H24        6.9364    5.4401   11.4470 H         2 RES2    0.0000
     46 C15        5.5144    4.1622   10.7567 C.3       2 RES2    0.0000
     47 H25        6.1316    3.4193   10.8449 H         2 RES2    0.0000
     48 H26        4.6277    3.8701   11.0223 H         2 RES2    0.0000
     49 C16        4.7710    3.9126    8.4007 C.3       2 RES2    0.0000
     50 H27        3.8254    3.9146    8.6184 H         2 RES2    0.0000
     51 H28        5.0821    2.9939    8.3988 H         2 RES2    0.0000
     52 C17        4.9894    4.5365    7.0362 C.3       2 RES2    0.0000
     53 H29        5.9119    4.3289    6.7783 H         2 RES2    0.0000
     54 C18        4.8653    6.0504    7.0151 C.3       2 RES2    0.0000
     55 H30        5.3235    6.4084    6.2269 H         2 RES2    0.0000
     56 C19        3.4443    7.8232    7.3565 C.3       2 RES2    0.0000
     57 C20        3.5203    8.7085    6.1464 C.3       2 RES2    0.0000
     58 H31        4.2593    8.4371    5.5979 H         2 RES2    0.0000
     59 H32        3.6439    9.6181    6.4225 H         2 RES2    0.0000
     60 H33        2.7053    8.6339    5.6439 H         2 RES2    0.0000
     61 C21        2.2232    8.0752    8.1965 C.3       2 RES2    0.0000
     62 H34        1.4362    7.9831    7.6537 H         2 RES2    0.0000
     63 H35        2.2603    8.9641    8.5580 H         2 RES2    0.0000
     64 H36        2.1911    7.4386    8.9156 H         2 RES2    0.0000
     65 C22        5.3303    6.8019    8.2665 C.3       2 RES2    0.0000
     66 H37        6.2997    6.9449    8.2530 H         2 RES2    0.0000
     67 C23        4.9136    6.0212    9.4842 C.3       2 RES2    0.0000
     68 H38        3.9387    5.9210    9.4641 H         2 RES2    0.0000
     69 C24        5.3089    6.5541   10.8593 C.3       2 RES2    0.0000
     70 H39        5.9464    7.2926   10.7701 H         2 RES2    0.0000
     71 N3         5.5104    4.6865    9.3912 N.3       2 RES2    0.0000
     72 N4         4.0847    7.0035   11.6264 N.pl3     2 RES2    0.0000
     73 O6         4.1466    8.0339   12.2477 O.2       2 RES2    0.0000
     74 O7         3.1092    6.2950   11.6465 O.2       2 RES2    0.0000
     75 O8         4.1533    3.9434    6.0562 O.3       2 RES2    0.0000
     76 O9         3.4821    6.4422    6.9912 O.3       2 RES2    0.0000
     77 O10        4.6267    8.0398    8.1639 O.3       2 RES2    0.0000
     78 H40        3.3225    4.2066    6.1560 H         2 RES2    0.0000
@<TRIPOS>BOND
     1    1    2 1
     2    3    1 1
     3    4    1 1
     4    5    1 1
     5    6    5 1
     6    7    5 1
     7    8    7 1
     8    9    7 1
     9   10   11 1
    10   12   10 1
    11   13   10 1
    12   14   13 1
    13   15   13 1
    14   16   15 1
    15   17   15 1
    16   18   17 1
    17   19   17 1
    18   20   19 1
    19   21    5 1
    20   22   21 1
    21   23   24 1
    22   24   25 1
    23   26   24 1
    24   27   24 1
    25   28   23 1
    26   29   28 1
    27   30   28 1
    28   31   28 1
    29   32    7 1
    30   33   21 1
    31   34   13 1
    32   35   15 1
    33   36   17 1
    34   37   33 2
    35   38   33 2
    36   39   34 1
    37   40   41 1
    38   42   40 1
    39   43   40 1
    40   44   40 1
    41   45   44 1
    42   46   44 1
    43   47   46 1
    44   48   46 1
    45   49   50 1
    46   51   49 1
    47   52   49 1
    48   53   52 1
    49   54   52 1
    50   55   54 1
    51   56   57 1
    52   57   58 1
    53   59   57 1
    54   60   57 1
    55   61   56 1
    56   62   61 1
    57   63   61 1
    58   64   61 1
    59   65   54 1
    60   66   65 1
    61   67   65 1
    62   68   67 1
    63   69   44 1
    64   70   69 1
    65   71   46 1
    66   72   69 1
    67   73   72 2
    68   74   72 2
    69   75   52 1
    70   76   54 1
    71   77   56 1
    72   78   75 1
    73   10   32 1
    74   19   21 1
    75   19   32 1
    76   23   35 1
    77   23   36 1
    78   49   71 1
    79   56   76 1
    80   65   77 1
    81   67   69 1
    82   67   71 1
@<TRIPOS>SUBSTRUCTURE
     1 RES1 1
     2 RES2 40

@<TRIPOS>CRYSIN
   9.1182   15.8741    9.6224  90.0000  94.7936  90.0000   4 1

