# MOL2 file generated by ConQuest
# Please check atom types

@<TRIPOS>MOLECULE
MAYKOP
   156   164     4
SMALL
NO_CHARGES
****
Generated from CSD

@<TRIPOS>ATOM
      1 C1         1.3903    3.6103    4.9938 C.3       1 RES1    0.0000
      2 C2         1.2901    3.9308    2.7272 C.3       1 RES1    0.0000
      3 H1         0.5477    3.3198    2.5398 H         1 RES1    0.0000
      4 C3         1.3863    4.9737    1.6073 C.3       1 RES1    0.0000
      5 H2         0.7669    5.6997    1.8313 H         1 RES1    0.0000
      6 C4         2.7718    5.5878    1.4622 C.3       1 RES1    0.0000
      7 H3         2.8370    6.0376    0.6057 H         1 RES1    0.0000
      8 H4         2.9043    6.2502    2.1581 H         1 RES1    0.0000
      9 C5         5.1872    5.0629    1.4326 C.3       1 RES1    0.0000
     10 H5         5.3316    5.8450    1.9876 H         1 RES1    0.0000
     11 H6         5.4003    5.2819    0.5128 H         1 RES1    0.0000
     12 C6         6.0084    3.8895    1.9200 C.3       1 RES1    0.0000
     13 H7         6.0328    3.2363    1.1889 H         1 RES1    0.0000
     14 C7         5.1185    3.2836    3.0357 C.3       1 RES1    0.0000
     15 H8         5.0103    2.3200    2.8906 H         1 RES1    0.0000
     16 C8         3.7726    3.9841    2.9019 C.3       1 RES1    0.0000
     17 H9         3.7246    4.7059    3.5625 H         1 RES1    0.0000
     18 C9         2.5442    3.1260    3.0287 C.3       1 RES1    0.0000
     19 H10        2.6041    2.3449    2.4384 H         1 RES1    0.0000
     20 C10        0.1589    2.7764    5.3530 C.3       1 RES1    0.0000
     21 H11       -0.4744    3.3279    5.8192 H         1 RES1    0.0000
     22 H12        0.4217    2.0454    5.9164 H         1 RES1    0.0000
     23 H13       -0.2420    2.4356    4.5514 H         1 RES1    0.0000
     24 C11        2.0264    4.3305    6.1390 C.3       1 RES1    0.0000
     25 H14        2.7981    4.8093    5.8277 H         1 RES1    0.0000
     26 H15        2.2923    3.6958    6.8081 H         1 RES1    0.0000
     27 H16        1.3969    4.9494    6.5165 H         1 RES1    0.0000
     28 C12        7.4493    4.2067    2.2750 C.3       1 RES1    0.0000
     29 H17        7.9063    4.5336    1.4974 H         1 RES1    0.0000
     30 H18        7.8841    3.4108    2.5906 H         1 RES1    0.0000
     31 H19        7.4689    4.8763    2.9624 H         1 RES1    0.0000
     32 N1         3.8143    4.5742    1.5552 N.3       1 RES1    0.0000
     33 N2         5.7105    3.5335    4.3993 N.pl3     1 RES1    0.0000
     34 O1         1.0747    4.5655    3.9739 O.3       1 RES1    0.0000
     35 O2         2.3534    2.7223    4.3838 O.3       1 RES1    0.0000
     36 O3         0.9406    4.3986    0.3888 O.3       1 RES1    0.0000
     37 O4         6.1347    2.5871    5.0219 O.2       1 RES1    0.0000
     38 O5         5.7308    4.6710    4.8134 O.2       1 RES1    0.0000
     39 H20        1.6070    3.7460    0.0563 H         1 RES1    0.0000
     40 C13        6.9009    8.9702    2.1750 C.3       2 RES2    0.0000
     41 C14        6.7793    8.7510    4.4585 C.3       2 RES2    0.0000
     42 H21        5.9775    9.2934    4.6106 H         2 RES2    0.0000
     43 C15        6.9499    7.7753    5.6009 C.3       2 RES2    0.0000
     44 H22        6.3428    7.0228    5.4474 H         2 RES2    0.0000
     45 C16        8.3608    7.2261    5.6967 C.3       2 RES2    0.0000
     46 H23        8.4709    6.7528    6.5363 H         2 RES2    0.0000
     47 H24        8.5187    6.6004    4.9726 H         2 RES2    0.0000
     48 C17       10.7137    7.9214    5.7375 C.3       2 RES2    0.0000
     49 H25       10.9051    7.1540    5.1769 H         2 RES2    0.0000
     50 H26       10.9352    7.7022    6.6560 H         2 RES2    0.0000
     51 C18       11.4823    9.1372    5.2713 C.3       2 RES2    0.0000
     52 H27       11.5404    9.7575    6.0277 H         2 RES2    0.0000
     53 C19       10.5194    9.7645    4.2246 C.3       2 RES2    0.0000
     54 H28       10.3145   10.6870    4.4824 H         2 RES2    0.0000
     55 C20        9.2544    8.9270    4.2993 C.3       2 RES2    0.0000
     56 H29        9.3081    8.2189    3.6245 H         2 RES2    0.0000
     57 C21        7.9421    9.6556    4.1345 C.3       2 RES2    0.0000
     58 H30        7.9206   10.4562    4.6979 H         2 RES2    0.0000
     59 C22        5.6164    9.5907    1.7003 C.3       2 RES2    0.0000
     60 H31        5.1708   10.0103    2.4398 H         2 RES2    0.0000
     61 H32        5.0500    8.9101    1.3298 H         2 RES2    0.0000
     62 H33        5.8078   10.2485    1.0269 H         2 RES2    0.0000
     63 C23        7.6698    8.2489    1.0903 C.3       2 RES2    0.0000
     64 H34        8.4969    7.9191    1.4495 H         2 RES2    0.0000
     65 H35        7.8540    8.8571    0.3705 H         2 RES2    0.0000
     66 H36        7.1468    7.5138    0.7621 H         2 RES2    0.0000
     67 C24       12.8990    8.8361    4.8177 C.3       2 RES2    0.0000
     68 H37       13.3991    8.4722    5.5502 H         2 RES2    0.0000
     69 H38       13.3166    9.6460    4.5162 H         2 RES2    0.0000
     70 H39       12.8763    8.2006    4.0978 H         2 RES2    0.0000
     71 N3         9.3212    8.3175    5.6206 N.3       2 RES2    0.0000
     72 N4        11.1049    9.7515    2.8371 N.pl3     2 RES2    0.0000
     73 O6         6.6431    8.0363    3.2290 O.3       2 RES2    0.0000
     74 O7         7.7156   10.0029    2.7614 O.3       2 RES2    0.0000
     75 O8         6.5762    8.4024    6.8264 O.3       2 RES2    0.0000
     76 O9        11.1991    8.6725    2.2666 O.2       2 RES2    0.0000
     77 O10       11.4906   10.7891    2.3891 O.2       2 RES2    0.0000
     78 H40        7.0464    8.9037    6.9166 H         2 RES2    0.0000
     79 C25        6.5248    4.8845    9.2156 C.3       3 RES3    0.0000
     80 C26        6.3919    4.6036   11.4878 C.3       3 RES3    0.0000
     81 H41        5.6209    5.1870   11.6498 H         3 RES3    0.0000
     82 C27        6.5054    3.5888   12.6119 C.3       3 RES3    0.0000
     83 H42        5.8701    2.8644   12.4273 H         3 RES3    0.0000
     84 C28        7.8768    2.9831   12.7147 C.3       3 RES3    0.0000
     85 H43        7.9530    2.4883   13.5458 H         3 RES3    0.0000
     86 H44        8.0155    2.3644   11.9808 H         3 RES3    0.0000
     87 C29       10.2651    3.5534   12.8077 C.3       3 RES3    0.0000
     88 H45       10.4235    2.7769   12.2484 H         3 RES3    0.0000
     89 H46       10.4660    3.3263   13.7290 H         3 RES3    0.0000
     90 C30       11.0976    4.7377   12.3442 C.3       3 RES3    0.0000
     91 H47       11.1720    5.3579   13.0993 H         3 RES3    0.0000
     92 C31       10.1904    5.4025   11.2849 C.3       3 RES3    0.0000
     93 H48       10.0437    6.3411   11.5230 H         3 RES3    0.0000
     94 C32        8.8683    4.6528   11.3483 C.3       3 RES3    0.0000
     95 H49        8.8765    3.9463   10.6693 H         3 RES3    0.0000
     96 C33        7.6125    5.4489   11.1919 C.3       3 RES3    0.0000
     97 H50        7.6320    6.2401   11.7709 H         3 RES3    0.0000
     98 C34        5.2795    5.6022    8.7831 C.3       3 RES3    0.0000
     99 H51        4.8658    6.0132    9.5452 H         3 RES3    0.0000
    100 H52        4.6693    4.9739    8.3873 H         3 RES3    0.0000
    101 H53        5.5054    6.2767    8.1393 H         3 RES3    0.0000
    102 C35        7.2395    4.1522    8.1069 C.3       3 RES3    0.0000
    103 H54        7.5098    4.7790    7.4322 H         3 RES3    0.0000
    104 H55        6.6494    3.5015    7.7210 H         3 RES3    0.0000
    105 H56        8.0141    3.7102    8.4619 H         3 RES3    0.0000
    106 C36       12.5080    4.3633   11.9202 C.3       3 RES3    0.0000
    107 H57       12.9803    3.9941   12.6696 H         3 RES3    0.0000
    108 H58       12.9668    5.1462   11.6075 H         3 RES3    0.0000
    109 H59       12.4676    3.7122   11.2159 H         3 RES3    0.0000
    110 N5         8.8908    4.0262   12.6725 N.3       3 RES3    0.0000
    111 N6        10.7832    5.3222    9.9002 N.pl3     3 RES3    0.0000
    112 O11        6.2248    3.9292   10.2439 O.3       3 RES3    0.0000
    113 O12        7.4115    5.8319    9.8255 O.3       3 RES3    0.0000
    114 O13        6.1329    4.1912   13.8445 O.3       3 RES3    0.0000
    115 O14       10.8540    4.2302    9.3677 O.2       3 RES3    0.0000
    116 O15       11.2071    6.3379    9.4226 O.2       3 RES3    0.0000
    117 H60        6.7047    4.7216   14.1572 H         3 RES3    0.0000
    118 C37        5.0654    9.7986   12.0371 C.3       4 RES4    0.0000
    119 C38        4.9444   10.0078    9.7565 C.3       4 RES4    0.0000
    120 H61        4.1718    9.4234    9.6128 H         4 RES4    0.0000
    121 C39        5.0742   10.9813    8.5859 C.3       4 RES4    0.0000
    122 H62        4.4754   11.7363    8.7606 H         4 RES4    0.0000
    123 C40        6.4770   11.5360    8.4154 C.3       4 RES4    0.0000
    124 H63        6.5559   11.9426    7.5392 H         4 RES4    0.0000
    125 H64        6.6303   12.2266    9.0803 H         4 RES4    0.0000
    126 C41        8.8842   10.9288    8.4352 C.3       4 RES4    0.0000
    127 H65        9.0522   11.7233    8.9648 H         4 RES4    0.0000
    128 H66        9.1138   11.1082    7.5097 H         4 RES4    0.0000
    129 C42        9.6548    9.7454    8.9676 C.3       4 RES4    0.0000
    130 H67        9.6601    9.0681    8.2591 H         4 RES4    0.0000
    131 C43        8.7340    9.2073   10.0946 C.3       4 RES4    0.0000
    132 H68        8.5829    8.2472    9.9706 H         4 RES4    0.0000
    133 C44        7.4269    9.9593    9.9284 C.3       4 RES4    0.0000
    134 H69        7.4095   10.7075   10.5608 H         4 RES4    0.0000
    135 C45        6.1653    9.1662   10.0847 C.3       4 RES4    0.0000
    136 H70        6.1903    8.3595    9.5297 H         4 RES4    0.0000
    137 C46        3.7973    9.0743   12.4400 C.3       4 RES4    0.0000
    138 H71        3.2147    9.6827   12.9021 H         4 RES4    0.0000
    139 H72        4.0185    8.3420   13.0190 H         4 RES4    0.0000
    140 H73        3.3561    8.7417   11.6554 H         4 RES4    0.0000
    141 C47        5.7782   10.5477   13.1500 C.3       4 RES4    0.0000
    142 H74        6.5373   11.0114   12.7880 H         4 RES4    0.0000
    143 H75        6.0731    9.9252   13.8177 H         4 RES4    0.0000
    144 H76        5.1757   11.1813   13.5472 H         4 RES4    0.0000
    145 C48       11.1142   10.0248    9.3240 C.3       4 RES4    0.0000
    146 H77       11.5871   10.3087    8.5380 H         4 RES4    0.0000
    147 H78       11.5182    9.2251    9.6692 H         4 RES4    0.0000
    148 H79       11.1542   10.7163    9.9889 H         4 RES4    0.0000
    149 N7         7.4963   10.4966    8.5591 N.3       4 RES4    0.0000
    150 N8         9.3120    9.4624   11.4582 N.pl3     4 RES4    0.0000
    151 O16        4.7825   10.7197   10.9792 O.3       4 RES4    0.0000
    152 O17        5.9628    8.8313   11.4582 O.3       4 RES4    0.0000
    153 O18        4.6301   10.3452    7.4068 O.3       4 RES4    0.0000
    154 O19        9.4131   10.6045   11.8413 O.2       4 RES4    0.0000
    155 O20        9.6436    8.5098   12.1245 O.2       4 RES4    0.0000
    156 H80        5.1573    9.7276    7.1279 H         4 RES4    0.0000
@<TRIPOS>BOND
     1    1   20 1
     2    2    3 1
     3    4    2 1
     4    5    4 1
     5    6    4 1
     6    7    6 1
     7    8    6 1
     8    9   10 1
     9   11    9 1
    10   12    9 1
    11   13   12 1
    12   14   12 1
    13   15   14 1
    14   16   14 1
    15   17   16 1
    16   18    2 1
    17   19   18 1
    18   20   21 1
    19   22   20 1
    20   23   20 1
    21   24    1 1
    22   25   24 1
    23   26   24 1
    24   27   24 1
    25   28   12 1
    26   29   28 1
    27   30   28 1
    28   31   28 1
    29   32    6 1
    30   33   14 1
    31   34    1 1
    32   35    1 1
    33   36    4 1
    34   37   33 2
    35   38   33 2
    36   39   36 1
    37   40   59 1
    38   41   42 1
    39   43   41 1
    40   44   43 1
    41   45   43 1
    42   46   45 1
    43   47   45 1
    44   48   49 1
    45   50   48 1
    46   51   48 1
    47   52   51 1
    48   53   51 1
    49   54   53 1
    50   55   53 1
    51   56   55 1
    52   57   41 1
    53   58   57 1
    54   59   60 1
    55   61   59 1
    56   62   59 1
    57   63   40 1
    58   64   63 1
    59   65   63 1
    60   66   63 1
    61   67   51 1
    62   68   67 1
    63   69   67 1
    64   70   67 1
    65   71   45 1
    66   72   53 1
    67   73   40 1
    68   74   40 1
    69   75   43 1
    70   76   72 2
    71   77   72 2
    72   78   75 1
    73   79   98 1
    74   80   81 1
    75   82   80 1
    76   83   82 1
    77   84   82 1
    78   85   84 1
    79   86   84 1
    80   87   88 1
    81   89   87 1
    82   90   87 1
    83   91   90 1
    84   92   90 1
    85   93   92 1
    86   94   92 1
    87   95   94 1
    88   96   80 1
    89   97   96 1
    90   98   99 1
    91  100   98 1
    92  101   98 1
    93  102   79 1
    94  103  102 1
    95  104  102 1
    96  105  102 1
    97  106   90 1
    98  107  106 1
    99  108  106 1
   100  109  106 1
   101  110   84 1
   102  111   92 1
   103  112   79 1
   104  113   79 1
   105  114   82 1
   106  115  111 2
   107  116  111 2
   108  117  114 1
   109  118  137 1
   110  119  120 1
   111  121  119 1
   112  122  121 1
   113  123  121 1
   114  124  123 1
   115  125  123 1
   116  126  127 1
   117  128  126 1
   118  129  126 1
   119  130  129 1
   120  131  129 1
   121  132  131 1
   122  133  131 1
   123  134  133 1
   124  135  119 1
   125  136  135 1
   126  137  138 1
   127  139  137 1
   128  140  137 1
   129  141  118 1
   130  142  141 1
   131  143  141 1
   132  144  141 1
   133  145  129 1
   134  146  145 1
   135  147  145 1
   136  148  145 1
   137  149  123 1
   138  150  131 1
   139  151  118 1
   140  152  118 1
   141  153  121 1
   142  154  150 2
   143  155  150 2
   144  156  153 1
   145    2   34 1
   146    9   32 1
   147   16   18 1
   148   16   32 1
   149   18   35 1
   150   41   73 1
   151   48   71 1
   152   55   57 1
   153   55   71 1
   154   57   74 1
   155   80  112 1
   156   87  110 1
   157   94   96 1
   158   94  110 1
   159   96  113 1
   160  119  151 1
   161  126  149 1
   162  133  135 1
   163  133  149 1
   164  135  152 1
@<TRIPOS>SUBSTRUCTURE
     1 RES1 1
     2 RES2 40
     3 RES3 79
     4 RES4 118

@<TRIPOS>CRYSIN
   9.7953   10.7615   14.5409  79.8911  77.2630  72.1760   1 1

