# MOL2 file generated by ConQuest
# Please check atom types

@<TRIPOS>MOLECULE
MAYKAB
    40    41     1
SMALL
NO_CHARGES
****
Generated from CSD

@<TRIPOS>ATOM
      1 C1         3.3021    7.4219   16.2069 C.3       1 RES1    0.0000
      2 H1         2.9252    7.8565   16.9995 H         1 RES1    0.0000
      3 C2         1.5494    6.9564   14.6599 C.3       1 RES1    0.0000
      4 H2         0.7787    7.1169   15.2438 H         1 RES1    0.0000
      5 C3         2.1610    5.6073   15.0345 C.3       1 RES1    0.0000
      6 H3         2.7131    5.2453   14.3092 H         1 RES1    0.0000
      7 C4         1.2649    4.5376   16.8932 C.3       1 RES1    0.0000
      8 C5         2.9919    5.9321   16.2633 C.3       1 RES1    0.0000
      9 H4         3.8020    5.3841   16.3214 H         1 RES1    0.0000
     10 C6         4.7993    7.7507   16.1207 C.3       1 RES1    0.0000
     11 H5         4.9086    8.7239   16.0887 H         1 RES1    0.0000
     12 C7         5.4832    7.1408   14.9183 C.3       1 RES1    0.0000
     13 H6         5.4824    6.1846   15.0001 H         1 RES1    0.0000
     14 H7         6.3889    7.4573   14.8700 H         1 RES1    0.0000
     15 H8         5.0138    7.3944   14.1204 H         1 RES1    0.0000
     16 C8         2.1481    9.3063   15.0906 C.3       1 RES1    0.0000
     17 H9         1.8556    9.5953   14.2120 H         1 RES1    0.0000
     18 H10        2.9019    9.8598   15.3464 H         1 RES1    0.0000
     19 C9         1.0511    9.5221   16.0522 C.1       1 RES1    0.0000
     20 C10        0.1680    9.5903   16.8184 C.1       1 RES1    0.0000
     21 H11       -0.5336    9.6452   17.4265 H         1 RES1    0.0000
     22 C11        1.0937    7.1149   13.2100 C.3       1 RES1    0.0000
     23 H12        0.5481    6.3543   12.9549 H         1 RES1    0.0000
     24 H13        0.5529    7.9164   13.1253 H         1 RES1    0.0000
     25 C12       -0.0964    4.6824   17.5126 C.3       1 RES1    0.0000
     26 H14       -0.4766    5.5248   17.2560 H         1 RES1    0.0000
     27 H15       -0.0185    4.6434   18.4692 H         1 RES1    0.0000
     28 H16       -0.6630    3.9697   17.2084 H         1 RES1    0.0000
     29 C13        1.9400    3.2280   17.2243 C.3       1 RES1    0.0000
     30 H17        2.0372    3.1502   18.1760 H         1 RES1    0.0000
     31 H18        2.8063    3.2021   16.8107 H         1 RES1    0.0000
     32 H19        1.4064    2.5014   16.8950 H         1 RES1    0.0000
     33 N1         2.5919    7.9123   15.0063 N.3       1 RES1    0.0000
     34 N2         2.2759    7.2100   12.2997 N.pl3     1 RES1    0.0000
     35 O1         5.4512    7.2524   17.2832 O.3       1 RES1    0.0000
     36 O2         2.8473    6.1846   11.9949 O.2       1 RES1    0.0000
     37 O3         2.6198    8.3147   11.9275 O.2       1 RES1    0.0000
     38 O4         1.1755    4.6737   15.4619 O.3       1 RES1    0.0000
     39 O5         2.0591    5.6467   17.3204 O.3       1 RES1    0.0000
     40 H20        5.4888    7.8156   17.9048 H         1 RES1    0.0000
@<TRIPOS>BOND
     1    1    2 1
     2    3    4 1
     3    5    3 1
     4    6    5 1
     5    7   25 1
     6    8    1 1
     7    9    8 1
     8   10    1 1
     9   11   10 1
    10   12   10 1
    11   13   12 1
    12   14   12 1
    13   15   12 1
    14   16   17 1
    15   18   16 1
    16   19   16 1
    17   20   19 3
    18   21   20 1
    19   22    3 1
    20   23   22 1
    21   24   22 1
    22   25   26 1
    23   27   25 1
    24   28   25 1
    25   29    7 1
    26   30   29 1
    27   31   29 1
    28   32   29 1
    29   33    1 1
    30   34   22 1
    31   35   10 1
    32   36   34 2
    33   37   34 2
    34   38    5 1
    35   39    7 1
    36   40   35 1
    37    3   33 1
    38    5    8 1
    39    7   38 1
    40    8   39 1
    41   16   33 1
@<TRIPOS>SUBSTRUCTURE
     1 RES1 1

@<TRIPOS>CRYSIN
   8.0363    9.9816   18.3263  90.0000  90.0000  90.0000  19 1

