# MOL2 file generated by ConQuest
# Please check atom types

@<TRIPOS>MOLECULE
MAYLAC
    39    41     1
SMALL
NO_CHARGES
****
Generated from CSD

@<TRIPOS>ATOM
      1 C1         1.1956    3.4052   12.2304 C.2       1 RES1    0.0000
      2 C2         2.3964    4.2234   12.6375 C.3       1 RES1    0.0000
      3 H1         2.1334    5.1658   12.6948 H         1 RES1    0.0000
      4 C3         3.3309    4.0412   11.4303 C.3       1 RES1    0.0000
      5 H2         3.8096    4.8624   11.2350 H         1 RES1    0.0000
      6 H3         3.9732    3.3331   11.5924 H         1 RES1    0.0000
      7 C4         3.0367    3.1724    9.1192 C.3       1 RES1    0.0000
      8 H4         3.4149    2.2939    9.2772 H         1 RES1    0.0000
      9 H5         3.7438    3.7637    8.8164 H         1 RES1    0.0000
     10 C5         1.9401    3.0935    8.0845 C.3       1 RES1    0.0000
     11 H6         1.6255    4.0055    7.9113 H         1 RES1    0.0000
     12 C6         0.7615    2.2791    8.5384 C.3       1 RES1    0.0000
     13 H7         0.0115    2.4256    7.9251 H         1 RES1    0.0000
     14 C7         0.0295    0.2946    9.4295 C.3       1 RES1    0.0000
     15 C8         0.3012    2.5409    9.9736 C.3       1 RES1    0.0000
     16 H8        -0.2952    3.3182   10.0029 H         1 RES1    0.0000
     17 C9         1.4769    2.7462   10.9076 C.3       1 RES1    0.0000
     18 H9         1.9218    1.8863   11.0626 H         1 RES1    0.0000
     19 C10        3.0011    3.8024   13.9574 C.3       1 RES1    0.0000
     20 H10        2.3268    3.8619   14.6526 H         1 RES1    0.0000
     21 H11        3.2899    2.8786   13.8979 H         1 RES1    0.0000
     22 C11       -1.1521   -0.1555    8.5943 C.3       1 RES1    0.0000
     23 H12       -1.4592    0.5765    8.0548 H         1 RES1    0.0000
     24 H13       -1.8613   -0.4455    9.1737 H         1 RES1    0.0000
     25 H14       -0.8850   -0.8814    8.0272 H         1 RES1    0.0000
     26 C12        0.6487   -0.8123   10.2223 C.3       1 RES1    0.0000
     27 H15        0.9844   -1.4847    9.6249 H         1 RES1    0.0000
     28 H16       -0.0123   -1.1998   10.8004 H         1 RES1    0.0000
     29 H17        1.3706   -0.4634   10.7494 H         1 RES1    0.0000
     30 N1         0.0497    3.3197   12.7800 N.2       1 RES1    0.0000
     31 N2         2.4333    3.6908   10.3422 N.3       1 RES1    0.0000
     32 O1         4.1096    4.6214   14.3063 O.3       1 RES1    0.0000
     33 O2         2.4136    2.5513    6.8489 O.3       1 RES1    0.0000
     34 O3         1.0500    0.8770    8.6079 O.3       1 RES1    0.0000
     35 O4        -0.4182    1.3530   10.2967 O.3       1 RES1    0.0000
     36 O5         0.0081    4.0546   13.9872 O.3       1 RES1    0.0000
     37 H18       -0.8826    4.1282   14.1393 H         1 RES1    0.0000
     38 H19        2.7016    3.2133    6.4019 H         1 RES1    0.0000
     39 H20        3.7936    5.2737   14.6940 H         1 RES1    0.0000
@<TRIPOS>BOND
     1    1    2 1
     2    2    3 1
     3    4    2 1
     4    5    4 1
     5    6    4 1
     6    7    8 1
     7    9    7 1
     8   10    7 1
     9   11   10 1
    10   12   10 1
    11   13   12 1
    12   14   22 1
    13   15   12 1
    14   16   15 1
    15   17    1 1
    16   18   17 1
    17   19    2 1
    18   20   19 1
    19   21   19 1
    20   22   23 1
    21   24   22 1
    22   25   22 1
    23   26   14 1
    24   27   26 1
    25   28   26 1
    26   29   26 1
    27   30    1 2
    28   31    4 1
    29   32   19 1
    30   33   10 1
    31   34   12 1
    32   35   14 1
    33   36   30 1
    34   37   36 1
    35   38   33 1
    36   39   32 1
    37    7   31 1
    38   14   34 1
    39   15   17 1
    40   15   35 1
    41   17   31 1
@<TRIPOS>SUBSTRUCTURE
     1 RES1 1

@<TRIPOS>CRYSIN
   6.6830    7.4382   13.9474  90.0000  98.4170  90.0000   4 1

