# MOL2 file generated by ConQuest
# Please check atom types

@<TRIPOS>MOLECULE
MAYRUA
    70    72     2
SMALL
NO_CHARGES
****
Generated from CSD

@<TRIPOS>ATOM
      1 C1        13.5694   11.1050    1.1107 C.2       1 RES1    0.0000
      2 C2        13.4336    9.7235    1.6208 C.2       1 RES1    0.0000
      3 C3        12.2339    9.1129    1.6066 C.2       1 RES1    0.0000
      4 H1        11.5004    9.6584    1.3125 H         1 RES1    0.0000
      5 C4        11.8790    7.7341    1.9662 C.ar      1 RES1    0.0000
      6 C5        12.7623    6.6594    2.0199 C.ar      1 RES1    0.0000
      7 H2        13.7050    6.8065    1.9107 H         1 RES1    0.0000
      8 C6        12.2838    5.3889    2.2344 C.ar      1 RES1    0.0000
      9 H3        12.9143    4.6644    2.2436 H         1 RES1    0.0000
     10 N1        10.9921    5.0967    2.4166 N.ar      1 RES1    0.0000
     11 C7        10.1438    6.1264    2.4038 C.ar      1 RES1    0.0000
     12 H4         9.2118    5.9482    2.5470 H         1 RES1    0.0000
     13 C8        10.5347    7.4290    2.1803 C.ar      1 RES1    0.0000
     14 H5         9.8802    8.1319    2.1777 H         1 RES1    0.0000
     15 N2        14.6563   11.6926    1.4569 N.2       1 RES1    0.0000
     16 O1        14.7343   13.0108    1.0034 O.3       1 RES1    0.0000
     17 H6        15.5120   13.2279    1.2900 H         1 RES1    0.0000
     18 C9        12.5116   11.7343    0.2627 C.3       1 RES1    0.0000
     19 H7        11.7476   11.9648    0.8132 H         1 RES1    0.0000
     20 H8        12.2374   11.1085   -0.4265 H         1 RES1    0.0000
     21 H9        12.8649   12.5370   -0.1526 H         1 RES1    0.0000
     22 C10       14.6637    9.0967    2.1777 C.ar      1 RES1    0.0000
     23 C11       15.7339    8.7552    1.3633 C.ar      1 RES1    0.0000
     24 H10       15.6874    8.9328    0.4213 H         1 RES1    0.0000
     25 C12       16.8628    8.1549    1.8892 C.ar      1 RES1    0.0000
     26 H11       17.5928    7.9260    1.3073 H         1 RES1    0.0000
     27 C13       16.9616    7.8799    3.2464 C.ar      1 RES1    0.0000
     28 C14       15.8971    8.2364    4.0502 C.ar      1 RES1    0.0000
     29 H12       15.9381    8.0518    4.9917 H         1 RES1    0.0000
     30 C15       14.7663    8.8364    3.5304 C.ar      1 RES1    0.0000
     31 H13       14.0436    9.0743    4.1144 H         1 RES1    0.0000
     32 C16       18.1966    7.2361    3.8250 C.3       1 RES1    0.0000
     33 H14       18.8198    7.9251    4.1057 H         1 RES1    0.0000
     34 H15       18.6123    6.6788    3.1504 H         1 RES1    0.0000
     35 H16       17.9519    6.6907    4.5894 H         1 RES1    0.0000
     36 C17        7.4472    2.5651    1.6478 C.2       2 RES2    0.0000
     37 C18        6.0877    3.1160    1.8224 C.2       2 RES2    0.0000
     38 C19        5.0018    2.3387    1.6881 C.2       2 RES2    0.0000
     39 H17        5.1701    1.4056    1.5344 H         2 RES2    0.0000
     40 C20        3.5881    2.7310    1.7619 C.ar      2 RES2    0.0000
     41 C21        3.0939    3.9454    1.2888 C.ar      2 RES2    0.0000
     42 H18        3.6982    4.6099    0.9519 H         2 RES2    0.0000
     43 C22        1.7408    4.1884    1.3137 C.ar      2 RES2    0.0000
     44 H19        1.4253    5.0306    0.9761 H         2 RES2    0.0000
     45 N3         0.8377    3.3222    1.7754 N.ar      2 RES2    0.0000
     46 C23        1.3050    2.1630    2.2477 C.ar      2 RES2    0.0000
     47 H20        0.6776    1.5304    2.6042 H         2 RES2    0.0000
     48 C24        2.6442    1.8320    2.2489 C.ar      2 RES2    0.0000
     49 H21        2.9257    0.9790    2.5869 H         2 RES2    0.0000
     50 N4         8.3975    3.3665    1.9608 N.2       2 RES2    0.0000
     51 O2         9.6648    2.7902    1.8086 O.3       2 RES2    0.0000
     52 H22       10.1437    3.4993    2.0268 H         2 RES2    0.0000
     53 C25        7.6780    1.1765    1.1454 C.3       2 RES2    0.0000
     54 H23        8.4967    1.1522    0.6242 H         2 RES2    0.0000
     55 H24        6.9319    0.9057    0.5878 H         2 RES2    0.0000
     56 H25        7.7555    0.5702    1.8985 H         2 RES2    0.0000
     57 C26        5.9893    4.5462    2.2288 C.ar      2 RES2    0.0000
     58 C27        6.4742    5.5755    1.4273 C.ar      2 RES2    0.0000
     59 H26        6.9094    5.3662    0.5982 H         2 RES2    0.0000
     60 C28        6.3335    6.8918    1.8172 C.ar      2 RES2    0.0000
     61 H27        6.6737    7.5925    1.2553 H         2 RES2    0.0000
     62 C29        5.7158    7.2350    3.0077 C.ar      2 RES2    0.0000
     63 C30        5.2492    6.2071    3.8179 C.ar      2 RES2    0.0000
     64 H28        4.8396    6.4184    4.6605 H         2 RES2    0.0000
     65 C31        5.3843    4.8825    3.4345 C.ar      2 RES2    0.0000
     66 H29        5.0467    4.1882    4.0051 H         2 RES2    0.0000
     67 C32        5.5252    8.6739    3.4005 C.3       2 RES2    0.0000
     68 H30        4.7255    8.7615    3.9410 H         2 RES2    0.0000
     69 H31        5.4360    9.2159    2.6007 H         2 RES2    0.0000
     70 H32        6.2947    8.9734    3.9098 H         2 RES2    0.0000
@<TRIPOS>BOND
     1    1    2 1
     2    2    3 2
     3    3    4 1
     4    5    3 1
     5    6    5 ar
     6    7    6 1
     7    8    6 ar
     8    9    8 1
     9   10    8 ar
    10   11   10 ar
    11   12   11 1
    12   13    5 ar
    13   14   13 1
    14   15    1 2
    15   16   15 1
    16   17   16 1
    17   18    1 1
    18   19   18 1
    19   20   18 1
    20   21   18 1
    21   22    2 1
    22   23   22 ar
    23   24   23 1
    24   25   23 ar
    25   26   25 1
    26   27   25 ar
    27   28   27 ar
    28   29   28 1
    29   30   22 ar
    30   31   30 1
    31   32   27 1
    32   33   32 1
    33   34   32 1
    34   35   32 1
    35   36   37 1
    36   37   38 2
    37   38   39 1
    38   40   38 1
    39   41   40 ar
    40   42   41 1
    41   43   41 ar
    42   44   43 1
    43   45   43 ar
    44   46   45 ar
    45   47   46 1
    46   48   40 ar
    47   49   48 1
    48   50   36 2
    49   51   50 1
    50   52   51 1
    51   53   36 1
    52   54   53 1
    53   55   53 1
    54   56   53 1
    55   57   37 1
    56   58   57 ar
    57   59   58 1
    58   60   58 ar
    59   61   60 1
    60   62   60 ar
    61   63   62 ar
    62   64   63 1
    63   65   57 ar
    64   66   65 1
    65   67   62 1
    66   68   67 1
    67   69   67 1
    68   70   67 1
    69   11   13 ar
    70   28   30 ar
    71   46   48 ar
    72   63   65 ar
@<TRIPOS>SUBSTRUCTURE
     1 RES1 1
     2 RES2 36

@<TRIPOS>CRYSIN
  16.4847    9.8989   17.9180  90.0000 104.6150  90.0000  14 1

