# MOL2 file generated by ConQuest
# Please check atom types

@<TRIPOS>MOLECULE
MAYSIP
    64    66     2
SMALL
NO_CHARGES
****
Generated from CSD

@<TRIPOS>ATOM
      1 C1         5.9718   10.6416    7.7954 C.2       1 RES1    0.0000
      2 C2         6.9031    9.5023    7.5644 C.2       1 RES1    0.0000
      3 C3         6.4549    8.2226    7.5922 C.2       1 RES1    0.0000
      4 H1         5.5103    8.1242    7.7330 H         1 RES1    0.0000
      5 C4         7.1954    6.9519    7.4426 C.ar      1 RES1    0.0000
      6 C5         8.5422    6.7711    7.1265 C.ar      1 RES1    0.0000
      7 H2         9.0912    7.5315    6.9235 H         1 RES1    0.0000
      8 C6         9.0818    5.4945    7.0895 C.ar      1 RES1    0.0000
      9 H3        10.0099    5.3616    6.8816 H         1 RES1    0.0000
     10 C7         8.2794    4.4157    7.3617 C.ar      1 RES1    0.0000
     11 H4         8.6942    3.3763    7.2727 H         1 RES1    0.0000
     12 N1         6.9739    4.5424    7.6493 N.ar      1 RES1    0.0000
     13 C8         6.4669    5.7808    7.6749 C.ar      1 RES1    0.0000
     14 H5         5.5284    5.8776    7.8502 H         1 RES1    0.0000
     15 N2         6.5426   11.7963    7.8417 N.2       1 RES1    0.0000
     16 O1         5.6242   12.8268    8.0989 O.3       1 RES1    0.0000
     17 H6         6.1477   13.5349    8.2257 H         1 RES1    0.0000
     18 C9         4.4963   10.4310    7.9554 C.3       1 RES1    0.0000
     19 H7         4.0689   11.2709    8.1408 H         1 RES1    0.0000
     20 H8         4.3356    9.8236    8.6825 H         1 RES1    0.0000
     21 H9         4.1390   10.0625    7.1447 H         1 RES1    0.0000
     22 C10        8.3358    9.8370    7.2990 C.ar      1 RES1    0.0000
     23 C11        8.7682   10.0958    6.0112 C.ar      1 RES1    0.0000
     24 H10        8.1349   10.1252    5.2901 H         1 RES1    0.0000
     25 C12       10.1229   10.3065    5.7516 C.ar      1 RES1    0.0000
     26 H11       10.4191   10.4740    4.8536 H         1 RES1    0.0000
     27 C13       11.0290   10.2751    6.7812 C.ar      1 RES1    0.0000
     28 H12       11.9615   10.4085    6.5982 H         1 RES1    0.0000
     29 C14       10.6123   10.0579    8.0666 C.ar      1 RES1    0.0000
     30 H13       11.2494   10.0693    8.7853 H         1 RES1    0.0000
     31 C15        9.2687    9.8280    8.3280 C.ar      1 RES1    0.0000
     32 H14        8.9839    9.6547    9.2289 H         1 RES1    0.0000
     33 C16       10.5381   12.0265   10.9679 C.2       2 RES2    0.0000
     34 C17        9.4373   11.3682   11.7015 C.2       2 RES2    0.0000
     35 C18        8.1514   11.5703   11.3318 C.2       2 RES2    0.0000
     36 H15        8.0359   12.2142   10.6292 H         2 RES2    0.0000
     37 C19        6.8975   10.9748   11.8204 C.ar      2 RES2    0.0000
     38 C20        6.7409    9.8750   12.6683 C.ar      2 RES2    0.0000
     39 H16        7.5159    9.4295   13.0183 H         2 RES2    0.0000
     40 C21        5.4634    9.4260   12.9839 C.ar      2 RES2    0.0000
     41 H17        5.3524    8.6633   13.5564 H         2 RES2    0.0000
     42 C22        4.3653   10.0755   12.4705 C.ar      2 RES2    0.0000
     43 H18        3.3716    9.7445   12.6416 H         2 RES2    0.0000
     44 N3         4.4799   11.1196   11.6346 N.ar      2 RES2    0.0000
     45 C23        5.7101   11.5417   11.3268 C.ar      2 RES2    0.0000
     46 H19        5.7944   12.2798   10.7189 H         2 RES2    0.0000
     47 N4        11.7197   11.5690   11.2304 N.2       2 RES2    0.0000
     48 O2        12.7132   12.1809   10.4462 O.3       2 RES2    0.0000
     49 H20       13.3639   11.7947   10.8982 H         2 RES2    0.0000
     50 C24       10.2843   13.1256    9.9710 C.3       2 RES2    0.0000
     51 H21       11.1030   13.5984    9.8053 H         2 RES2    0.0000
     52 H22        9.6291   13.7336   10.3219 H         2 RES2    0.0000
     53 H23        9.9618   12.7467    9.1500 H         2 RES2    0.0000
     54 C25        9.8247   10.4638   12.8375 C.ar      2 RES2    0.0000
     55 C26       10.1649    9.1361   12.6245 C.ar      2 RES2    0.0000
     56 H24       10.1583    8.7872   11.7305 H         2 RES2    0.0000
     57 C27       10.4997    8.2961   13.6869 C.ar      2 RES2    0.0000
     58 H25       10.7199    7.3750   13.5265 H         2 RES2    0.0000
     59 C28       10.5086    8.7951   14.9728 C.ar      2 RES2    0.0000
     60 H26       10.7423    8.2269   15.7100 H         2 RES2    0.0000
     61 C29       10.1939   10.1093   15.2012 C.ar      2 RES2    0.0000
     62 H27       10.2131   10.4521   16.0974 H         2 RES2    0.0000
     63 C30        9.8522   10.9545   14.1392 C.ar      2 RES2    0.0000
     64 H28        9.6339   11.8731   14.3121 H         2 RES2    0.0000
@<TRIPOS>BOND
     1    1    2 1
     2    2    3 2
     3    3    4 1
     4    5    3 1
     5    6    5 ar
     6    7    6 1
     7    8    6 ar
     8    9    8 1
     9   10    8 ar
    10   11   10 1
    11   12   10 ar
    12   13    5 ar
    13   14   13 1
    14   15    1 2
    15   16   15 1
    16   17   16 1
    17   18    1 1
    18   19   18 1
    19   20   18 1
    20   21   18 1
    21   22    2 1
    22   23   22 ar
    23   24   23 1
    24   25   23 ar
    25   26   25 1
    26   27   25 ar
    27   28   27 1
    28   29   27 ar
    29   30   29 1
    30   31   22 ar
    31   32   31 1
    32   33   34 1
    33   34   35 2
    34   35   36 1
    35   37   35 1
    36   38   37 ar
    37   39   38 1
    38   40   38 ar
    39   41   40 1
    40   42   40 ar
    41   43   42 1
    42   44   42 ar
    43   45   37 ar
    44   46   45 1
    45   47   33 2
    46   48   47 1
    47   49   48 1
    48   50   33 1
    49   51   50 1
    50   52   50 1
    51   53   50 1
    52   54   34 1
    53   55   54 ar
    54   56   55 1
    55   57   55 ar
    56   58   57 1
    57   59   57 ar
    58   60   59 1
    59   61   59 ar
    60   62   61 1
    61   63   54 ar
    62   64   63 1
    63   12   13 ar
    64   29   31 ar
    65   44   45 ar
    66   61   63 ar
@<TRIPOS>SUBSTRUCTURE
     1 RES1 1
     2 RES2 33

@<TRIPOS>CRYSIN
  10.4630   10.5394   12.3151  77.2020  84.6760  89.3300   2 1

