# MOL2 file generated by ConQuest
# Please check atom types

@<TRIPOS>MOLECULE
MAYSOV
    64    66     2
SMALL
NO_CHARGES
****
Generated from CSD

@<TRIPOS>ATOM
      1 C1        -0.3690  -11.9874   -3.6451 C.2       1 RES1    0.0000
      2 C2        -1.3639  -10.9124   -3.3943 C.2       1 RES1    0.0000
      3 C3        -0.9332   -9.6526   -3.2374 C.2       1 RES1    0.0000
      4 H1         0.0230   -9.5592   -3.2174 H         1 RES1    0.0000
      5 C4        -1.6658   -8.3837   -3.1068 C.ar      1 RES1    0.0000
      6 C5        -0.9143   -7.2193   -3.2345 C.ar      1 RES1    0.0000
      7 H2         0.0384   -7.3224   -3.3036 H         1 RES1    0.0000
      8 N1        -1.3910   -5.9830   -3.2766 N.ar      1 RES1    0.0000
      9 C6        -2.6985   -5.8312   -3.1625 C.ar      1 RES1    0.0000
     10 H3        -3.0702   -4.9458   -3.2330 H         1 RES1    0.0000
     11 C7        -3.5328   -6.8957   -2.9834 C.ar      1 RES1    0.0000
     12 H4        -4.4767   -6.7549   -2.8737 H         1 RES1    0.0000
     13 C8        -3.0228   -8.1746   -2.9286 C.ar      1 RES1    0.0000
     14 H5        -3.5998   -8.9275   -2.7652 H         1 RES1    0.0000
     15 N2        -0.7931  -13.1940   -3.4709 N.2       1 RES1    0.0000
     16 O1         0.1602  -14.1563   -3.7434 O.3       1 RES1    0.0000
     17 H6        -0.3281  -14.9999   -3.5611 H         1 RES1    0.0000
     18 C9         1.0187  -11.6718   -4.1236 C.ar      1 RES1    0.0000
     19 C10        1.2060  -11.0576   -5.3514 C.ar      1 RES1    0.0000
     20 H7         0.4433  -10.8049   -5.8793 H         1 RES1    0.0000
     21 C11        2.4945  -10.8070   -5.8088 C.ar      1 RES1    0.0000
     22 H8         2.6078  -10.3897   -6.6660 H         1 RES1    0.0000
     23 C12        3.5824  -11.1518   -5.0835 C.ar      1 RES1    0.0000
     24 H9         4.4672  -10.9592   -5.4037 H         1 RES1    0.0000
     25 C13        3.4077  -11.7659   -3.8486 C.ar      1 RES1    0.0000
     26 H10        4.1697  -12.0155   -3.3193 H         1 RES1    0.0000
     27 C14        2.1355  -12.0270   -3.3837 C.ar      1 RES1    0.0000
     28 H11        2.0187  -12.4649   -2.5378 H         1 RES1    0.0000
     29 C15       -2.8211  -11.3289   -3.3363 C.3       1 RES1    0.0000
     30 H12       -3.3369  -10.7842   -3.9374 H         1 RES1    0.0000
     31 H13       -2.9013  -12.2537   -3.5898 H         1 RES1    0.0000
     32 H14       -3.1489  -11.2129   -2.4424 H         1 RES1    0.0000
     33 C16        1.9910   -4.3846   -0.5591 C.2       2 RES2    0.0000
     34 C17        0.5996   -3.9417   -0.2483 C.2       2 RES2    0.0000
     35 C18       -0.3786   -4.8576   -0.2448 C.2       2 RES2    0.0000
     36 H15       -0.1036   -5.7608   -0.4286 H         2 RES2    0.0000
     37 C19       -1.8272   -4.6799   -0.0256 C.ar      2 RES2    0.0000
     38 C20       -2.5663   -5.7349    0.5005 C.ar      2 RES2    0.0000
     39 H16       -2.1261   -6.5530    0.7527 H         2 RES2    0.0000
     40 C21       -3.9433   -5.6075    0.6273 C.ar      2 RES2    0.0000
     41 H17       -4.4595   -6.3220    1.0115 H         2 RES2    0.0000
     42 C22       -4.5437   -4.4456    0.2418 C.ar      2 RES2    0.0000
     43 H18       -5.4976   -4.3659    0.3202 H         2 RES2    0.0000
     44 N3        -3.8706   -3.4134   -0.2831 N.ar      2 RES2    0.0000
     45 C23       -2.5377   -3.5488   -0.4131 C.ar      2 RES2    0.0000
     46 H19       -2.0494   -2.8157   -0.7998 H         2 RES2    0.0000
     47 N4         2.9096   -3.4988   -0.4375 N.2       2 RES2    0.0000
     48 O2         4.1843   -3.9982   -0.7783 O.3       2 RES2    0.0000
     49 H20        4.6456   -3.2672   -0.6364 H         2 RES2    0.0000
     50 C24        2.2476   -5.7769   -1.0410 C.ar      2 RES2    0.0000
     51 C25        2.1772   -6.8740   -0.1803 C.ar      2 RES2    0.0000
     52 H21        1.9995   -6.7435    0.7527 H         2 RES2    0.0000
     53 C26        2.3568   -8.1581   -0.6822 C.ar      2 RES2    0.0000
     54 H22        2.3161   -8.9130   -0.0902 H         2 RES2    0.0000
     55 C27        2.6172   -8.3527   -2.0256 C.ar      2 RES2    0.0000
     56 H23        2.7248   -9.2485   -2.3588 H         2 RES2    0.0000
     57 C28        2.7162   -7.2675   -2.8711 C.ar      2 RES2    0.0000
     58 H24        2.9033   -7.4104   -3.8015 H         2 RES2    0.0000
     59 C29        2.5300   -5.9855   -2.3874 C.ar      2 RES2    0.0000
     60 H25        2.6154   -5.2264   -2.9704 H         2 RES2    0.0000
     61 C30        0.4030   -2.4822    0.0484 C.3       2 RES2    0.0000
     62 H26       -0.3128   -2.3787    0.6808 H         2 RES2    0.0000
     63 H27        1.2127   -2.1167    0.4156 H         2 RES2    0.0000
     64 H28        0.1804   -2.0173   -0.7619 H         2 RES2    0.0000
@<TRIPOS>BOND
     1    1    2 1
     2    2    3 2
     3    3    4 1
     4    5    3 1
     5    6    5 ar
     6    7    6 1
     7    8    6 ar
     8    9    8 ar
     9   10    9 1
    10   11    9 ar
    11   12   11 1
    12   13    5 ar
    13   14   13 1
    14   15    1 2
    15   16   15 1
    16   17   16 1
    17   18    1 1
    18   19   18 ar
    19   20   19 1
    20   21   19 ar
    21   22   21 1
    22   23   21 ar
    23   24   23 1
    24   25   23 ar
    25   26   25 1
    26   27   18 ar
    27   28   27 1
    28   29    2 1
    29   30   29 1
    30   31   29 1
    31   32   29 1
    32   33   34 1
    33   34   35 2
    34   35   36 1
    35   37   35 1
    36   38   37 ar
    37   39   38 1
    38   40   38 ar
    39   41   40 1
    40   42   40 ar
    41   43   42 1
    42   44   42 ar
    43   45   37 ar
    44   46   45 1
    45   47   33 2
    46   48   47 1
    47   49   48 1
    48   50   33 1
    49   51   50 ar
    50   52   51 1
    51   53   51 ar
    52   54   53 1
    53   55   53 ar
    54   56   55 1
    55   57   55 ar
    56   58   57 1
    57   59   50 ar
    58   60   59 1
    59   61   34 1
    60   62   61 1
    61   63   61 1
    62   64   61 1
    63   11   13 ar
    64   25   27 ar
    65   44   45 ar
    66   57   59 ar
@<TRIPOS>SUBSTRUCTURE
     1 RES1 1
     2 RES2 33

@<TRIPOS>CRYSIN
  19.1888   10.3555   13.0681  90.0000  90.0000  90.0000  33 1

