# MOL2 file generated by ConQuest
# Please check atom types

@<TRIPOS>MOLECULE
MAYSUB
    47    49     1
SMALL
NO_CHARGES
****
Generated from CSD

@<TRIPOS>ATOM
      1 C1        -3.3400    6.6429   13.8270 C.2       1 RES1    0.0000
      2 C2        -2.5411    5.7637   12.9398 C.2       1 RES1    0.0000
      3 C3        -1.8136    6.2985   11.9469 C.2       1 RES1    0.0000
      4 H1        -1.8688    7.2524   11.8750 H         1 RES1    0.0000
      5 C4        -0.9439    5.6555   10.9583 C.ar      1 RES1    0.0000
      6 C5        -1.1171    4.3607   10.5338 C.ar      1 RES1    0.0000
      7 H2        -1.8162    3.8263   10.9103 H         1 RES1    0.0000
      8 C6        -0.2742    3.8253    9.5582 C.ar      1 RES1    0.0000
      9 H3        -0.4235    2.9175    9.2903 H         1 RES1    0.0000
     10 N1         0.7107    4.4699    8.9842 N.ar      1 RES1    0.0000
     11 C7         1.9585    6.4797    8.7184 C.ar      1 RES1    0.0000
     12 H4         2.5068    6.0302    8.0766 H         1 RES1    0.0000
     13 C8         2.1810    7.7849    9.0165 C.ar      1 RES1    0.0000
     14 H5         2.8893    8.2578    8.5765 H         1 RES1    0.0000
     15 C9         1.3875    8.4342    9.9611 C.ar      1 RES1    0.0000
     16 H6         1.5452    9.3597   10.1530 H         1 RES1    0.0000
     17 C10        0.3857    7.7732   10.6091 C.ar      1 RES1    0.0000
     18 H7        -0.1410    8.2341   11.2614 H         1 RES1    0.0000
     19 C11        0.1019    6.4136   10.3297 C.ar      1 RES1    0.0000
     20 C12        0.9085    5.7710    9.3535 C.ar      1 RES1    0.0000
     21 N2        -4.0090    6.0207   14.7298 N.2       1 RES1    0.0000
     22 O1        -4.6955    6.8994   15.5640 O.3       1 RES1    0.0000
     23 H8        -5.1871    6.3003   16.1315 H         1 RES1    0.0000
     24 C13       -3.2878    8.1442   13.7314 C.3       1 RES1    0.0000
     25 H9        -4.1095    8.5101   14.0617 H         1 RES1    0.0000
     26 H10       -3.1979    8.4017   12.8146 H         1 RES1    0.0000
     27 C14       -2.1202    8.7208   14.5307 C.3       1 RES1    0.0000
     28 H11       -1.2972    8.3879   14.1704 H         1 RES1    0.0000
     29 H12       -2.1868    8.4214   15.4360 H         1 RES1    0.0000
     30 C15       -2.0624   10.2086   14.5282 C.3       1 RES1    0.0000
     31 H13       -2.8514   10.5445   14.9545 H         1 RES1    0.0000
     32 H14       -2.0666   10.5110   13.6204 H         1 RES1    0.0000
     33 C16       -0.8600   10.7670   15.2342 C.3       1 RES1    0.0000
     34 H15       -0.8812   10.5011   16.1532 H         1 RES1    0.0000
     35 H16       -0.8476   11.7233   15.1785 H         1 RES1    0.0000
     36 H17       -0.0730   10.4124   14.8207 H         1 RES1    0.0000
     37 C17       -2.5771    4.3051   13.2862 C.ar      1 RES1    0.0000
     38 C18       -1.5838    3.7563   14.0744 C.ar      1 RES1    0.0000
     39 H18       -0.8569    4.3093   14.3694 H         1 RES1    0.0000
     40 C19       -1.6535    2.4284   14.4601 C.ar      1 RES1    0.0000
     41 H19       -0.9458    2.0541   14.9879 H         1 RES1    0.0000
     42 C20       -2.6971    1.6539   14.0646 C.ar      1 RES1    0.0000
     43 H20       -2.7454    0.7412   14.3543 H         1 RES1    0.0000
     44 C21       -3.6853    2.1763   13.2863 C.ar      1 RES1    0.0000
     45 H21       -4.4082    1.6204   12.9868 H         1 RES1    0.0000
     46 C22       -3.6318    3.5101   12.8976 C.ar      1 RES1    0.0000
     47 H22       -4.3372    3.8913   12.3698 H         1 RES1    0.0000
@<TRIPOS>BOND
     1    1    2 1
     2    2    3 2
     3    3    4 1
     4    5    3 1
     5    6    5 ar
     6    7    6 1
     7    8    6 ar
     8    9    8 1
     9   10    8 ar
    10   11   12 1
    11   13   11 ar
    12   14   13 1
    13   15   13 ar
    14   16   15 1
    15   17   15 ar
    16   18   17 1
    17   19    5 ar
    18   20   10 ar
    19   21    1 2
    20   22   21 1
    21   23   22 1
    22   24    1 1
    23   25   24 1
    24   26   24 1
    25   27   24 1
    26   28   27 1
    27   29   27 1
    28   30   27 1
    29   31   30 1
    30   32   30 1
    31   33   30 1
    32   34   33 1
    33   35   33 1
    34   36   33 1
    35   37    2 1
    36   38   37 ar
    37   39   38 1
    38   40   38 ar
    39   41   40 1
    40   42   40 ar
    41   43   42 1
    42   44   42 ar
    43   45   44 1
    44   46   37 ar
    45   47   46 1
    46   11   20 ar
    47   17   19 ar
    48   19   20 ar
    49   44   46 ar
@<TRIPOS>SUBSTRUCTURE
     1 RES1 1

@<TRIPOS>CRYSIN
   5.5190   19.7130   16.9140  90.0000  98.7250  90.0000  14 1

