# MOL2 file generated by ConQuest
# Please check atom types

@<TRIPOS>MOLECULE
MAYTAI
    28    29     1
SMALL
NO_CHARGES
****
Generated from CSD

@<TRIPOS>ATOM
      1 O1         9.4083    0.6569    0.6885 O.3       1 RES1    0.0000
      2 C1         8.5606    1.4933   -0.0002 C.2       1 RES1    0.0000
      3 C2         8.9303    2.7899    0.1626 C.2       1 RES1    0.0000
      4 H1         8.5079    3.5548   -0.2103 H         1 RES1    0.0000
      5 C3        10.0777    2.7708    1.0061 C.2       1 RES1    0.0000
      6 H2        10.5749    3.5224    1.3053 H         1 RES1    0.0000
      7 C4        10.3214    1.4737    1.2973 C.2       1 RES1    0.0000
      8 H3        11.0316    1.1697    1.8503 H         1 RES1    0.0000
      9 C5         7.4665    0.8328   -0.7088 C.2       1 RES1    0.0000
     10 O2         7.3199   -0.3567   -0.8161 O.2       1 RES1    0.0000
     11 O3         6.6233    1.7777   -1.2037 O.3       1 RES1    0.0000
     12 N1         5.5468    1.1877   -1.9924 N.2       1 RES1    0.0000
     13 C6         4.6843    2.0913   -2.2738 C.2       1 RES1    0.0000
     14 C7         4.6746    3.5349   -1.8571 C.3       1 RES1    0.0000
     15 H4         4.7838    4.1113   -2.6541 H         1 RES1    0.0000
     16 H5         5.4337    3.7088   -1.2446 H         1 RES1    0.0000
     17 C8         3.3508    3.8785   -1.1493 C.3       1 RES1    0.0000
     18 H6         3.3053    3.3967   -0.2861 H         1 RES1    0.0000
     19 H7         3.3216    4.8495   -0.9605 H         1 RES1    0.0000
     20 C9         2.1469    3.4899   -2.0158 C.3       1 RES1    0.0000
     21 H8         1.3106    3.6816   -1.5217 H         1 RES1    0.0000
     22 H9         2.1464    4.0366   -2.8411 H         1 RES1    0.0000
     23 C10        2.1865    2.0116   -2.3884 C.3       1 RES1    0.0000
     24 H10        1.4243    1.8049   -2.9857 H         1 RES1    0.0000
     25 H11        2.0886    1.4650   -1.5682 H         1 RES1    0.0000
     26 C11        3.5023    1.6358   -3.0939 C.3       1 RES1    0.0000
     27 H12        3.5436    0.6549   -3.2193 H         1 RES1    0.0000
     28 H13        3.5346    2.0626   -3.9867 H         1 RES1    0.0000
@<TRIPOS>BOND
     1    1    2 1
     2    2    3 2
     3    3    4 1
     4    5    3 1
     5    6    5 1
     6    7    1 1
     7    8    7 1
     8    9    2 1
     9   10    9 2
    10   11    9 1
    11   12   11 1
    12   13   12 2
    13   14   13 1
    14   15   14 1
    15   16   14 1
    16   17   14 1
    17   18   17 1
    18   19   17 1
    19   20   17 1
    20   21   20 1
    21   22   20 1
    22   23   20 1
    23   24   23 1
    24   25   23 1
    25   26   13 1
    26   27   26 1
    27   28   26 1
    28    5    7 2
    29   23   26 1
@<TRIPOS>SUBSTRUCTURE
     1 RES1 1

@<TRIPOS>CRYSIN
  18.0520    5.7905   10.1108  90.0000  90.0000  90.0000  33 1

