# MOL2 file generated by ConQuest
# Please check atom types

@<TRIPOS>MOLECULE
MAYWUE
    39    33     2
SMALL
NO_CHARGES
****
Generated from CSD

@<TRIPOS>ATOM
      1 N1        -0.2167    2.4185   10.7138 N.3       1 RES1    0.0000
      2 N2        -0.7316    3.5587   10.3618 N.2       1 RES1    0.0000
      3 O1         1.1221    2.1304   10.4498 O.3       1 RES1    0.0000
      4 N3         0.4660    2.4261    9.7305 Du        2 SUP2    0.0000
      5 N4         0.0067    3.4176    9.0392 Du        2 SUP2    0.0000
      6 O2         0.4516    2.1520   11.0531 Du        2 SUP2    0.0000
      7 O3        -0.0188    4.3168    9.7445 O.2       1 RES1    0.0000
      8 C1         1.2053    1.5805    9.0308 C.3       1 RES1    0.0000
      9 H1         0.6351    0.7768    8.9344 H         1 RES1    0.0000
     10 H2         0.9092    2.2611    8.3758 H         1 RES1    0.0000
     11 H3         0.8902    1.7432    8.1062 Du        2 SUP2    0.0000
     12 H4         0.8149    0.7057    9.2808 Du        2 SUP2    0.0000
     13 C2         2.6462    1.2346    8.8171 C.ar      1 RES1    0.0000
     14 C3         3.4825    2.1094    8.1481 C.ar      1 RES1    0.0000
     15 H5         3.1535    2.9463    7.8422 H         1 RES1    0.0000
     16 C4         4.8082    1.7548    7.9288 C.ar      1 RES1    0.0000
     17 H6         5.3924    2.3561    7.4819 H         1 RES1    0.0000
     18 C5         5.2769    0.5319    8.3590 C.ar      1 RES1    0.0000
     19 H7         6.1771    0.2840    8.1816 H         1 RES1    0.0000
     20 C6         4.4509   -0.3359    9.0434 C.ar      1 RES1    0.0000
     21 H8         4.7831   -1.1681    9.3604 H         1 RES1    0.0000
     22 C7         3.1311    0.0216    9.2654 C.ar      1 RES1    0.0000
     23 H9         2.5540   -0.5733    9.7291 H         1 RES1    0.0000
     24 C8        -0.9069    1.4469   11.4763 C.3       1 RES1    0.0000
     25 H10       -0.8874    0.5884   10.9833 H         1 RES1    0.0000
     26 H11       -1.8545    1.7239   11.5545 H         1 RES1    0.0000
     27 H12       -1.6918    2.0499   11.4554 Du        2 SUP2    0.0000
     28 H13       -1.0911    0.6112   10.9777 Du        2 SUP2    0.0000
     29 C9        -0.3539    1.2154   12.8702 C.ar      1 RES1    0.0000
     30 C10        0.3465    0.0531   13.1733 C.ar      1 RES1    0.0000
     31 H14        0.5066   -0.5931   12.4959 H         1 RES1    0.0000
     32 C11        0.8141   -0.1668   14.4680 C.ar      1 RES1    0.0000
     33 H15        1.3016   -0.9570   14.6705 H         1 RES1    0.0000
     34 C12        0.5671    0.7640   15.4554 C.ar      1 RES1    0.0000
     35 H16        0.8710    0.6077   16.3423 H         1 RES1    0.0000
     36 C13       -0.1192    1.9187   15.1579 C.ar      1 RES1    0.0000
     37 H17       -0.2749    2.5655   15.8367 H         1 RES1    0.0000
     38 C14       -0.5856    2.1409   13.8660 C.ar      1 RES1    0.0000
     39 H18       -1.0669    2.9358   13.6691 H         1 RES1    0.0000
@<TRIPOS>BOND
     1    1    2 1
     2    2    7 2
     3    3    1 1
     4    8    3 1
     5    9    8 1
     6   10    8 1
     7   13    8 1
     8   14   13 ar
     9   15   14 1
    10   16   14 ar
    11   17   16 1
    12   18   16 ar
    13   19   18 1
    14   20   18 ar
    15   21   20 1
    16   22   13 ar
    17   23   22 1
    18   24    1 1
    19   25   24 1
    20   26   24 1
    21   29   24 1
    22   30   29 ar
    23   31   30 1
    24   32   30 ar
    25   33   32 1
    26   34   32 ar
    27   35   34 1
    28   36   34 ar
    29   37   36 1
    30   38   29 ar
    31   39   38 1
    32   20   22 ar
    33   36   38 ar
@<TRIPOS>SUBSTRUCTURE
     1 RES1 1
     2 SUP2 4

@<TRIPOS>CRYSIN
   7.7760    5.8320   14.0920  90.0000  97.6500  90.0000   4 1

