# MOL2 file generated by ConQuest
# Please check atom types

@<TRIPOS>MOLECULE
MAYXOZ
    33    34     1
SMALL
NO_CHARGES
****
Generated from CSD

@<TRIPOS>ATOM
      1 C1         1.0110    1.8965    6.1366 C.ar      1 RES1    0.0000
      2 C2        -0.0136    2.4941    6.8633 C.ar      1 RES1    0.0000
      3 H1        -0.6219    1.9311    7.3054 H         1 RES1    0.0000
      4 C3        -0.1164    3.8673    6.9427 C.ar      1 RES1    0.0000
      5 H2        -0.8587    4.2878    7.4938 H         1 RES1    0.0000
      6 C4         0.8181    4.6390    6.2795 C.ar      1 RES1    0.0000
      7 C5         1.8298    4.0577    5.5382 C.ar      1 RES1    0.0000
      8 C6         1.9415    2.6773    5.4640 C.ar      1 RES1    0.0000
      9 H3         2.5753    2.2630    4.9964 H         1 RES1    0.0000
     10 C7         0.8739    6.1497    6.2361 C.3       1 RES1    0.0000
     11 C8         1.1162    6.7544    7.6091 C.3       1 RES1    0.0000
     12 H4         1.1976    7.7265    7.5499 H         1 RES1    0.0000
     13 H5         0.3014    6.5335    8.2116 H         1 RES1    0.0000
     14 H6         1.8865    6.3319    8.0606 H         1 RES1    0.0000
     15 C9        -0.3460    6.7523    5.5523 C.3       1 RES1    0.0000
     16 H7        -0.4656    6.3248    4.6819 H         1 RES1    0.0000
     17 H8        -0.2296    7.7459    5.4900 H         1 RES1    0.0000
     18 H9        -1.1210    6.5823    6.1237 H         1 RES1    0.0000
     19 C10        2.7173    5.0910    4.8757 C.3       1 RES1    0.0000
     20 C11        4.1588    5.0309    5.3467 C.3       1 RES1    0.0000
     21 H10        4.5854    4.1646    5.1023 H         1 RES1    0.0000
     22 H11        4.6332    5.7710    4.9808 H         1 RES1    0.0000
     23 H12        4.2178    5.0757    6.2934 H         1 RES1    0.0000
     24 C12        2.6320    5.0360    3.3584 C.3       1 RES1    0.0000
     25 H13        2.9963    4.2481    3.0642 H         1 RES1    0.0000
     26 H14        3.1008    5.7812    3.0175 H         1 RES1    0.0000
     27 H15        1.6847    5.1826    3.1031 H         1 RES1    0.0000
     28 C13        1.0493    0.4113    6.0986 C.2       1 RES1    0.0000
     29 O1         2.0324   -0.0753    5.3801 O.3       1 RES1    0.0000
     30 H16        2.0324   -0.9325    5.3530 H         1 RES1    0.0000
     31 O2         0.2631   -0.2850    6.6717 O.2       1 RES1    0.0000
     32 N1         2.0682    6.3288    5.3811 N.3       1 RES1    0.0000
     33 O3         2.5219    7.4825    5.0553 O.2       1 RES1    0.0000
@<TRIPOS>BOND
     1    1    2 ar
     2    2    3 1
     3    4    2 ar
     4    5    4 1
     5    6    4 ar
     6    7    6 ar
     7    8    1 ar
     8    9    8 1
     9   10    6 1
    10   11   10 1
    11   12   11 1
    12   13   11 1
    13   14   11 1
    14   15   10 1
    15   16   15 1
    16   17   15 1
    17   18   15 1
    18   19    7 1
    19   20   19 1
    20   21   20 1
    21   22   20 1
    22   23   20 1
    23   24   19 1
    24   25   24 1
    25   26   24 1
    26   27   24 1
    27   28    1 1
    28   29   28 1
    29   30   29 1
    30   31   28 2
    31   32   10 1
    32   33   32 1
    33    7    8 ar
    34   19   32 1
@<TRIPOS>SUBSTRUCTURE
     1 RES1 1

@<TRIPOS>CRYSIN
   7.9732   10.1799   15.5700  90.0000  90.0000  90.0000  19 1

