# MOL2 file generated by ConQuest
# Please check atom types

@<TRIPOS>MOLECULE
MAYZES
    90    92     2
SMALL
NO_CHARGES
****
Generated from CSD

@<TRIPOS>ATOM
      1 O1        14.6780    3.1656    8.2076 O.2       1 RES1    0.0000
      2 O2        13.2290    2.6846    6.6401 O.3       1 RES1    0.0000
      3 O3        13.9069   -0.0310    6.7880 O.3       1 RES1    0.0000
      4 O4        11.7834    0.5119    7.5299 O.3       1 RES1    0.0000
      5 O5        13.4839    1.5630    4.6393 O.3       1 RES1    0.0000
      6 C1        14.1613    2.3226    7.5211 C.2       1 RES1    0.0000
      7 C2        14.4777    0.8487    7.7380 C.3       1 RES1    0.0000
      8 H1        14.1034    0.5977    8.6305 H         1 RES1    0.0000
      9 C3        12.5882    0.3230    6.4043 C.3       1 RES1    0.0000
     10 C4        12.6280    1.7040    5.7167 C.3       1 RES1    0.0000
     11 C5        12.1252   -0.7768    5.4732 C.3       1 RES1    0.0000
     12 H2        12.2701   -1.6478    5.8988 H         1 RES1    0.0000
     13 H3        12.6362   -0.7337    4.6363 H         1 RES1    0.0000
     14 H4        11.1716   -0.6630    5.2799 H         1 RES1    0.0000
     15 C6        11.2612    2.2585    5.3881 C.3       1 RES1    0.0000
     16 H5        11.3490    3.1883    5.0909 H         1 RES1    0.0000
     17 H6        10.6948    2.2232    6.1863 H         1 RES1    0.0000
     18 H7        10.8550    1.7236    4.6747 H         1 RES1    0.0000
     19 C7        11.5092   -0.6683    8.3090 C.3       1 RES1    0.0000
     20 H8        11.2536   -0.4067    9.2179 H         1 RES1    0.0000
     21 H9        12.3120   -1.2293    8.3443 H         1 RES1    0.0000
     22 H10       10.7769   -1.1705    7.8952 H         1 RES1    0.0000
     23 C8        13.6966    2.7345    3.8416 C.3       1 RES1    0.0000
     24 H11       14.3621    2.5423    3.1493 H         1 RES1    0.0000
     25 H12       14.0170    3.4643    4.4118 H         1 RES1    0.0000
     26 H13       12.8517    2.9974    3.4177 H         1 RES1    0.0000
     27 C9        15.9818    0.5924    7.7971 C.3       1 RES1    0.0000
     28 H14       16.3756    1.2738    8.4139 H         1 RES1    0.0000
     29 C10       16.1960   -0.7794    8.4377 C.3       1 RES1    0.0000
     30 H15       15.6864   -0.8383    9.2844 H         1 RES1    0.0000
     31 H16       15.8725   -1.4896    7.8292 H         1 RES1    0.0000
     32 N1        17.6476   -0.9625    8.7058 N.pl3     1 RES1    0.0000
     33 O6        18.2486   -1.8426    8.1296 O.2       1 RES1    0.0000
     34 O7        18.1725   -0.2092    9.5093 O.2       1 RES1    0.0000
     35 C11       16.6830    0.7350    6.4605 C.ar      1 RES1    0.0000
     36 C12       16.6817   -0.2851    5.5143 C.ar      1 RES1    0.0000
     37 H17       16.1912   -1.0802    5.6863 H         1 RES1    0.0000
     38 C13       17.3753   -0.1622    4.3395 C.ar      1 RES1    0.0000
     39 H18       17.3734   -0.8775    3.7140 H         1 RES1    0.0000
     40 C14       18.0733    0.9913    4.0590 C.ar      1 RES1    0.0000
     41 H19       18.5558    1.0750    3.2441 H         1 RES1    0.0000
     42 C15       18.0676    2.0179    4.9704 C.ar      1 RES1    0.0000
     43 H20       18.5310    2.8248    4.7754 H         1 RES1    0.0000
     44 C16       17.3953    1.8858    6.1672 C.ar      1 RES1    0.0000
     45 H21       17.4211    2.5946    6.7995 H         1 RES1    0.0000
     46 O8        14.8044   -0.4879   11.3381 O.2       2 RES2    0.0000
     47 O9        13.3707    0.0377   12.9020 O.3       2 RES2    0.0000
     48 O10       13.8501    2.7654   12.4948 O.3       2 RES2    0.0000
     49 O11       11.8326    1.9433   11.7078 O.3       2 RES2    0.0000
     50 O12       13.4714    1.4017   14.7829 O.3       2 RES2    0.0000
     51 C17       14.2649    0.3832   11.9748 C.2       2 RES2    0.0000
     52 C18       14.5500    1.8400   11.6853 C.3       2 RES2    0.0000
     53 H22       14.2754    2.0114   10.7391 H         2 RES2    0.0000
     54 C19       12.5459    2.3357   12.8558 C.3       2 RES2    0.0000
     55 C20       12.6725    1.0593   13.6979 C.3       2 RES2    0.0000
     56 C21       11.9116    3.4813   13.6138 C.3       2 RES2    0.0000
     57 H23       11.9745    4.3013   13.0792 H         2 RES2    0.0000
     58 H24       12.3807    3.6094   14.4649 H         2 RES2    0.0000
     59 H25       10.9695    3.2773   13.7885 H         2 RES2    0.0000
     60 C22       11.3566    0.4185   14.0585 C.3       2 RES2    0.0000
     61 H26       11.5225   -0.4355   14.5087 H         2 RES2    0.0000
     62 H27       10.8341    0.2642   13.2438 H         2 RES2    0.0000
     63 H28       10.8589    1.0122   14.6594 H         2 RES2    0.0000
     64 C23       11.5874    2.9804   10.7504 C.3       2 RES2    0.0000
     65 H29       11.3814    2.5802    9.8806 H         2 RES2    0.0000
     66 H30       12.3826    3.5467   10.6693 H         2 RES2    0.0000
     67 H31       10.8283    3.5257   11.0472 H         2 RES2    0.0000
     68 C24       13.9464    0.3283   15.6096 C.3       2 RES2    0.0000
     69 H32       14.4918    0.6918   16.3381 H         2 RES2    0.0000
     70 H33       14.4880   -0.2851   15.0701 H         2 RES2    0.0000
     71 H34       13.1817   -0.1569   15.9848 H         2 RES2    0.0000
     72 C25       16.0470    2.1382   11.7795 C.3       2 RES2    0.0000
     73 H35       16.5202    1.4725   11.2009 H         2 RES2    0.0000
     74 C26       16.3058    3.5218   11.1894 C.3       2 RES2    0.0000
     75 H36       15.8855    3.5846   10.2952 H         2 RES2    0.0000
     76 H37       15.8996    4.2123   11.7707 H         2 RES2    0.0000
     77 N2        17.7707    3.7664   11.0713 N.pl3     2 RES2    0.0000
     78 O13       18.4242    2.9856   10.4968 O.2       2 RES2    0.0000
     79 O14       18.2325    4.7734   11.4887 O.2       2 RES2    0.0000
     80 C27       16.5923    1.9839   13.1816 C.ar      2 RES2    0.0000
     81 C28       17.2533    0.8213   13.5396 C.ar      2 RES2    0.0000
     82 H38       17.3715    0.1321   12.8968 H         2 RES2    0.0000
     83 C29       17.7472    0.6526   14.8209 C.ar      2 RES2    0.0000
     84 H39       18.1820   -0.1582   15.0564 H         2 RES2    0.0000
     85 C30       17.6080    1.6569   15.7580 C.ar      2 RES2    0.0000
     86 H40       17.9665    1.5549   16.6319 H         2 RES2    0.0000
     87 C31       16.9481    2.7999   15.4075 C.ar      2 RES2    0.0000
     88 H41       16.8432    3.4944   16.0483 H         2 RES2    0.0000
     89 C32       16.4332    2.9647   14.1453 C.ar      2 RES2    0.0000
     90 H42       15.9622    3.7611   13.9309 H         2 RES2    0.0000
@<TRIPOS>BOND
     1    1    6 2
     2    2    6 1
     3    3    7 1
     4    4    9 1
     5    5   10 1
     6    6    7 1
     7    7    8 1
     8    9    3 1
     9   10    2 1
    10   11    9 1
    11   12   11 1
    12   13   11 1
    13   14   11 1
    14   15   10 1
    15   16   15 1
    16   17   15 1
    17   18   15 1
    18   19    4 1
    19   20   19 1
    20   21   19 1
    21   22   19 1
    22   23    5 1
    23   24   23 1
    24   25   23 1
    25   26   23 1
    26   27    7 1
    27   28   27 1
    28   29   27 1
    29   30   29 1
    30   31   29 1
    31   32   29 1
    32   33   32 2
    33   34   32 2
    34   35   27 1
    35   36   35 ar
    36   37   36 1
    37   38   36 ar
    38   39   38 1
    39   40   38 ar
    40   41   40 1
    41   42   40 ar
    42   43   42 1
    43   44   35 ar
    44   45   44 1
    45   46   51 2
    46   47   51 1
    47   48   52 1
    48   49   54 1
    49   50   55 1
    50   51   52 1
    51   52   53 1
    52   54   48 1
    53   55   47 1
    54   56   54 1
    55   57   56 1
    56   58   56 1
    57   59   56 1
    58   60   55 1
    59   61   60 1
    60   62   60 1
    61   63   60 1
    62   64   49 1
    63   65   64 1
    64   66   64 1
    65   67   64 1
    66   68   50 1
    67   69   68 1
    68   70   68 1
    69   71   68 1
    70   72   52 1
    71   73   72 1
    72   74   72 1
    73   75   74 1
    74   76   74 1
    75   77   74 1
    76   78   77 2
    77   79   77 2
    78   80   72 1
    79   81   80 ar
    80   82   81 1
    81   83   81 ar
    82   84   83 1
    83   85   83 ar
    84   86   85 1
    85   87   85 ar
    86   88   87 1
    87   89   80 ar
    88   90   89 1
    89    9   10 1
    90   42   44 ar
    91   54   55 1
    92   87   89 ar
@<TRIPOS>SUBSTRUCTURE
     1 RES1 1
     2 RES2 46

@<TRIPOS>CRYSIN
  19.0707   13.0777   27.3853  90.0000  90.0000  90.0000  61 1

