# MOL2 file generated by ConQuest
# Please check atom types

@<TRIPOS>MOLECULE
MAYZIW
    45    46     1
SMALL
NO_CHARGES
****
Generated from CSD

@<TRIPOS>ATOM
      1 O1         9.3221   -1.3056   10.9412 O.2       1 RES1    0.0000
      2 O2         7.5238   -2.3071   10.2650 O.3       1 RES1    0.0000
      3 O3         7.0495   -0.3271    8.3697 O.3       1 RES1    0.0000
      4 O4         5.4570   -0.4388   10.0617 O.3       1 RES1    0.0000
      5 O5         6.9054   -3.0357    8.1573 O.3       1 RES1    0.0000
      6 O6         7.0877    2.6699    7.6785 O.2       1 RES1    0.0000
      7 O7         7.9155    1.4871    6.0883 O.2       1 RES1    0.0000
      8 N1         7.9808    1.9871    7.1964 N.pl3     1 RES1    0.0000
      9 C1         8.3690   -1.2835   10.2150 C.2       1 RES1    0.0000
     10 C2         8.0768   -0.0966    9.3148 C.3       1 RES1    0.0000
     11 H1         7.7894    0.6538    9.8928 H         1 RES1    0.0000
     12 C3         5.9346   -1.0432    8.8838 C.3       1 RES1    0.0000
     13 C4         6.4161   -2.4359    9.3196 C.3       1 RES1    0.0000
     14 C5         4.9266   -1.0967    7.7645 C.3       1 RES1    0.0000
     15 H2         4.7507   -0.1984    7.4449 H         1 RES1    0.0000
     16 H3         4.1014   -1.4913    8.0915 H         1 RES1    0.0000
     17 H4         5.2778   -1.6362    7.0393 H         1 RES1    0.0000
     18 C6         5.3744   -3.2346   10.0600 C.3       1 RES1    0.0000
     19 H5         5.7178   -4.1224   10.2436 H         1 RES1    0.0000
     20 H6         4.5741   -3.3038    9.5163 H         1 RES1    0.0000
     21 H7         5.1610   -2.7917   10.8955 H         1 RES1    0.0000
     22 C7         4.8881    0.8658    9.8943 C.3       1 RES1    0.0000
     23 H8         4.7311    1.2646   10.7649 H         1 RES1    0.0000
     24 H9         4.0465    0.7924    9.4165 H         1 RES1    0.0000
     25 H10        5.4996    1.4231    9.3879 H         1 RES1    0.0000
     26 C8         7.5398   -4.3092    8.2879 C.3       1 RES1    0.0000
     27 H11        7.8561   -4.6031    7.4194 H         1 RES1    0.0000
     28 H12        6.9037   -4.9526    8.6362 H         1 RES1    0.0000
     29 H13        8.2907   -4.2347    8.8974 H         1 RES1    0.0000
     30 C9         9.3301    0.3505    8.5651 C.3       1 RES1    0.0000
     31 H14       10.0546    0.3663    9.2397 H         1 RES1    0.0000
     32 C10        9.2208    1.7862    8.0395 C.3       1 RES1    0.0000
     33 H15        9.1497    2.3866    8.8241 H         1 RES1    0.0000
     34 C11       10.4628    2.2008    7.2517 C.3       1 RES1    0.0000
     35 H16       10.2738    3.0456    6.7919 H         1 RES1    0.0000
     36 H17       11.1933    2.3645    7.8834 H         1 RES1    0.0000
     37 C12       10.9263    1.1880    6.2281 C.3       1 RES1    0.0000
     38 H18       11.7887    1.4724    5.8576 H         1 RES1    0.0000
     39 H19       10.2796    1.1492    5.4934 H         1 RES1    0.0000
     40 C13       11.0746   -0.1889    6.8408 C.3       1 RES1    0.0000
     41 H20       11.7913   -0.1721    7.5086 H         1 RES1    0.0000
     42 H21       11.3254   -0.8302    6.1432 H         1 RES1    0.0000
     43 C14        9.7772   -0.6444    7.5033 C.3       1 RES1    0.0000
     44 H22        9.0772   -0.7315    6.8227 H         1 RES1    0.0000
     45 H23        9.9121   -1.5228    7.9152 H         1 RES1    0.0000
@<TRIPOS>BOND
     1    1    9 2
     2    2    9 1
     3    3   10 1
     4    4   12 1
     5    5   13 1
     6    6    8 2
     7    7    8 2
     8    8   32 1
     9    9   10 1
    10   10   11 1
    11   12    3 1
    12   13    2 1
    13   14   12 1
    14   15   14 1
    15   16   14 1
    16   17   14 1
    17   18   13 1
    18   19   18 1
    19   20   18 1
    20   21   18 1
    21   22    4 1
    22   23   22 1
    23   24   22 1
    24   25   22 1
    25   26    5 1
    26   27   26 1
    27   28   26 1
    28   29   26 1
    29   30   10 1
    30   31   30 1
    31   32   30 1
    32   33   32 1
    33   34   32 1
    34   35   34 1
    35   36   34 1
    36   37   34 1
    37   38   37 1
    38   39   37 1
    39   40   37 1
    40   41   40 1
    41   42   40 1
    42   43   30 1
    43   44   43 1
    44   45   43 1
    45   12   13 1
    46   40   43 1
@<TRIPOS>SUBSTRUCTURE
     1 RES1 1

@<TRIPOS>CRYSIN
  14.2904   10.4950   11.2184  90.0000 108.8400  90.0000  14 1

