# MOL2 file generated by ConQuest
# Please check atom types

@<TRIPOS>MOLECULE
MAZLUX
   116   120     2
SMALL
NO_CHARGES
****
Generated from CSD

@<TRIPOS>ATOM
      1 O1        -2.2220    8.2387   20.2248 O.3       1 RES1    0.0000
      2 O2         1.1606    9.1380   16.9366 O.2       1 RES1    0.0000
      3 O3         5.5011    8.7708   19.4830 O.2       1 RES1    0.0000
      4 O4         5.7723    8.7431   16.1988 O.2       1 RES1    0.0000
      5 O5         5.7174   10.8965   15.9811 O.2       1 RES1    0.0000
      6 N1         0.1000    9.1866   18.9307 N.am      1 RES1    0.0000
      7 N2         5.0838    6.6969   18.6749 N.am      1 RES1    0.0000
      8 N3         5.3017    9.8398   16.4484 N.pl3     1 RES1    0.0000
      9 C1        -2.1364    8.2556   18.7979 C.3       1 RES1    0.0000
     10 H1        -3.0395    8.3860   18.4159 H         1 RES1    0.0000
     11 H2        -1.7910    7.3849   18.4788 H         1 RES1    0.0000
     12 C2        -1.2200    9.3686   18.3224 C.3       1 RES1    0.0000
     13 H3        -1.1430    9.3439   17.3368 H         1 RES1    0.0000
     14 H4        -1.5933   10.2478   18.5835 H         1 RES1    0.0000
     15 C3         0.0355    9.1141   20.3914 C.3       1 RES1    0.0000
     16 H5        -0.2616    9.9856   20.7564 H         1 RES1    0.0000
     17 H6         0.9341    8.9166   20.7564 H         1 RES1    0.0000
     18 C4        -0.9300    8.0343   20.8060 C.3       1 RES1    0.0000
     19 H7        -0.5783    7.1535   20.5217 H         1 RES1    0.0000
     20 H8        -1.0105    8.0281   21.7936 H         1 RES1    0.0000
     21 C5         1.1994    9.0601   18.1596 C.2       1 RES1    0.0000
     22 C6         2.5161    8.8056   18.8867 C.3       1 RES1    0.0000
     23 H9         2.4200    8.0011   19.4552 H         1 RES1    0.0000
     24 H10        2.7095    9.5737   19.4803 H         1 RES1    0.0000
     25 C7         3.7002    8.6019   17.9287 C.3       1 RES1    0.0000
     26 H11        3.4473    7.9795   17.1880 H         1 RES1    0.0000
     27 C8         4.8496    8.0165   18.7474 C.2       1 RES1    0.0000
     28 C9         4.3545    5.7992   17.7640 C.3       1 RES1    0.0000
     29 H12        4.8730    4.9631   17.6553 H         1 RES1    0.0000
     30 H13        4.2883    6.2303   16.8758 H         1 RES1    0.0000
     31 C10        2.9638    5.4521   18.2447 C.ar      1 RES1    0.0000
     32 C11        2.6980    5.1721   19.5920 C.ar      1 RES1    0.0000
     33 H14        3.4066    5.1953   20.2242 H         1 RES1    0.0000
     34 C12        1.4233    4.8628   20.0107 C.ar      1 RES1    0.0000
     35 H15        1.2579    4.6847   20.9282 H         1 RES1    0.0000
     36 C13        0.3787    4.8104   19.1002 C.ar      1 RES1    0.0000
     37 H16       -0.4996    4.5929   19.3881 H         1 RES1    0.0000
     38 C14        0.6299    5.0796   17.7651 C.ar      1 RES1    0.0000
     39 H17       -0.0819    5.0464   17.1377 H         1 RES1    0.0000
     40 C15        1.9090    5.3950   17.3337 C.ar      1 RES1    0.0000
     41 H18        2.0671    5.5739   16.4148 H         1 RES1    0.0000
     42 C16        6.1063    6.0953   19.5442 C.3       1 RES1    0.0000
     43 H19        5.6692    5.4505   20.1550 H         1 RES1    0.0000
     44 H20        6.5142    6.8064   20.0984 H         1 RES1    0.0000
     45 C17        7.1937    5.3865   18.7822 C.ar      1 RES1    0.0000
     46 C18        7.3700    4.0106   18.9349 C.ar      1 RES1    0.0000
     47 H21        6.7982    3.5162   19.5097 H         1 RES1    0.0000
     48 C19        8.3818    3.3735   18.2441 C.ar      1 RES1    0.0000
     49 H22        8.4987    2.4372   18.3530 H         1 RES1    0.0000
     50 C20        9.2098    4.0553   17.4164 C.ar      1 RES1    0.0000
     51 H23        9.8923    3.5941   16.9429 H         1 RES1    0.0000
     52 C21        9.0618    5.4343   17.2593 C.ar      1 RES1    0.0000
     53 H24        9.6507    5.9187   16.6914 H         1 RES1    0.0000
     54 C22        8.0355    6.0992   17.9453 C.ar      1 RES1    0.0000
     55 H25        7.9173    7.0355   17.8355 H         1 RES1    0.0000
     56 C23        4.1233    9.9424   17.3703 C.3       1 RES1    0.0000
     57 H26        3.3622   10.3427   16.8800 H         1 RES1    0.0000
     58 H27        4.3508   10.5478   18.1205 H         1 RES1    0.0000
     59 O6         6.2869    6.0329   11.2716 O.3       2 RES2    0.0000
     60 O7         2.8669    6.8242   14.6036 O.2       2 RES2    0.0000
     61 O8        -1.4483    6.7147   12.0142 O.2       2 RES2    0.0000
     62 O9        -1.6411    6.3953   15.4487 O.2       2 RES2    0.0000
     63 O10       -1.9795    8.5256   15.2924 O.2       2 RES2    0.0000
     64 N4         3.9523    6.8512   12.6229 N.am      2 RES2    0.0000
     65 N5        -1.1511    4.5744   12.7128 N.am      2 RES2    0.0000
     66 N6        -1.3324    7.5183   15.0531 N.pl3     2 RES2    0.0000
     67 C24        6.1959    5.9349   12.6969 C.3       2 RES2    0.0000
     68 H28        7.0950    6.0514   13.0937 H         2 RES2    0.0000
     69 H29        5.8665    5.0341   12.9450 H         2 RES2    0.0000
     70 C25        5.2616    6.9807   13.2578 C.3       2 RES2    0.0000
     71 H30        5.1736    6.8604   14.2357 H         2 RES2    0.0000
     72 H31        5.6286    7.8839   13.0875 H         2 RES2    0.0000
     73 C26        4.0211    6.8735   11.1608 C.3       2 RES2    0.0000
     74 H32        4.3106    7.7690   10.8538 H         2 RES2    0.0000
     75 H33        3.1257    6.6915   10.7805 H         2 RES2    0.0000
     76 C27        4.9928    5.8369   10.6835 C.3       2 RES2    0.0000
     77 H34        4.6562    4.9369   10.9209 H         2 RES2    0.0000
     78 H35        5.0676    5.8855    9.6972 H         2 RES2    0.0000
     79 C28        2.8352    6.7802   13.3825 C.2       2 RES2    0.0000
     80 C29        1.5116    6.6236   12.6319 C.3       2 RES2    0.0000
     81 H36        1.5872    5.8647   12.0000 H         2 RES2    0.0000
     82 H37        1.3420    7.4427   12.1027 H         2 RES2    0.0000
     83 C30        0.3189    6.3776   13.5711 C.3       2 RES2    0.0000
     84 H38        0.5558    5.6866   14.2525 H         2 RES2    0.0000
     85 C31       -0.8463    5.8886   12.7120 C.2       2 RES2    0.0000
     86 C32       -2.1701    4.0761   11.7733 C.3       2 RES2    0.0000
     87 H39       -1.7307    3.5185   11.0822 H         2 RES2    0.0000
     88 H40       -2.5960    4.8451   11.3169 H         2 RES2    0.0000
     89 C33       -3.2366    3.2578   12.4718 C.ar      2 RES2    0.0000
     90 C34       -3.3147    1.8842   12.2619 C.ar      2 RES2    0.0000
     91 H41       -2.7083    1.4585   11.6668 H         2 RES2    0.0000
     92 C35       -4.2845    1.1345   12.9259 C.ar      2 RES2    0.0000
     93 H42       -4.3294    0.1951   12.7899 H         2 RES2    0.0000
     94 C36       -5.1776    1.7515   13.7798 C.ar      2 RES2    0.0000
     95 H43       -5.8412    1.2387   14.2252 H         2 RES2    0.0000
     96 C37       -5.1063    3.1236   13.9849 C.ar      2 RES2    0.0000
     97 H44       -5.7186    3.5501   14.5710 H         2 RES2    0.0000
     98 C38       -4.1360    3.8694   13.3307 C.ar      2 RES2    0.0000
     99 H45       -4.0876    4.8073   13.4730 H         2 RES2    0.0000
    100 C39       -0.4770    3.5949   13.5753 C.3       2 RES2    0.0000
    101 H46       -1.0243    2.7704   13.6092 H         2 RES2    0.0000
    102 H47       -0.4273    3.9597   14.4934 H         2 RES2    0.0000
    103 C40        0.9153    3.2355   13.1195 C.ar      2 RES2    0.0000
    104 C41        1.2234    3.0681   11.7733 C.ar      2 RES2    0.0000
    105 H48        0.5455    3.1876   11.1178 H         2 RES2    0.0000
    106 C42        2.5098    2.7295   11.3739 C.ar      2 RES2    0.0000
    107 H49        2.7058    2.6200   10.4515 H         2 RES2    0.0000
    108 C43        3.4979    2.5514   12.3072 C.ar      2 RES2    0.0000
    109 H50        4.3800    2.3238   12.0377 H         2 RES2    0.0000
    110 C44        3.1923    2.7071   13.6419 C.ar      2 RES2    0.0000
    111 H51        3.8719    2.5799   14.2923 H         2 RES2    0.0000
    112 C45        1.9184    3.0434   14.0517 C.ar      2 RES2    0.0000
    113 H52        1.7291    3.1437   14.9775 H         2 RES2    0.0000
    114 C46       -0.0759    7.6733   14.2581 C.3       2 RES2    0.0000
    115 H53        0.6575    7.9610   14.8580 H         2 RES2    0.0000
    116 H54       -0.2060    8.3783   13.5757 H         2 RES2    0.0000
@<TRIPOS>BOND
     1    1    9 1
     2    2   21 2
     3    3   27 2
     4    4    8 2
     5    5    8 2
     6    6   12 1
     7    7   27 1
     8    8   56 1
     9    9   10 1
    10   11    9 1
    11   12    9 1
    12   13   12 1
    13   14   12 1
    14   15    6 1
    15   16   15 1
    16   17   15 1
    17   18    1 1
    18   19   18 1
    19   20   18 1
    20   21    6 1
    21   22   21 1
    22   23   22 1
    23   24   22 1
    24   25   22 1
    25   26   25 1
    26   27   25 1
    27   28    7 1
    28   29   28 1
    29   30   28 1
    30   31   28 1
    31   32   31 ar
    32   33   32 1
    33   34   32 ar
    34   35   34 1
    35   36   34 ar
    36   37   36 1
    37   38   36 ar
    38   39   38 1
    39   40   31 ar
    40   41   40 1
    41   42    7 1
    42   43   42 1
    43   44   42 1
    44   45   42 1
    45   46   45 ar
    46   47   46 1
    47   48   46 ar
    48   49   48 1
    49   50   48 ar
    50   51   50 1
    51   52   50 ar
    52   53   52 1
    53   54   45 ar
    54   55   54 1
    55   56   25 1
    56   57   56 1
    57   58   56 1
    58   59   67 1
    59   60   79 2
    60   61   85 2
    61   62   66 2
    62   63   66 2
    63   64   70 1
    64   65   85 1
    65   66  114 1
    66   67   68 1
    67   69   67 1
    68   70   67 1
    69   71   70 1
    70   72   70 1
    71   73   64 1
    72   74   73 1
    73   75   73 1
    74   76   59 1
    75   77   76 1
    76   78   76 1
    77   79   64 1
    78   80   79 1
    79   81   80 1
    80   82   80 1
    81   83   80 1
    82   84   83 1
    83   85   83 1
    84   86   65 1
    85   87   86 1
    86   88   86 1
    87   89   86 1
    88   90   89 ar
    89   91   90 1
    90   92   90 ar
    91   93   92 1
    92   94   92 ar
    93   95   94 1
    94   96   94 ar
    95   97   96 1
    96   98   89 ar
    97   99   98 1
    98  100   65 1
    99  101  100 1
   100  102  100 1
   101  103  100 1
   102  104  103 ar
   103  105  104 1
   104  106  104 ar
   105  107  106 1
   106  108  106 ar
   107  109  108 1
   108  110  108 ar
   109  111  110 1
   110  112  103 ar
   111  113  112 1
   112  114   83 1
   113  115  114 1
   114  116  114 1
   115   15   18 1
   116   38   40 ar
   117   52   54 ar
   118   73   76 1
   119   96   98 ar
   120  110  112 ar
@<TRIPOS>SUBSTRUCTURE
     1 RES1 1
     2 RES2 59

@<TRIPOS>CRYSIN
  13.6334    7.7127   21.0401  90.0000  95.2049  90.0000   4 1

