# MOL2 file generated by ConQuest
# Please check atom types

@<TRIPOS>MOLECULE
MAZMEH
    25    25     1
SMALL
NO_CHARGES
****
Generated from CSD

@<TRIPOS>ATOM
      1 N1         1.1573    2.5635    3.3630 N.3       1 RES1    0.0000
      2 C1         0.3566    3.5851    2.9698 C.2       1 RES1    0.0000
      3 H1         0.3800    3.9527    2.1153 H         1 RES1    0.0000
      4 N2        -0.4558    4.0058    3.9170 N.2       1 RES1    0.0000
      5 C2        -0.1681    3.2108    4.9662 C.2       1 RES1    0.0000
      6 C3         0.8247    2.3164    4.6669 C.2       1 RES1    0.0000
      7 C4         2.2228    1.9836    2.5521 C.3       1 RES1    0.0000
      8 H2         1.9505    1.9561    1.6213 H         1 RES1    0.0000
      9 H3         2.4002    1.0758    2.8438 H         1 RES1    0.0000
     10 C5         3.4810    2.8271    2.6952 C.2       1 RES1    0.0000
     11 O1         3.5319    3.8601    3.3075 O.2       1 RES1    0.0000
     12 O2         4.4741    2.2595    2.0269 O.3       1 RES1    0.0000
     13 C6         5.7363    3.0034    1.9764 C.3       1 RES1    0.0000
     14 H4         6.4549    2.4009    1.7289 H         1 RES1    0.0000
     15 H5         5.9349    3.3606    2.8562 H         1 RES1    0.0000
     16 C7         5.6670    4.1315    0.9842 C.3       1 RES1    0.0000
     17 H6         5.4389    3.7837    0.1187 H         1 RES1    0.0000
     18 H7         6.5205    4.5696    0.9369 H         1 RES1    0.0000
     19 H8         4.9984    4.7620    1.2625 H         1 RES1    0.0000
     20 N3        -0.8314    3.4042    6.2358 N.pl3     1 RES1    0.0000
     21 O3        -1.9581    3.8857    6.2203 O.2       1 RES1    0.0000
     22 O4        -0.2232    3.0873    7.2528 O.2       1 RES1    0.0000
     23 N4         1.4310    1.2479    5.4418 N.pl3     1 RES1    0.0000
     24 O5         0.6886    0.6598    6.2093 O.2       1 RES1    0.0000
     25 O6         2.6056    1.0296    5.2505 O.2       1 RES1    0.0000
@<TRIPOS>BOND
     1    1    2 1
     2    2    3 1
     3    4    2 2
     4    5    4 1
     5    6    1 1
     6    7    1 1
     7    8    7 1
     8    9    7 1
     9   10    7 1
    10   11   10 2
    11   12   10 1
    12   13   12 1
    13   14   13 1
    14   15   13 1
    15   16   13 1
    16   17   16 1
    17   18   16 1
    18   19   16 1
    19   20    5 1
    20   21   20 2
    21   22   20 2
    22   23    6 1
    23   24   23 2
    24   25   23 2
    25    5    6 2
@<TRIPOS>SUBSTRUCTURE
     1 RES1 1

@<TRIPOS>CRYSIN
  13.9829    5.1845   14.6003  90.0000 109.0810  90.0000  14 1

