# MOL2 file generated by ConQuest
# Please check atom types

@<TRIPOS>MOLECULE
MAZOCX
    25    26     1
SMALL
NO_CHARGES
****
Generated from CSD

@<TRIPOS>ATOM
      1 C1        -9.1447    3.7797    2.7798 C.3       1 RES1    0.0000
      2 C2        -8.4982    4.8772    3.6447 C.3       1 RES1    0.0000
      3 C3        -8.4565    4.4932    5.0896 C.2       1 RES1    0.0000
      4 C4        -9.6741    3.8031    5.6329 C.3       1 RES1    0.0000
      5 C5       -10.2728    2.7925    4.6413 C.3       1 RES1    0.0000
      6 C6        -9.2381    1.7674    4.2014 C.3       1 RES1    0.0000
      7 C7        -8.4798    2.4130    3.0164 C.3       1 RES1    0.0000
      8 C8        -9.2572    4.1916    1.3366 C.3       1 RES1    0.0000
      9 C9       -11.5744    2.2182    5.1479 C.3       1 RES1    0.0000
     10 H1        -9.0798    5.8210    3.5081 H         1 RES1    0.0000
     11 H2        -9.7570    5.1866    1.2416 H         1 RES1    0.0000
     12 H3        -9.8843    3.4837    0.7666 H         1 RES1    0.0000
     13 H4       -11.9573    1.4803    4.3747 H         1 RES1    0.0000
     14 H5       -11.4542    1.6472    6.0829 H         1 RES1    0.0000
     15 H6       -12.3749    2.9940    5.2496 H         1 RES1    0.0000
     16 H7        -7.4663    5.0753    3.2748 H         1 RES1    0.0000
     17 H8        -9.4144    3.2834    6.5828 H         1 RES1    0.0000
     18 H9       -10.4501    4.5522    5.9079 H         1 RES1    0.0000
     19 H10       -8.5404    1.5471    5.0163 H         1 RES1    0.0000
     20 H11       -9.7242    0.8459    3.8330 H         1 RES1    0.0000
     21 H12       -7.4053    2.5710    3.3081 H         1 RES1    0.0000
     22 H13       -8.2750    4.2628    0.8333 H         1 RES1    0.0000
     23 N1       -10.4821    3.5304    3.3739 N.3       1 RES1    0.0000
     24 O1       -11.4682    4.3173    3.1931 O.2       1 RES1    0.0000
     25 O2        -7.4962    4.7503    5.7896 O.2       1 RES1    0.0000
@<TRIPOS>BOND
     1    1    2 1
     2    2    3 1
     3    3    4 1
     4    4    5 1
     5    5    6 1
     6    6    7 1
     7    7    1 1
     8    8    1 1
     9    9    5 1
    10   10    2 1
    11   11    8 1
    12   12    8 1
    13   13    9 1
    14   14    9 1
    15   15    9 1
    16   16    2 1
    17   17    4 1
    18   18    4 1
    19   19    6 1
    20   20    6 1
    21   21    7 1
    22   22    8 1
    23   23    1 1
    24   24   23 1
    25   25    3 2
    26    5   23 1
@<TRIPOS>SUBSTRUCTURE
     1 RES1 1

@<TRIPOS>CRYSIN
  10.0500   11.1300   14.9400  90.0000 146.1000  90.0000  14 1

