# MOL2 file generated by ConQuest
# Please check atom types

@<TRIPOS>MOLECULE
MAZSIR
    58    58     2
SMALL
NO_CHARGES
****
Generated from CSD

@<TRIPOS>ATOM
      1 N1        12.4782    2.0665    6.2976 N.pl3     1 RES1    0.0000
      2 O1        15.0473    1.1571    3.1203 O.3       1 RES1    0.0000
      3 C1        18.5356    1.5708    4.1632 C.ar      1 RES1    0.0000
      4 H1        19.3921    1.2701    3.9652 H         1 RES1    0.0000
      5 N2        11.9048    2.7839   11.0915 N.pl3     2 RES2    0.0000
      6 O2        16.8274    3.7572    6.5731 O.3       1 RES1    0.0000
      7 C2        17.4628    1.0872    3.4302 C.ar      1 RES1    0.0000
      8 H2        17.5901    0.4956    2.7242 H         1 RES1    0.0000
      9 O3        13.9005    3.4974    4.1578 O.3       1 RES1    0.0000
     10 H3        13.1072    3.2896    4.1718 H         1 RES1    0.0000
     11 C3        16.1805    1.5219    3.7940 C.ar      1 RES1    0.0000
     12 O4        12.4479    2.6331    7.3416 O.2       1 RES1    0.0000
     13 C4        15.9861    2.3882    4.8435 C.ar      1 RES1    0.0000
     14 O5        11.5003    1.7677    5.6787 O.2       1 RES1    0.0000
     15 C5        17.1000    2.8509    5.5495 C.ar      1 RES1    0.0000
     16 O6         9.1216    0.3617    8.7699 O.3       2 RES2    0.0000
     17 C6        18.3581    2.5091    5.2019 C.ar      1 RES1    0.0000
     18 H4        19.0909    2.8839    5.6356 H         1 RES1    0.0000
     19 O7         7.5089    3.4125   11.9278 O.3       2 RES2    0.0000
     20 C7        15.1350    0.2358    2.0310 C.3       1 RES1    0.0000
     21 H5        14.2576    0.0749    1.6780 H         1 RES1    0.0000
     22 H6        15.5128   -0.5906    2.3410 H         1 RES1    0.0000
     23 H7        15.6947    0.6056    1.3443 H         1 RES1    0.0000
     24 O8        10.1168    0.4946   11.2670 O.3       2 RES2    0.0000
     25 H8        10.8418    0.5386   11.6480 H         2 RES2    0.0000
     26 C8        17.9250    4.2269    7.3470 C.3       1 RES1    0.0000
     27 H9        17.6068    4.8344    8.0186 H         1 RES1    0.0000
     28 H10       18.5493    4.6805    6.7744 H         1 RES1    0.0000
     29 H11       18.3614    3.4834    7.7689 H         1 RES1    0.0000
     30 O9        12.8798    2.9798   10.4715 O.2       2 RES2    0.0000
     31 C9        14.5848    2.8329    5.2191 C.3       1 RES1    0.0000
     32 H12       14.6741    3.4774    5.9521 H         1 RES1    0.0000
     33 O10       11.9100    2.6900   12.2948 O.2       2 RES2    0.0000
     34 C10       13.7860    1.6578    5.7529 C.3       1 RES1    0.0000
     35 H13       13.6471    1.0182    5.0372 H         1 RES1    0.0000
     36 H14       14.2971    1.2181    6.4504 H         1 RES1    0.0000
     37 C11       10.6063    2.6720   10.3467 C.3       2 RES2    0.0000
     38 H15       10.7726    2.2933    9.4695 H         2 RES2    0.0000
     39 H16       10.2309    3.5574   10.2240 H         2 RES2    0.0000
     40 C12        5.9444    2.5231   10.3004 C.ar      2 RES2    0.0000
     41 H17        5.2476    3.0338   10.6438 H         2 RES2    0.0000
     42 C13        5.7439    1.7027    9.2144 C.ar      2 RES2    0.0000
     43 H18        4.8927    1.6398    8.8463 H         2 RES2    0.0000
     44 C14        6.7682    0.9743    8.6612 C.ar      2 RES2    0.0000
     45 H19        6.6213    0.4427    7.9121 H         2 RES2    0.0000
     46 C15        8.0158    1.0442    9.2349 C.ar      2 RES2    0.0000
     47 C16        8.2543    1.8097   10.3779 C.ar      2 RES2    0.0000
     48 C17        7.2113    2.5751   10.8730 C.ar      2 RES2    0.0000
     49 C18        8.9820   -0.3507    7.5332 C.3       2 RES2    0.0000
     50 H20        9.8112   -0.7844    7.3190 H         2 RES2    0.0000
     51 H21        8.7531    0.2648    6.8336 H         2 RES2    0.0000
     52 H22        8.2892   -1.0093    7.6204 H         2 RES2    0.0000
     53 C19        6.4543    4.1949   12.4800 C.3       2 RES2    0.0000
     54 H23        6.7973    4.7335   13.1968 H         2 RES2    0.0000
     55 H24        5.7680    3.6143   12.8158 H         2 RES2    0.0000
     56 H25        6.0877    4.7635   11.7987 H         2 RES2    0.0000
     57 C20        9.5992    1.7957   11.0915 C.3       2 RES2    0.0000
     58 H26        9.4675    2.1854   11.9806 H         2 RES2    0.0000
@<TRIPOS>BOND
     1    1   12 2
     2    2   11 1
     3    3    4 1
     4    5   30 2
     5    6   15 1
     6    7    3 ar
     7    8    7 1
     8    9   10 1
     9   11    7 ar
    10   13   11 ar
    11   14    1 2
    12   15   13 ar
    13   16   46 1
    14   17    3 ar
    15   18   17 1
    16   19   48 1
    17   20    2 1
    18   21   20 1
    19   22   20 1
    20   23   20 1
    21   24   25 1
    22   26    6 1
    23   27   26 1
    24   28   26 1
    25   29   26 1
    26   31    9 1
    27   32   31 1
    28   33    5 2
    29   34    1 1
    30   35   34 1
    31   36   34 1
    32   37    5 1
    33   38   37 1
    34   39   37 1
    35   40   41 1
    36   42   40 ar
    37   43   42 1
    38   44   42 ar
    39   45   44 1
    40   46   44 ar
    41   47   46 ar
    42   48   40 ar
    43   49   16 1
    44   50   49 1
    45   51   49 1
    46   52   49 1
    47   53   19 1
    48   54   53 1
    49   55   53 1
    50   56   53 1
    51   57   24 1
    52   58   57 1
    53   13   31 1
    54   15   17 ar
    55   31   34 1
    56   37   57 1
    57   47   48 ar
    58   47   57 1
@<TRIPOS>SUBSTRUCTURE
     1 RES1 1
     2 RES2 5

@<TRIPOS>CRYSIN
  10.1078    9.9926   10.7845  90.0000  93.5990  90.0000   4 1

