# MOL2 file generated by ConQuest
# Please check atom types

@<TRIPOS>MOLECULE
MAZWAM
    44    45     1
SMALL
NO_CHARGES
****
Generated from CSD

@<TRIPOS>ATOM
      1 C1         2.9960    5.0623    1.4889 C.ar      1 RES1    0.0000
      2 C2         1.6263    5.2777    1.6052 C.ar      1 RES1    0.0000
      3 C3         0.7904    5.1873    0.5007 C.ar      1 RES1    0.0000
      4 C4         1.3625    4.8772   -0.7179 C.ar      1 RES1    0.0000
      5 C5         2.7240    4.6524   -0.8738 C.ar      1 RES1    0.0000
      6 C6         3.5433    4.7446    0.2401 C.ar      1 RES1    0.0000
      7 N1         0.4858    4.7747   -1.8966 N.pl3     1 RES1    0.0000
      8 O1        -0.7146    4.9877   -1.7457 O.2       1 RES1    0.0000
      9 O2         0.9924    4.4831   -2.9749 O.2       1 RES1    0.0000
     10 C7         3.8291    5.1974    2.7013 C.2       1 RES1    0.0000
     11 N2         5.0956    5.1722    2.6780 N.2       1 RES1    0.0000
     12 C8         5.7734    5.3092    3.9693 C.3       1 RES1    0.0000
     13 C9         6.4650    4.0041    4.3644 C.3       1 RES1    0.0000
     14 H1         1.2570    5.4901    2.4545 H         1 RES1    0.0000
     15 H2        -0.1447    5.3337    0.5799 H         1 RES1    0.0000
     16 H3         3.0859    4.4402   -1.7263 H         1 RES1    0.0000
     17 H4         4.4768    4.5916    0.1564 H         1 RES1    0.0000
     18 H5         3.3943    5.3089    3.5389 H         1 RES1    0.0000
     19 H6         5.1124    5.5554    4.6636 H         1 RES1    0.0000
     20 H7         6.4450    6.0347    3.9138 H         1 RES1    0.0000
     21 H8         7.0821    3.7328    3.6396 H         1 RES1    0.0000
     22 H9         7.0042    4.1577    5.1806 H         1 RES1    0.0000
     23 C1A        8.9426    1.8125    7.5021 C.ar      1 RES1    0.0000
     24 C2A       10.3123    1.5972    7.3858 C.ar      1 RES1    0.0000
     25 C3A       11.1482    1.6875    8.4903 C.ar      1 RES1    0.0000
     26 C4A       10.5761    1.9976    9.7089 C.ar      1 RES1    0.0000
     27 C5A        9.2146    2.2224    9.8648 C.ar      1 RES1    0.0000
     28 C6A        8.3953    2.1303    8.7509 C.ar      1 RES1    0.0000
     29 N1A       11.4528    2.1001   10.8876 N.pl3     1 RES1    0.0000
     30 O1A       12.6532    1.8872   10.7367 O.2       1 RES1    0.0000
     31 O2A       10.9462    2.3917   11.9659 O.2       1 RES1    0.0000
     32 C7A        8.1095    1.6774    6.2897 C.2       1 RES1    0.0000
     33 N2A        6.8430    1.7026    6.3130 N.2       1 RES1    0.0000
     34 C8A        6.1652    1.5657    5.0217 C.3       1 RES1    0.0000
     35 C9A        5.4736    2.8708    4.6266 C.3       1 RES1    0.0000
     36 H1A       10.6816    1.3847    6.5365 H         1 RES1    0.0000
     37 H2A       12.0833    1.5411    8.4111 H         1 RES1    0.0000
     38 H3A        8.8527    2.4347   10.7173 H         1 RES1    0.0000
     39 H4A        7.4618    2.2832    8.8346 H         1 RES1    0.0000
     40 H5A        8.5443    1.5660    5.4521 H         1 RES1    0.0000
     41 H6A        6.8263    1.3194    4.3274 H         1 RES1    0.0000
     42 H7A        5.4937    0.8402    5.0772 H         1 RES1    0.0000
     43 H8A        4.8565    3.1421    5.3514 H         1 RES1    0.0000
     44 H9A        4.9344    2.7171    3.8104 H         1 RES1    0.0000
@<TRIPOS>BOND
     1    1    2 ar
     2    2    3 ar
     3    3    4 ar
     4    4    5 ar
     5    5    6 ar
     6    6    1 ar
     7    7    4 1
     8    8    7 2
     9    9    7 2
    10   10    1 1
    11   11   10 2
    12   12   11 1
    13   13   12 1
    14   14    2 1
    15   15    3 1
    16   16    5 1
    17   17    6 1
    18   18   10 1
    19   19   12 1
    20   20   12 1
    21   21   13 1
    22   22   13 1
    23   23   24 ar
    24   24   25 ar
    25   25   26 ar
    26   26   27 ar
    27   27   28 ar
    28   28   23 ar
    29   29   26 1
    30   30   29 2
    31   31   29 2
    32   32   23 1
    33   33   32 2
    34   34   33 1
    35   35   13 1
    36   36   24 1
    37   37   25 1
    38   38   27 1
    39   39   28 1
    40   40   32 1
    41   41   34 1
    42   42   34 1
    43   43   35 1
    44   44   35 1
    45   34   35 1
@<TRIPOS>SUBSTRUCTURE
     1 RES1 1

@<TRIPOS>CRYSIN
   7.1162    7.1895    9.1695  83.2100  78.9200  64.8080   2 1

