# MOL2 file generated by ConQuest
# Please check atom types

@<TRIPOS>MOLECULE
MAZWOA
    38    39     1
SMALL
NO_CHARGES
****
Generated from CSD

@<TRIPOS>ATOM
      1 O1         5.4872    1.7303    7.6327 O.2       1 RES1    0.0000
      2 O2         6.7397    1.4259    9.4751 O.3       1 RES1    0.0000
      3 O3         3.3070    4.6062    6.6504 O.3       1 RES1    0.0000
      4 O4         1.9763    5.2823    4.5193 O.2       1 RES1    0.0000
      5 O5         3.6756    6.3837    3.7123 O.2       1 RES1    0.0000
      6 N1         4.4846    4.3767   11.4213 N.3       1 RES1    0.0000
      7 N2         3.1160    5.7262    4.5942 N.pl3     1 RES1    0.0000
      8 N3         0.4841    4.8067    8.8502 N.1       1 RES1    0.0000
      9 C1         5.3480    3.5190   10.7689 C.2       1 RES1    0.0000
     10 C2         5.0255    3.0536    9.5333 C.2       1 RES1    0.0000
     11 C3         3.8079    3.5666    8.7807 C.3       1 RES1    0.0000
     12 C4         2.8417    4.2493    9.7354 C.2       1 RES1    0.0000
     13 C5         3.2141    4.6544   10.9697 C.2       1 RES1    0.0000
     14 C6         6.6034    3.2385   11.5461 C.3       1 RES1    0.0000
     15 C7         5.7675    2.0353    8.7894 C.2       1 RES1    0.0000
     16 C8         7.5064    0.4106    8.7736 C.3       1 RES1    0.0000
     17 C9         8.5568    1.0227    7.8966 C.3       1 RES1    0.0000
     18 C10        4.2143    4.4980    7.6771 C.2       1 RES1    0.0000
     19 C11        3.8686    5.4764    5.7758 C.2       1 RES1    0.0000
     20 C12        5.0669    5.9368    6.1912 C.2       1 RES1    0.0000
     21 C13        5.2909    5.2947    7.4419 C.2       1 RES1    0.0000
     22 C14        1.5278    4.5526    9.2600 C.1       1 RES1    0.0000
     23 C15        2.3283    5.4061   11.9147 C.3       1 RES1    0.0000
     24 H1         4.7599    4.7650   12.1617 H         1 RES1    0.0000
     25 H2         3.3405    2.7825    8.3719 H         1 RES1    0.0000
     26 H3         7.3804    3.5400   11.0307 H         1 RES1    0.0000
     27 H4         6.6761    2.2752   11.7133 H         1 RES1    0.0000
     28 H5         6.5722    3.7174   12.4011 H         1 RES1    0.0000
     29 H6         6.8944   -0.1361    8.2198 H         1 RES1    0.0000
     30 H7         7.9376   -0.1883    9.4341 H         1 RES1    0.0000
     31 H8         9.1701    1.5549    8.4447 H         1 RES1    0.0000
     32 H9         8.1302    1.6002    7.2290 H         1 RES1    0.0000
     33 H10        9.0570    0.3134    7.4420 H         1 RES1    0.0000
     34 H11        5.6360    6.5535    5.7462 H         1 RES1    0.0000
     35 H12        6.0480    5.4028    8.0055 H         1 RES1    0.0000
     36 H13        1.3909    5.2502   11.6776 H         1 RES1    0.0000
     37 H14        2.5255    6.3638   11.8548 H         1 RES1    0.0000
     38 H15        2.4904    5.0963   12.8297 H         1 RES1    0.0000
@<TRIPOS>BOND
     1    1   15 2
     2    2   15 1
     3    3   18 1
     4    4    7 2
     5    5    7 2
     6    6    9 1
     7    7   19 1
     8    8   22 3
     9    9   10 2
    10   10   11 1
    11   11   12 1
    12   12   13 2
    13   13    6 1
    14   14    9 1
    15   15   10 1
    16   16    2 1
    17   17   16 1
    18   18   11 1
    19   19    3 1
    20   20   19 2
    21   21   18 2
    22   22   12 1
    23   23   13 1
    24   24    6 1
    25   25   11 1
    26   26   14 1
    27   27   14 1
    28   28   14 1
    29   29   16 1
    30   30   16 1
    31   31   17 1
    32   32   17 1
    33   33   17 1
    34   34   20 1
    35   35   21 1
    36   36   23 1
    37   37   23 1
    38   38   23 1
    39   20   21 1
@<TRIPOS>SUBSTRUCTURE
     1 RES1 1

@<TRIPOS>CRYSIN
   8.0214   13.7477   13.2847  90.0000  95.3019  90.0000  14 1

