# MOL2 file generated by ConQuest
# Please check atom types

@<TRIPOS>MOLECULE
MAZWUG
    46    47     1
SMALL
NO_CHARGES
****
Generated from CSD

@<TRIPOS>ATOM
      1 O1         2.5717    2.9144    5.4864 O.2       1 RES1    0.0000
      2 O2         1.1956    1.7898    6.8543 O.3       1 RES1    0.0000
      3 O3         4.8939    4.8452    5.5680 O.3       1 RES1    0.0000
      4 O4         6.3337    5.2257    3.4147 O.2       1 RES1    0.0000
      5 O5         7.8589    3.8227    4.1026 O.2       1 RES1    0.0000
      6 O6         3.8269    8.3492    8.6145 O.2       1 RES1    0.0000
      7 O7         4.0620    7.3891    6.6036 O.3       1 RES1    0.0000
      8 N1         2.0635    4.6564    9.8428 N.3       1 RES1    0.0000
      9 N2         6.8049    4.4493    4.2476 N.pl3     1 RES1    0.0000
     10 C1         1.7784    3.6687    8.9267 C.2       1 RES1    0.0000
     11 C2         2.2204    3.7957    7.6460 C.2       1 RES1    0.0000
     12 C3         3.0538    4.9931    7.1918 C.3       1 RES1    0.0000
     13 C4         3.1166    6.0742    8.2673 C.2       1 RES1    0.0000
     14 C5         2.6810    5.8469    9.5254 C.2       1 RES1    0.0000
     15 C6         0.9899    2.5386    9.5354 C.3       1 RES1    0.0000
     16 C7         2.0275    2.8147    6.5720 C.2       1 RES1    0.0000
     17 C8         0.9413    0.8693    5.7565 C.3       1 RES1    0.0000
     18 C9        -0.1176   -0.0956    6.2164 C.3       1 RES1    0.0000
     19 C10        4.4315    4.5135    6.8147 C.2       1 RES1    0.0000
     20 C11        6.0943    4.2346    5.4587 C.2       1 RES1    0.0000
     21 C12        6.4278    3.5402    6.5709 C.2       1 RES1    0.0000
     22 C13        5.3394    3.7307    7.4574 C.2       1 RES1    0.0000
     23 C14        3.6850    7.3805    7.8993 C.2       1 RES1    0.0000
     24 C15        4.7089    8.6069    6.1541 C.3       1 RES1    0.0000
     25 C16        5.0620    8.4236    4.7063 C.3       1 RES1    0.0000
     26 C17        2.8013    6.7902   10.6939 C.3       1 RES1    0.0000
     27 H1         1.8406    4.5231   10.6632 H         1 RES1    0.0000
     28 H2         0.1127    2.4823    9.1035 H         1 RES1    0.0000
     29 H3         0.8713    2.7023   10.4947 H         1 RES1    0.0000
     30 H4         1.4734    1.6963    9.4056 H         1 RES1    0.0000
     31 H5         1.7700    0.3824    5.5189 H         1 RES1    0.0000
     32 H6         0.6293    1.3656    4.9591 H         1 RES1    0.0000
     33 H7         2.6241    5.3849    6.3781 H         1 RES1    0.0000
     34 H8         0.2085   -0.5902    6.9978 H         1 RES1    0.0000
     35 H9        -0.3219   -0.7253    5.4938 H         1 RES1    0.0000
     36 H10       -0.9279    0.3990    6.4575 H         1 RES1    0.0000
     37 H11        7.2180    3.0346    6.7235 H         1 RES1    0.0000
     38 H12        5.2589    3.3775    8.3361 H         1 RES1    0.0000
     39 H13        5.5266    8.7761    6.6859 H         1 RES1    0.0000
     40 H14        4.0986    9.3784    6.2625 H         1 RES1    0.0000
     41 H15        5.6722    7.6624    4.6123 H         1 RES1    0.0000
     42 H16        5.4986    9.2343    4.3714 H         1 RES1    0.0000
     43 H17        4.2463    8.2541    4.1903 H         1 RES1    0.0000
     44 H18        3.7426    7.0297   10.8247 H         1 RES1    0.0000
     45 H19        2.4587    6.3545   11.5029 H         1 RES1    0.0000
     46 H20        2.2804    7.6002   10.5142 H         1 RES1    0.0000
@<TRIPOS>BOND
     1    1   16 2
     2    2   16 1
     3    3   19 1
     4    4    9 2
     5    5    9 2
     6    6   23 2
     7    7   23 1
     8    8   10 1
     9    9   20 1
    10   10   11 2
    11   11   12 1
    12   12   13 1
    13   13   14 2
    14   14    8 1
    15   15   10 1
    16   16   11 1
    17   17    2 1
    18   18   17 1
    19   19   12 1
    20   20    3 1
    21   21   20 2
    22   22   19 2
    23   23   13 1
    24   24    7 1
    25   25   24 1
    26   26   14 1
    27   27    8 1
    28   28   15 1
    29   29   15 1
    30   30   15 1
    31   31   17 1
    32   32   17 1
    33   33   12 1
    34   34   18 1
    35   35   18 1
    36   36   18 1
    37   37   21 1
    38   38   22 1
    39   39   24 1
    40   40   24 1
    41   41   25 1
    42   42   25 1
    43   43   25 1
    44   44   26 1
    45   45   26 1
    46   46   26 1
    47   21   22 1
@<TRIPOS>SUBSTRUCTURE
     1 RES1 1

@<TRIPOS>CRYSIN
   8.0511   15.1730   14.4700  90.0000 105.7600  90.0000  14 1

