# MOL2 file generated by ConQuest
# Please check atom types

@<TRIPOS>MOLECULE
MAZXIU
    42    44     2
SMALL
NO_CHARGES
****
Generated from CSD

@<TRIPOS>ATOM
      1 O1         8.5255    2.6960    4.1915 O.2       1 RES1    0.0000
      2 O2         7.9190    0.3314    2.4255 O.2       1 RES1    0.0000
      3 O3         8.0963    2.1712    1.3239 O.2       1 RES1    0.0000
      4 N1         7.5341    1.4419    2.1023 N.pl3     1 RES1    0.0000
      5 C1         4.9312    3.1146    4.2431 C.ar      1 RES1    0.0000
      6 C2         3.7899    2.6110    3.6316 C.ar      1 RES1    0.0000
      7 H1         2.9532    2.8662    3.9450 H         1 RES1    0.0000
      8 C3         3.8765    1.7417    2.5704 C.ar      1 RES1    0.0000
      9 H2         3.0938    1.4087    2.1949 H         1 RES1    0.0000
     10 C4         5.1068    1.3439    2.0415 C.ar      1 RES1    0.0000
     11 C5         6.2323    1.8797    2.6517 C.ar      1 RES1    0.0000
     12 C6         6.1940    2.7324    3.7583 C.ar      1 RES1    0.0000
     13 C7         7.4342    3.1271    4.4928 C.2       1 RES1    0.0000
     14 C8         7.2521    4.0171    5.7203 C.3       1 RES1    0.0000
     15 H3         8.0447    4.5830    5.8247 H         1 RES1    0.0000
     16 C9         6.0293    4.9009    5.5878 C.3       1 RES1    0.0000
     17 H4         5.9440    5.4683    6.3701 H         1 RES1    0.0000
     18 H5         6.1147    5.4683    4.8055 Du        2 SUP2    0.0000
     19 C10        5.1840    0.3662    0.8965 C.3       1 RES1    0.0000
     20 H6         4.2964    0.1437    0.6057 H         1 RES1    0.0000
     21 H7         5.6347   -0.4305    1.1868 H         1 RES1    0.0000
     22 H8         5.6694    0.7619    0.1699 H         1 RES1    0.0000
     23 C8F        4.8065    4.0171    5.4552 C.3       1 RES1    0.0000
     24 C7F        4.6245    3.1271    6.6828 C.2       1 RES1    0.0000
     25 O1F        3.5331    2.6960    6.9840 O.2       1 RES1    0.0000
     26 C6F        5.8647    2.7324    7.4172 C.ar      1 RES1    0.0000
     27 C1F        7.1274    3.1146    6.9324 C.ar      1 RES1    0.0000
     28 C2F        8.2687    2.6110    7.5439 C.ar      1 RES1    0.0000
     29 H1F        9.1055    2.8662    7.2306 H         1 RES1    0.0000
     30 C3F        8.1821    1.7417    8.6052 C.ar      1 RES1    0.0000
     31 H2F        8.9649    1.4087    8.9807 H         1 RES1    0.0000
     32 C4F        6.9519    1.3439    9.1340 C.ar      1 RES1    0.0000
     33 C5F        5.8264    1.8797    8.5238 C.ar      1 RES1    0.0000
     34 N1F        4.5245    1.4419    9.0732 N.pl3     1 RES1    0.0000
     35 O2F        4.1397    0.3314    8.7500 O.2       1 RES1    0.0000
     36 O3F        3.9624    2.1712    9.8517 O.2       1 RES1    0.0000
     37 C10F       6.8747    0.3662   10.2790 C.3       1 RES1    0.0000
     38 H6F        7.7623    0.1437   10.5698 H         1 RES1    0.0000
     39 H7F        6.4240   -0.4305    9.9887 H         1 RES1    0.0000
     40 H8F        6.3893    0.7619   11.0057 H         1 RES1    0.0000
     41 H3F        4.0139    4.5830    5.3509 H         1 RES1    0.0000
     42 H4F        6.1147    5.4683    4.8055 H         1 RES1    0.0000
@<TRIPOS>BOND
     1    1   13 2
     2    2    4 2
     3    3    4 2
     4    4   11 1
     5    5    6 ar
     6    6    7 1
     7    8    6 ar
     8    9    8 1
     9   10    8 ar
    10   11   10 ar
    11   12    5 ar
    12   13   12 1
    13   14   13 1
    14   15   14 1
    15   16   14 1
    16   17   16 1
    17   19   10 1
    18   20   19 1
    19   21   19 1
    20   22   19 1
    21   23    5 1
    22   24   23 1
    23   25   24 2
    24   26   24 1
    25   27   14 1
    26   28   27 ar
    27   29   28 1
    28   30   28 ar
    29   31   30 1
    30   32   30 ar
    31   33   26 ar
    32   34   33 1
    33   35   34 2
    34   36   34 2
    35   37   32 1
    36   38   37 1
    37   39   37 1
    38   40   37 1
    39   41   23 1
    40   42   16 1
    41   11   12 ar
    42   16   23 1
    43   26   27 ar
    44   32   33 ar
@<TRIPOS>SUBSTRUCTURE
     1 RES1 1
     2 SUP2 18

@<TRIPOS>CRYSIN
  14.1687    5.1867   22.7460  90.0000 100.6920  90.0000  15 1

