# MOL2 file generated by ConQuest
# Please check atom types

@<TRIPOS>MOLECULE
MAZYIW
    32    33     1
SMALL
NO_CHARGES
****
Generated from CSD

@<TRIPOS>ATOM
      1 O1        10.2441    9.1971    1.1665 O.2       1 RES1    0.0000
      2 O2        10.9963    8.5091    3.1788 O.3       1 RES1    0.0000
      3 O3        15.5374    6.8538    3.5496 O.2       1 RES1    0.0000
      4 O4        17.0599    7.7300    2.2871 O.2       1 RES1    0.0000
      5 O5        15.7866    9.9851   -1.7352 O.2       1 RES1    0.0000
      6 O6        13.7881   10.8042   -1.9218 O.2       1 RES1    0.0000
      7 N1        15.8944    7.5411    2.6035 N.pl3     1 RES1    0.0000
      8 N2        14.6387   10.1432   -1.3331 N.pl3     1 RES1    0.0000
      9 C1        12.5796    8.8419    1.4853 C.ar      1 RES1    0.0000
     10 C2        13.5449    8.1942    2.2484 C.ar      1 RES1    0.0000
     11 C3        14.8560    8.2101    1.7986 C.ar      1 RES1    0.0000
     12 C4        15.2424    8.8469    0.6418 C.ar      1 RES1    0.0000
     13 C5        14.2500    9.4759   -0.0815 C.ar      1 RES1    0.0000
     14 C6        12.9233    9.4923    0.3037 C.ar      1 RES1    0.0000
     15 C7        11.1414    8.8676    1.9013 C.2       1 RES1    0.0000
     16 C8         9.6339    8.5598    3.7259 C.3       1 RES1    0.0000
     17 C9         8.9547    7.2227    3.6099 C.ar      1 RES1    0.0000
     18 C10        9.0688    6.2981    4.6430 C.ar      1 RES1    0.0000
     19 C11        8.4405    5.0650    4.5506 C.ar      1 RES1    0.0000
     20 C12        7.6981    4.7497    3.4240 C.ar      1 RES1    0.0000
     21 C13        7.5914    5.6562    2.3849 C.ar      1 RES1    0.0000
     22 C14        8.2155    6.8928    2.4779 C.ar      1 RES1    0.0000
     23 H1        13.3126    7.7532    3.0569 H         1 RES1    0.0000
     24 H2        16.1486    8.8542    0.3550 H         1 RES1    0.0000
     25 H3        12.2658    9.9344   -0.2216 H         1 RES1    0.0000
     26 H4         9.1065    9.2400    3.2356 H         1 RES1    0.0000
     27 H5         9.6717    8.8292    4.6780 H         1 RES1    0.0000
     28 H6         9.5799    6.5124    5.4146 H         1 RES1    0.0000
     29 H7         8.5185    4.4375    5.2594 H         1 RES1    0.0000
     30 H8         7.2610    3.9079    3.3648 H         1 RES1    0.0000
     31 H9         7.0921    5.4322    1.6084 H         1 RES1    0.0000
     32 H10        8.1369    7.5155    1.7654 H         1 RES1    0.0000
@<TRIPOS>BOND
     1    1   15 2
     2    2   15 1
     3    3    7 2
     4    4    7 2
     5    5    8 2
     6    6    8 2
     7    7   11 1
     8    8   13 1
     9    9   10 ar
    10   10   11 ar
    11   11   12 ar
    12   12   13 ar
    13   13   14 ar
    14   14    9 ar
    15   15    9 1
    16   16    2 1
    17   17   16 1
    18   18   17 ar
    19   19   18 ar
    20   20   19 ar
    21   21   20 ar
    22   22   17 ar
    23   23   10 1
    24   24   12 1
    25   25   14 1
    26   26   16 1
    27   27   16 1
    28   28   18 1
    29   29   19 1
    30   30   20 1
    31   31   21 1
    32   32   22 1
    33   21   22 ar
@<TRIPOS>SUBSTRUCTURE
     1 RES1 1

@<TRIPOS>CRYSIN
  20.8531   20.8531    6.0377  90.0000  90.0000  90.0000  86 1

