# MOL2 file generated by ConQuest
# Please check atom types

@<TRIPOS>MOLECULE
MAZZOD
    27    27     1
SMALL
NO_CHARGES
****
Generated from CSD

@<TRIPOS>ATOM
      1 O1         2.1849    5.9012    4.7193 O.2       1 RES1    0.0000
      2 O2        -1.7445    3.9432    5.4751 O.2       1 RES1    0.0000
      3 O3        -2.3367    1.9060    5.1710 O.2       1 RES1    0.0000
      4 O4         2.9959    9.4467    5.0868 O.3       1 RES1    0.0000
      5 O5         2.1163    8.6818    3.2011 O.2       1 RES1    0.0000
      6 N1         2.5678    4.4973    2.9775 N.am      1 RES1    0.0000
      7 N2        -1.5679    2.8344    4.9974 N.pl3     1 RES1    0.0000
      8 C1         2.7947    5.6096    3.7023 C.2       1 RES1    0.0000
      9 C2         3.8904    6.4842    3.1518 C.3       1 RES1    0.0000
     10 C3         4.1373    7.6993    4.0143 C.3       1 RES1    0.0000
     11 C4         2.9818    8.6410    4.0641 C.2       1 RES1    0.0000
     12 C5         1.6323    3.4701    3.2408 C.ar      1 RES1    0.0000
     13 C6         0.4702    3.6902    3.9570 C.ar      1 RES1    0.0000
     14 C7        -0.3653    2.6121    4.1854 C.ar      1 RES1    0.0000
     15 C8        -0.1175    1.3475    3.7052 C.ar      1 RES1    0.0000
     16 C9         1.0242    1.1599    2.9715 C.ar      1 RES1    0.0000
     17 C10        1.8969    2.2003    2.7405 C.ar      1 RES1    0.0000
     18 H1         3.0796    4.3373    2.2660 H         1 RES1    0.0000
     19 H2         3.6497    6.7722    2.2568 H         1 RES1    0.0000
     20 H3         4.7089    5.9665    3.0878 H         1 RES1    0.0000
     21 H4         4.3420    7.4057    4.9167 H         1 RES1    0.0000
     22 H5         4.9130    8.1718    3.6753 H         1 RES1    0.0000
     23 H6         0.2574    4.5373    4.2760 H         1 RES1    0.0000
     24 H7        -0.7039    0.6454    3.8722 H         1 RES1    0.0000
     25 H8         1.2129    0.3167    2.6250 H         1 RES1    0.0000
     26 H9         2.6700    2.0529    2.2452 H         1 RES1    0.0000
     27 H10        2.3413    9.9416    5.0538 H         1 RES1    0.0000
@<TRIPOS>BOND
     1    1    8 2
     2    2    7 2
     3    3    7 2
     4    4   11 1
     5    5   11 2
     6    6    8 1
     7    7   14 1
     8    8    9 1
     9    9   10 1
    10   10   11 1
    11   12    6 1
    12   13   12 ar
    13   14   13 ar
    14   15   14 ar
    15   16   15 ar
    16   17   12 ar
    17   18    6 1
    18   19    9 1
    19   20    9 1
    20   21   10 1
    21   22   10 1
    22   23   13 1
    23   24   15 1
    24   25   16 1
    25   26   17 1
    26   27    4 1
    27   16   17 ar
@<TRIPOS>SUBSTRUCTURE
     1 RES1 1

@<TRIPOS>CRYSIN
   6.6765   19.7961    9.0675  90.0000 113.5950  90.0000  14 1

