# MOL2 file generated by ConQuest
# Please check atom types

@<TRIPOS>MOLECULE
MBXHNO
    90    88     2
SMALL
NO_CHARGES
****
Generated from CSD

@<TRIPOS>ATOM
      1 C1        11.8377   12.9056    5.0297 C.3       1 RES1    0.0000
      2 C2         9.6960   12.0660    4.4945 C.2       1 RES1    0.0000
      3 C3         8.7745   11.6704    3.3820 C.3       1 RES1    0.0000
      4 C4         7.3474   11.3852    3.8516 C.3       1 RES1    0.0000
      5 C5         6.4233   11.0085    2.6735 C.3       1 RES1    0.0000
      6 C6         4.9822   10.8282    3.1396 C.3       1 RES1    0.0000
      7 C7         4.0454   10.3573    2.0294 C.3       1 RES1    0.0000
      8 C8         2.6067   10.2173    2.5318 C.3       1 RES1    0.0000
      9 C9         2.4738    9.1625    3.6139 C.3       1 RES1    0.0000
     10 C10        0.6886    7.9947    4.7709 C.3       1 RES1    0.0000
     11 C11       -0.7518    8.3660    5.1304 C.3       1 RES1    0.0000
     12 C12        1.5390    7.8601    6.0332 C.3       1 RES1    0.0000
     13 C13        0.6858    6.7434    3.9453 C.3       1 RES1    0.0000
     14 N1         1.7340    9.8110    1.3514 N.pl3     1 RES1    0.0000
     15 O1        10.8526   12.5154    4.0237 O.3       1 RES1    0.0000
     16 O2         9.4780   11.9907    5.6878 O.2       1 RES1    0.0000
     17 O3         3.9346   11.3045    0.9649 O.3       1 RES1    0.0000
     18 O4         0.8453   10.5672    1.0106 O.2       1 RES1    0.0000
     19 O5         1.9596    8.7589    0.7998 O.2       1 RES1    0.0000
     20 O6         1.0987    9.1302    3.9617 O.3       1 RES1    0.0000
     21 H1        12.2365   13.4545    4.5554 H         1 RES1    0.0000
     22 H2        12.1130   12.0821    5.6796 H         1 RES1    0.0000
     23 H3        11.3675   13.6160    5.6093 H         1 RES1    0.0000
     24 H4         8.7305   12.4589    2.5295 H         1 RES1    0.0000
     25 H5         9.1684   10.7367    2.8105 H         1 RES1    0.0000
     26 H6         6.9198   12.3243    4.3446 H         1 RES1    0.0000
     27 H7         7.2559   10.6021    4.4617 H         1 RES1    0.0000
     28 H8         6.3168   11.7861    2.0025 H         1 RES1    0.0000
     29 H9         6.8866   10.1447    2.3421 H         1 RES1    0.0000
     30 H10        4.9033   10.1447    4.0167 H         1 RES1    0.0000
     31 H11        4.5717   11.8400    3.5131 H         1 RES1    0.0000
     32 H12        4.3827    9.4451    1.4872 H         1 RES1    0.0000
     33 H13        2.2487   11.2749    2.8574 H         1 RES1    0.0000
     34 H14        2.8574    9.4451    4.4617 H         1 RES1    0.0000
     35 H15        2.6988    8.2342    3.2672 H         1 RES1    0.0000
     36 H16       -1.0400    7.7498    5.7030 H         1 RES1    0.0000
     37 H17       -1.3094    8.5032    4.1806 H         1 RES1    0.0000
     38 H18       -0.7542    9.2836    5.6562 H         1 RES1    0.0000
     39 H19        1.1072    7.0502    6.6281 H         1 RES1    0.0000
     40 H20        1.5128    8.7723    6.5110 H         1 RES1    0.0000
     41 H21        2.5338    7.8036    5.7850 H         1 RES1    0.0000
     42 H22        0.3401    6.0007    4.3914 H         1 RES1    0.0000
     43 H23        1.5567    6.4313    3.6654 H         1 RES1    0.0000
     44 H24        0.3192    6.7003    2.8925 H         1 RES1    0.0000
     45 H25        4.6555   11.2749    0.4567 H         1 RES1    0.0000
     46 C14        6.2615    0.5113    4.9875 C.3       2 RES2    0.0000
     47 C15        4.2944    1.5688    4.1268 C.2       2 RES2    0.0000
     48 C16        3.5914    2.0343    2.8667 C.3       2 RES2    0.0000
     49 C17        2.1924    2.6129    3.0974 C.3       2 RES2    0.0000
     50 C18        1.1655    1.5473    3.3890 C.3       2 RES2    0.0000
     51 C19       -0.2512    2.1097    3.5881 C.3       2 RES2    0.0000
     52 C20       -0.9171    2.6317    2.3011 C.3       2 RES2    0.0000
     53 C21       -2.3737    3.0165    2.5423 C.3       2 RES2    0.0000
     54 C22       -2.5637    4.1036    3.5799 C.3       2 RES2    0.0000
     55 C23       -4.3401    5.5379    4.4031 C.3       2 RES2    0.0000
     56 C24       -5.8510    5.4006    4.4722 C.3       2 RES2    0.0000
     57 C25       -3.7098    5.5567    5.8014 C.3       2 RES2    0.0000
     58 C26       -4.0037    6.7703    3.5822 C.3       2 RES2    0.0000
     59 N2        -2.9857    3.5062    1.2249 N.pl3     2 RES2    0.0000
     60 O7         5.4382    0.9391    3.8528 O.3       2 RES2    0.0000
     61 O8         3.9593    1.7598    5.2604 O.2       2 RES2    0.0000
     62 O9        -0.9807    1.6280    1.2964 O.3       2 RES2    0.0000
     63 O10       -3.9280    2.9035    0.7612 O.2       2 RES2    0.0000
     64 O11       -2.4914    4.4615    0.6979 O.2       2 RES2    0.0000
     65 O12       -3.9551    4.3593    3.6513 O.3       2 RES2    0.0000
     66 H26        6.9263   -0.0807    4.6491 H         2 RES2    0.0000
     67 H27        5.6247   -0.0269    5.5156 H         2 RES2    0.0000
     68 H28        6.4707    1.3185    5.5391 H         2 RES2    0.0000
     69 H29        3.4815    1.0764    2.1430 H         2 RES2    0.0000
     70 H30        4.2805    2.7178    2.5295 H         2 RES2    0.0000
     71 H31        2.1452    3.3098    3.8762 H         2 RES2    0.0000
     72 H32        1.8739    3.2829    2.4124 H         2 RES2    0.0000
     73 H33        1.4635    1.0764    4.3095 H         2 RES2    0.0000
     74 H34        1.1130    0.8342    2.6232 H         2 RES2    0.0000
     75 H35       -0.7667    1.3185    4.0284 H         2 RES2    0.0000
     76 H36       -0.1769    2.8524    4.2626 H         2 RES2    0.0000
     77 H37       -0.3428    3.3636    1.9088 H         2 RES2    0.0000
     78 H38       -2.9050    2.0989    2.7051 H         2 RES2    0.0000
     79 H39       -2.3684    3.7673    4.4968 H         2 RES2    0.0000
     80 H40       -2.0326    4.8974    3.3024 H         2 RES2    0.0000
     81 H41       -6.2377    6.0814    4.9418 H         2 RES2    0.0000
     82 H42       -6.2559    5.2742    3.6771 H         2 RES2    0.0000
     83 H43       -5.9279    4.5745    5.2346 H         2 RES2    0.0000
     84 H44       -4.0768    6.4313    6.3939 H         2 RES2    0.0000
     85 H45       -4.0156    4.6283    6.2885 H         2 RES2    0.0000
     86 H46       -2.7268    5.5433    5.7499 H         2 RES2    0.0000
     87 H47       -3.6590    7.5076    2.5763 H         2 RES2    0.0000
     88 H48       -3.1798    6.7272    3.7942 H         2 RES2    0.0000
     89 H49       -4.4934    6.7811    2.5763 H         2 RES2    0.0000
     90 H50       -0.3269    1.8029    0.7963 H         2 RES2    0.0000
@<TRIPOS>BOND
     1    1   15 1
     2    2    3 1
     3    3    4 1
     4    4    5 1
     5    5    6 1
     6    6    7 1
     7    7    8 1
     8    8    9 1
     9    9   20 1
    10   10   11 1
    11   11   36 1
    12   12   10 1
    13   13   10 1
    14   14    8 1
    15   15    2 1
    16   16    2 2
    17   17    7 1
    18   18   14 2
    19   19   14 2
    20   20   10 1
    21   21    1 1
    22   22    1 1
    23   23    1 1
    24   24    3 1
    25   25    3 1
    26   26    4 1
    27   27    4 1
    28   28    5 1
    29   29    5 1
    30   30    6 1
    31   31    6 1
    32   32    7 1
    33   33    8 1
    34   34    9 1
    35   35    9 1
    36   37   11 1
    37   38   11 1
    38   39   12 1
    39   40   12 1
    40   41   12 1
    41   42   13 1
    42   43   13 1
    43   44   13 1
    44   45   17 1
    45   46   60 1
    46   47   48 1
    47   48   49 1
    48   49   50 1
    49   50   51 1
    50   51   52 1
    51   52   53 1
    52   53   54 1
    53   54   65 1
    54   55   56 1
    55   56   81 1
    56   57   55 1
    57   58   55 1
    58   59   53 1
    59   60   47 1
    60   61   47 2
    61   62   52 1
    62   63   59 2
    63   64   59 2
    64   65   55 1
    65   66   46 1
    66   67   46 1
    67   68   46 1
    68   69   48 1
    69   70   48 1
    70   71   49 1
    71   72   49 1
    72   73   50 1
    73   74   50 1
    74   75   51 1
    75   76   51 1
    76   77   52 1
    77   78   53 1
    78   79   54 1
    79   80   54 1
    80   82   56 1
    81   83   56 1
    82   84   57 1
    83   85   57 1
    84   86   57 1
    85   87   58 1
    86   88   58 1
    87   89   58 1
    88   90   62 1
@<TRIPOS>SUBSTRUCTURE
     1 RES1 1
     2 RES2 46

@<TRIPOS>CRYSIN
  10.3010   26.9090   12.5470  90.0000 111.0400  90.0000  14 1

