# MOL2 file generated by ConQuest
# Please check atom types

@<TRIPOS>MOLECULE
MBYIOZ
    20    21     1
SMALL
NO_CHARGES
****
Generated from CSD

@<TRIPOS>ATOM
      1 C1         0.6767    3.4081    1.6072 C.ar      1 RES1    0.0000
      2 C2         3.8141    3.7879   -0.6358 C.2       1 RES1    0.0000
      3 C3         4.3933    2.4094   -0.7885 C.3       1 RES1    0.0000
      4 C4         0.1893    2.2071    2.1458 C.ar      1 RES1    0.0000
      5 C5        -0.9674    2.2041    2.9544 C.ar      1 RES1    0.0000
      6 C6        -1.5930    3.4175    3.1951 C.ar      1 RES1    0.0000
      7 C7        -1.1279    4.5818    2.6687 C.ar      1 RES1    0.0000
      8 C8         0.0065    4.5912    1.8786 C.ar      1 RES1    0.0000
      9 C9         1.8821    3.2656    0.7872 C.2       1 RES1    0.0000
     10 C10        2.6415    4.1641    0.1128 C.2       1 RES1    0.0000
     11 C11        2.5668    5.6039   -0.0922 C.2       1 RES1    0.0000
     12 H1         0.5994    1.3010    1.9662 H         1 RES1    0.0000
     13 H2        -1.3049    1.2666    3.4190 H         1 RES1    0.0000
     14 H3        -2.4244    3.4982    3.8100 H         1 RES1    0.0000
     15 H4        -1.7178    5.4666    2.8325 H         1 RES1    0.0000
     16 H5         0.2591    5.5232    1.3640 H         1 RES1    0.0000
     17 H6         2.1953    2.1978    0.7314 H         1 RES1    0.0000
     18 N1         4.3758    4.7664   -1.2022 N.2       1 RES1    0.0000
     19 O1         3.6150    5.9489   -0.9003 O.3       1 RES1    0.0000
     20 O2         1.8033    6.4601    0.2975 O.2       1 RES1    0.0000
@<TRIPOS>BOND
     1    1    4 ar
     2    2    3 1
     3    4    5 ar
     4    5    6 ar
     5    6    7 ar
     6    7    8 ar
     7    8    1 ar
     8    9    1 1
     9   10    2 1
    10   11   10 1
    11   12    4 1
    12   13    5 1
    13   14    6 1
    14   15    7 1
    15   16    8 1
    16   17    9 1
    17   18    2 2
    18   19   11 1
    19   20   11 2
    20    9   10 2
    21   18   19 1
@<TRIPOS>SUBSTRUCTURE
     1 RES1 1

@<TRIPOS>CRYSIN
  12.1400    6.7480   12.3250  90.0000 114.2700  90.0000 231 1

