# MOL2 file generated by ConQuest
# Please check atom types

@<TRIPOS>MOLECULE
MBYIOZ01
    23    24     1
SMALL
NO_CHARGES
****
Generated from CSD

@<TRIPOS>ATOM
      1 O1         1.6822    0.2782    5.3185 O.2       1 RES1    0.0000
      2 O2        -0.1197    0.8064    6.5056 O.3       1 RES1    0.0000
      3 N1        -0.8938    1.9859    6.8217 N.2       1 RES1    0.0000
      4 C1         0.9329    1.1387    5.6994 C.2       1 RES1    0.0000
      5 C2         0.8548    2.5939    5.4935 C.2       1 RES1    0.0000
      6 C3        -0.3211    2.9798    6.2456 C.2       1 RES1    0.0000
      7 C4        -0.8915    4.3367    6.4030 C.3       1 RES1    0.0000
      8 C5         1.6316    3.4741    4.8175 C.2       1 RES1    0.0000
      9 C6         2.8268    3.3380    4.0022 C.ar      1 RES1    0.0000
     10 C7         3.4970    2.1387    3.7382 C.ar      1 RES1    0.0000
     11 C8         4.6270    2.1448    2.9482 C.ar      1 RES1    0.0000
     12 C9         5.1191    3.3125    2.4160 C.ar      1 RES1    0.0000
     13 C10        4.4826    4.5044    2.6775 C.ar      1 RES1    0.0000
     14 C11        3.3477    4.5192    3.4634 C.ar      1 RES1    0.0000
     15 H1        -1.6050    4.3111    7.0450 H         1 RES1    0.0000
     16 H2        -1.2318    4.6404    5.5580 H         1 RES1    0.0000
     17 H3        -0.2082    4.9374    6.7074 H         1 RES1    0.0000
     18 H4         1.3372    4.3529    4.8907 H         1 RES1    0.0000
     19 H5         3.1807    1.3401    4.0944 H         1 RES1    0.0000
     20 H6         5.0645    1.3428    2.7722 H         1 RES1    0.0000
     21 H7         5.8793    3.2970    1.8807 H         1 RES1    0.0000
     22 H8         4.8158    5.2976    2.3259 H         1 RES1    0.0000
     23 H9         2.9225    5.3279    3.6369 H         1 RES1    0.0000
@<TRIPOS>BOND
     1    1    4 2
     2    2    3 1
     3    3    6 2
     4    4    2 1
     5    5    4 1
     6    6    5 1
     7    7    6 1
     8    8    5 2
     9    9    8 1
    10   10    9 ar
    11   11   10 ar
    12   12   11 ar
    13   13   12 ar
    14   14    9 ar
    15   15    7 1
    16   16    7 1
    17   17    7 1
    18   18    8 1
    19   19   10 1
    20   20   11 1
    21   21   12 1
    22   22   13 1
    23   23   14 1
    24   13   14 ar
@<TRIPOS>SUBSTRUCTURE
     1 RES1 1

@<TRIPOS>CRYSIN
  12.1440    6.7340   12.3330  90.0000 114.5890  90.0000 231 1

