# MOL2 file generated by ConQuest
# Please check atom types

@<TRIPOS>MOLECULE
MBZFZO
    14    15     1
SMALL
USER_CHARGES
****
Generated from CSD

@<TRIPOS>ATOM
      1 C1        -1.1818    1.8863    1.5941 C.2       1 RES1    0.0000
      2 C2        -1.5974    2.8745    2.4933 C.2       1 RES1    0.0000
      3 C3        -1.2430    4.2343    2.2548 C.2       1 RES1    0.0000
      4 C4        -0.5207    4.5141    1.1525 C.2       1 RES1    0.0000
      5 C5        -0.1058    3.4687    0.2419 C.2       1 RES1    0.0000
      6 C6        -0.4276    2.1615    0.4405 C.2       1 RES1    0.0000
      7 C7        -0.1252    5.9281    0.8068 C.3       1 RES1    0.0000
      8 H1        -1.5530    5.0391    2.9669 H         1 RES1    0.0000
      9 H2         0.4887    3.7003   -0.6733 H         1 RES1    0.0000
     10 H3        -0.1120    1.3688   -0.2625 H         1 RES1    0.0000
     11 N1        -1.6450    0.7265    2.0449 N.pl3     1 RES1    1.0000
     12 N2        -2.3112    2.3796    3.4998 N.2       1 RES1    0.0000
     13 O1        -1.5980   -0.4498    1.6717 O.2       1 RES1   -1.0000
     14 O2        -2.3691    1.0168    3.2579 O.3       1 RES1    0.0000
@<TRIPOS>BOND
     1    1    2 1
     2    2    3 1
     3    3    4 2
     4    4    5 1
     5    5    6 2
     6    6    1 1
     7    7    4 1
     8    8    3 1
     9    9    5 1
    10   10    6 1
    11   11    1 2
    12   12    2 2
    13   13   11 1
    14   14   11 1
    15   12   14 1
@<TRIPOS>SUBSTRUCTURE
     1 RES1 1

@<TRIPOS>CRYSIN
   4.0310   15.0420   11.4250  90.0000  92.8200  90.0000  14 1

