# MOL2 file generated by ConQuest
# Please check atom types

@<TRIPOS>MOLECULE
MBZOCZ20
    42    45     1
SMALL
NO_CHARGES
****
Generated from CSD

@<TRIPOS>ATOM
      1 O1        -8.2023   -3.5604    3.2546 O.3       1 RES1    0.0000
      2 N1        -9.6394   -3.0881    3.5639 N.3       1 RES1    0.0000
      3 C1        -8.2023   -3.1706    5.7135 C.ar      1 RES1    0.0000
      4 C2        -8.7581   -2.5079    6.8109 C.ar      1 RES1    0.0000
      5 C3        -8.5039   -2.9845    8.0947 C.ar      1 RES1    0.0000
      6 C4        -7.7129   -4.0826    8.2895 C.ar      1 RES1    0.0000
      7 C5        -7.1405   -4.7138    7.2230 C.ar      1 RES1    0.0000
      8 C6        -7.3899   -4.2661    5.9124 C.ar      1 RES1    0.0000
      9 C7        -8.0360   -1.2245    4.0235 C.ar      1 RES1    0.0000
     10 C8        -7.0051   -0.6513    4.7515 C.ar      1 RES1    0.0000
     11 C9        -6.5609    0.6443    4.4431 C.ar      1 RES1    0.0000
     12 C10       -7.1262    1.3413    3.3992 C.ar      1 RES1    0.0000
     13 C11       -8.1310    0.7611    2.6695 C.ar      1 RES1    0.0000
     14 C12       -8.5752   -0.5109    2.9654 C.ar      1 RES1    0.0000
     15 C13      -11.5920   -3.7623    4.8334 C.ar      1 RES1    0.0000
     16 C14      -12.5635   -3.0109    4.2149 C.ar      1 RES1    0.0000
     17 C15      -13.7203   -2.6395    4.8719 C.ar      1 RES1    0.0000
     18 C16      -13.9008   -3.0030    6.1749 C.ar      1 RES1    0.0000
     19 C17      -12.9388   -3.7333    6.8260 C.ar      1 RES1    0.0000
     20 C18      -11.7796   -4.1230    6.1690 C.ar      1 RES1    0.0000
     21 C19      -10.3662   -4.2679    4.0963 C.3       1 RES1    0.0000
     22 C20      -10.7297   -5.1588    2.9019 C.3       1 RES1    0.0000
     23 C21       -8.4588   -2.6369    4.3194 C.3       1 RES1    0.0000
     24 H1        -9.3828   -1.6766    6.6864 H         1 RES1    0.0000
     25 H2        -8.8840   -2.5017    8.8177 H         1 RES1    0.0000
     26 H3        -7.6013   -4.5382    9.2272 H         1 RES1    0.0000
     27 H4        -6.6749   -5.5916    7.3550 H         1 RES1    0.0000
     28 H5        -7.0549   -4.7752    5.1318 H         1 RES1    0.0000
     29 H6        -6.6749   -1.2114    5.4996 H         1 RES1    0.0000
     30 H7        -5.7960    1.0358    4.9312 H         1 RES1    0.0000
     31 H8        -6.8649    2.2911    3.1760 H         1 RES1    0.0000
     32 H9        -8.5277    1.3518    1.8722 H         1 RES1    0.0000
     33 H10       -9.3591   -0.9392    2.4489 H         1 RES1    0.0000
     34 H11      -12.4471   -2.6773    3.3181 H         1 RES1    0.0000
     35 H12      -14.5850   -2.0189    4.3294 H         1 RES1    0.0000
     36 H13      -14.8938   -2.6948    6.5192 H         1 RES1    0.0000
     37 H14      -13.0409   -4.0203    7.7479 H         1 RES1    0.0000
     38 H15      -11.0219   -4.7050    6.6446 H         1 RES1    0.0000
     39 H16       -9.7866   -4.8806    4.7473 H         1 RES1    0.0000
     40 H17       -9.9054   -5.5653    2.4071 H         1 RES1    0.0000
     41 H18      -11.3069   -5.9603    3.1928 H         1 RES1    0.0000
     42 H19      -11.2832   -4.6875    2.2817 H         1 RES1    0.0000
@<TRIPOS>BOND
     1    1    2 1
     2    2   21 1
     3    3    4 ar
     4    4    5 ar
     5    5    6 ar
     6    6    7 ar
     7    7    8 ar
     8    8    3 ar
     9    9   10 ar
    10   10   11 ar
    11   11   12 ar
    12   12   13 ar
    13   13   14 ar
    14   14    9 ar
    15   15   16 ar
    16   16   17 ar
    17   17   18 ar
    18   18   19 ar
    19   19   20 ar
    20   20   15 ar
    21   21   15 1
    22   22   21 1
    23   23    1 1
    24   24    4 1
    25   25    5 1
    26   26    6 1
    27   27    7 1
    28   28    8 1
    29   29   10 1
    30   30   11 1
    31   31   12 1
    32   32   13 1
    33   33   14 1
    34   34   16 1
    35   35   17 1
    36   36   18 1
    37   37   19 1
    38   38   20 1
    39   39   21 1
    40   40   22 1
    41   41   22 1
    42   42   22 1
    43    2   23 1
    44    3   23 1
    45    9   23 1
@<TRIPOS>SUBSTRUCTURE
     1 RES1 1

@<TRIPOS>CRYSIN
  23.7540    8.7780    8.3580  90.0000  90.0000  90.0000  19 1

