# MOL2 file generated by ConQuest
# Please check atom types

@<TRIPOS>MOLECULE
MBZPNA11
    18    19     1
SMALL
NO_CHARGES
****
Generated from CSD

@<TRIPOS>ATOM
      1 O1         7.9572    9.8617    5.9268 O.2       1 RES1    0.0000
      2 O2         6.7656   11.3275    6.9165 O.2       1 RES1    0.0000
      3 N1         6.9254   10.4831    6.0544 N.pl3     1 RES1    0.0000
      4 N2         2.5055    9.2860    2.6561 N.2       1 RES1    0.0000
      5 C1        -0.8848    7.1873   -0.3889 C.ar      1 RES1    0.0000
      6 C2         0.2985    6.4515   -0.4223 C.ar      1 RES1    0.0000
      7 C3         1.3838    6.8299    0.3603 C.ar      1 RES1    0.0000
      8 C4         1.3129    7.9476    1.2029 C.ar      1 RES1    0.0000
      9 C5         0.1219    8.6868    1.2371 C.ar      1 RES1    0.0000
     10 C6        -0.9487    8.3026    0.4467 C.ar      1 RES1    0.0000
     11 C7         2.4558    8.2068    1.9703 C.2       1 RES1    0.0000
     12 C8         3.6995    9.5931    3.5126 C.ar      1 RES1    0.0000
     13 C9         4.8215    8.7663    3.5259 C.ar      1 RES1    0.0000
     14 C10        5.9132    9.0536    4.3761 C.ar      1 RES1    0.0000
     15 C11        5.8255   10.1631    5.1588 C.ar      1 RES1    0.0000
     16 C12        4.7054   10.9934    5.1860 C.ar      1 RES1    0.0000
     17 C13        3.6450   10.7143    4.3273 C.ar      1 RES1    0.0000
     18 C14       -2.1146    6.8229   -1.2468 C.3       1 RES1    0.0000
@<TRIPOS>BOND
     1    1    3 2
     2    2    3 2
     3    3   15 1
     4    4   11 2
     5    5    6 ar
     6    6    7 ar
     7    7    8 ar
     8    8    9 ar
     9    9   10 ar
    10   10    5 ar
    11   11    8 1
    12   12    4 1
    13   13   12 ar
    14   14   13 ar
    15   15   14 ar
    16   16   15 ar
    17   17   12 ar
    18   18    5 1
    19   16   17 ar
@<TRIPOS>SUBSTRUCTURE
     1 RES1 1

@<TRIPOS>CRYSIN
   7.4190   11.6790    7.4470  90.0000 110.6300  90.0000   7 1

