# MOL2 file generated by ConQuest
# Please check atom types

@<TRIPOS>MOLECULE
MBZPNA12
    33    31     2
SMALL
NO_CHARGES
****
Generated from CSD

@<TRIPOS>ATOM
      1 N1         0.4273    1.7557    9.4615 N.2       1 RES1    0.0000
      2 N2        -5.1018    2.5003    8.8922 N.pl3     1 RES1    0.0000
      3 O1        -5.6816    3.0162    9.8384 O.2       1 RES1    0.0000
      4 O2        -5.6764    2.0930    7.8998 O.2       1 RES1    0.0000
      5 C1         2.7163    1.5673    8.8321 C.ar      1 RES1    0.0000
      6 C2         3.7091    1.8721    7.9074 C.ar      1 RES1    0.0000
      7 C3         5.0409    1.6406    8.2040 C.ar      1 RES1    0.0000
      8 C4         5.4241    1.1120    9.4255 C.ar      1 RES1    0.0000
      9 C5         4.4269    0.7787   10.3344 C.ar      1 RES1    0.0000
     10 C6         3.0953    0.9946   10.0482 C.ar      1 RES1    0.0000
     11 C7         1.3053    1.8620    8.5585 C.2       1 RES1    0.0000
     12 C8        -0.9326    2.0006    9.2003 C.ar      1 RES1    0.0000
     13 C9        -1.6160    2.8184   10.1016 C.ar      1 RES1    0.0000
     14 C10       -2.9711    3.0009    9.9834 C.ar      1 RES1    0.0000
     15 C11       -3.6448    2.3607    8.9663 C.ar      1 RES1    0.0000
     16 C12       -2.9980    1.5676    8.0369 C.ar      1 RES1    0.0000
     17 C13       -1.6305    1.3924    8.1611 C.ar      1 RES1    0.0000
     18 C14        6.8770    0.9122    9.7724 C.3       1 RES1    0.0000
     19 H1         3.4509    2.2769    7.0591 H         1 RES1    0.0000
     20 H2         5.7017    1.8756    7.5515 H         1 RES1    0.0000
     21 H3         4.6700    0.4014   11.1940 H         1 RES1    0.0000
     22 H4         2.4464    0.7517   10.6910 H         1 RES1    0.0000
     23 H5         1.1014    2.1894    7.6687 H         1 RES1    0.0000
     24 H6        -1.1532    0.8247    7.5248 H         1 RES1    0.0000
     25 H7        -3.4953    1.1312    7.3213 H         1 RES1    0.0000
     26 H8        -3.4141    3.5541   10.6238 H         1 RES1    0.0000
     27 H9        -1.1155    3.2330   10.8274 H         1 RES1    0.0000
     28 H10        7.4319    1.0509    8.9198 H         1 RES1    0.0000
     29 H11        7.1671    1.5107   10.3905 H         1 RES1    0.0000
     30 H12        7.0439   -0.0730   10.1560 H         1 RES1    0.0000
     31 H13        7.2964    1.8464    9.7297 Du        2 SUP2    0.0000
     32 H14        7.0457    0.6568   10.8061 Du        2 SUP2    0.0000
     33 H15        7.2884    0.3795    9.2289 Du        2 SUP2    0.0000
@<TRIPOS>BOND
     1    1   11 2
     2    2    3 2
     3    4    2 2
     4    5    6 ar
     5    6    7 ar
     6    7    8 ar
     7    8    9 ar
     8    9   10 ar
     9   10    5 ar
    10   11    5 1
    11   12    1 1
    12   13   12 ar
    13   14   13 ar
    14   15    2 1
    15   16   15 ar
    16   17   12 ar
    17   18    8 1
    18   19    6 1
    19   20    7 1
    20   21    9 1
    21   22   10 1
    22   23   11 1
    23   24   17 1
    24   25   16 1
    25   26   14 1
    26   27   13 1
    27   28   18 1
    28   29   18 1
    29   30   18 1
    30   14   15 ar
    31   16   17 ar
@<TRIPOS>SUBSTRUCTURE
     1 RES1 1
     2 SUP2 31

@<TRIPOS>CRYSIN
  15.5033    7.2979   12.7983  90.0000 123.6250  90.0000  14 1

