# MOL2 file generated by ConQuest
# Please check atom types

@<TRIPOS>MOLECULE
MCNPIZ
    58    62     1
SMALL
NO_CHARGES
****
Generated from CSD

@<TRIPOS>ATOM
      1 O1        -2.5647    2.4640   -1.0742 O.3       1 RES1    0.0000
      2 O2        -2.7622   -0.7904   -4.3575 O.2       1 RES1    0.0000
      3 O3        -7.9192   -4.1402   -1.8530 O.2       1 RES1    0.0000
      4 O4        -7.4935   -4.1224    0.2683 O.2       1 RES1    0.0000
      5 O5        -4.1249    1.7568   -5.1697 O.2       1 RES1    0.0000
      6 O6        -5.2120    2.4041   -3.3052 O.3       1 RES1    0.0000
      7 O7         0.2417   -1.2552   -4.4953 O.2       1 RES1    0.0000
      8 O8         0.9243   -0.8639   -2.4168 O.3       1 RES1    0.0000
      9 N1        -3.3956    1.4379   -0.6577 N.2       1 RES1    0.0000
     10 N2        -7.3719   -3.6839   -0.9030 N.pl3     1 RES1    0.0000
     11 C1        -3.7907    0.7147   -1.6578 C.2       1 RES1    0.0000
     12 C2        -3.2029    1.1853   -2.9857 C.3       1 RES1    0.0000
     13 C3        -2.2991    0.0939   -3.6539 C.2       1 RES1    0.0000
     14 C4        -0.9173    0.3190   -3.1559 C.2       1 RES1    0.0000
     15 C5        -0.8272    1.5231   -2.4732 C.2       1 RES1    0.0000
     16 C6        -2.1733    2.2436   -2.4627 C.3       1 RES1    0.0000
     17 C7        -4.7126   -0.4388   -1.4950 C.ar      1 RES1    0.0000
     18 C8        -5.4624   -0.9473   -2.5525 C.ar      1 RES1    0.0000
     19 C9        -6.3773   -1.9795   -2.3625 C.ar      1 RES1    0.0000
     20 C10       -6.4312   -2.5221   -1.1150 C.ar      1 RES1    0.0000
     21 C11       -5.7332   -2.0816   -0.0219 C.ar      1 RES1    0.0000
     22 C12       -4.8465   -0.9959   -0.2297 C.ar      1 RES1    0.0000
     23 C13       -4.2142    1.7708   -3.9598 C.2       1 RES1    0.0000
     24 C14       -6.1952    3.1014   -4.1216 C.3       1 RES1    0.0000
     25 C15        0.1419   -0.7108   -3.4336 C.2       1 RES1    0.0000
     26 C16        2.0605   -1.7782   -2.6266 C.3       1 RES1    0.0000
     27 C17        0.3784    2.1612   -1.9219 C.ar      1 RES1    0.0000
     28 C18        0.3743    2.6716   -0.6358 C.ar      1 RES1    0.0000
     29 C19        1.4979    3.3717   -0.1576 C.ar      1 RES1    0.0000
     30 C20        2.5417    3.5769   -0.9511 C.ar      1 RES1    0.0000
     31 C21        2.6056    3.0288   -2.1777 C.ar      1 RES1    0.0000
     32 C22        1.4416    2.3420   -2.6632 C.ar      1 RES1    0.0000
     33 C23       -2.1119    3.5699   -3.1768 C.ar      1 RES1    0.0000
     34 C24       -2.7731    4.6847   -2.7101 C.ar      1 RES1    0.0000
     35 C25       -2.7205    5.9062   -3.3616 C.ar      1 RES1    0.0000
     36 C26       -2.0123    6.0165   -4.5381 C.ar      1 RES1    0.0000
     37 C27       -1.3044    4.9604   -5.0685 C.ar      1 RES1    0.0000
     38 C28       -1.3721    3.7358   -4.3387 C.ar      1 RES1    0.0000
     39 H1        -5.3331   -0.4506   -3.3929 H         1 RES1    0.0000
     40 H2        -6.8757   -2.3714   -3.0588 H         1 RES1    0.0000
     41 H3        -5.5874   -2.4302    0.6681 H         1 RES1    0.0000
     42 H4        -4.4464   -0.6815    0.4071 H         1 RES1    0.0000
     43 H5        -5.6107    3.7648   -4.5621 H         1 RES1    0.0000
     44 H6        -6.9136    3.6159   -3.4764 H         1 RES1    0.0000
     45 H7        -6.5359    2.6071   -5.0737 H         1 RES1    0.0000
     46 H8         1.7289   -2.7651   -2.9335 H         1 RES1    0.0000
     47 H9         2.5966   -1.5058   -3.2363 H         1 RES1    0.0000
     48 H10        2.5050   -1.6208   -1.9209 H         1 RES1    0.0000
     49 H11       -0.2362    2.3863   -0.1462 H         1 RES1    0.0000
     50 H12        1.4444    3.4907    0.8665 H         1 RES1    0.0000
     51 H13        3.3516    4.0644   -0.7621 H         1 RES1    0.0000
     52 H14        3.2270    3.5998   -2.8709 H         1 RES1    0.0000
     53 H15        1.8268    1.9327   -3.4242 H         1 RES1    0.0000
     54 H16       -3.3818    4.6574   -1.9835 H         1 RES1    0.0000
     55 H17       -3.1673    6.5740   -3.2885 H         1 RES1    0.0000
     56 H18       -2.0823    6.8418   -5.0841 H         1 RES1    0.0000
     57 H19       -0.5242    5.1194   -5.8149 H         1 RES1    0.0000
     58 H20       -0.6990    3.1472   -4.6770 H         1 RES1    0.0000
@<TRIPOS>BOND
     1    1    9 1
     2    2   13 2
     3    3   10 2
     4    4   10 2
     5    5   23 2
     6    6   23 1
     7    7   25 2
     8    8   25 1
     9    9   11 2
    10   10   20 1
    11   11   12 1
    12   12   13 1
    13   13   14 1
    14   14   15 2
    15   15   16 1
    16   16    1 1
    17   17   11 1
    18   18   17 ar
    19   19   18 ar
    20   20   19 ar
    21   21   20 ar
    22   22   17 ar
    23   23   12 1
    24   24    6 1
    25   25   14 1
    26   26    8 1
    27   27   15 1
    28   28   27 ar
    29   29   28 ar
    30   30   29 ar
    31   31   30 ar
    32   32   27 ar
    33   33   16 1
    34   34   33 ar
    35   35   34 ar
    36   36   35 ar
    37   37   36 ar
    38   38   33 ar
    39   39   18 1
    40   40   19 1
    41   41   21 1
    42   42   22 1
    43   43   24 1
    44   44   24 1
    45   45   24 1
    46   46   26 1
    47   47   26 1
    48   48   26 1
    49   49   28 1
    50   50   29 1
    51   51   30 1
    52   52   31 1
    53   53   32 1
    54   54   34 1
    55   55   35 1
    56   56   36 1
    57   57   37 1
    58   58   38 1
    59   12   16 1
    60   21   22 ar
    61   31   32 ar
    62   37   38 ar
@<TRIPOS>SUBSTRUCTURE
     1 RES1 1

@<TRIPOS>CRYSIN
  12.5760   10.0140   10.4920  91.6600  95.5200  88.4600   2 1

