# MOL2 file generated by ConQuest
# Please check atom types

@<TRIPOS>MOLECULE
MDNPUR
    30    31     1
SMALL
NO_CHARGES
****
Generated from CSD

@<TRIPOS>ATOM
      1 C1        -2.7980   -4.8370   -3.7008 C.ar      1 RES1    0.0000
      2 O10       -3.4450   -6.1579   -6.0000 O.2       1 RES1    0.0000
      3 C10       -3.4450   -4.9825   -6.0000 C.2       1 RES1    0.0000
      4 C11       -2.0835   -3.0795   -5.2464 C.3       1 RES1    0.0000
      5 C2        -1.6770   -4.5594   -2.8968 C.ar      1 RES1    0.0000
      6 C3        -1.5055   -5.1352   -1.6512 C.ar      1 RES1    0.0000
      7 C4        -2.4411   -6.0269   -1.2048 C.ar      1 RES1    0.0000
      8 C5        -3.5621   -6.3354   -1.9512 C.ar      1 RES1    0.0000
      9 C6        -3.7551   -5.7152   -3.1584 C.ar      1 RES1    0.0000
     10 N1        -5.0621   -5.9392   -3.7680 N.pl3     1 RES1    0.0000
     11 N10       -2.9255   -4.2415   -4.9464 N.am      1 RES1    0.0000
     12 N2        -2.2813   -6.6378    0.1008 N.pl3     1 RES1    0.0000
     13 O1        -5.5726   -5.0547   -4.4016 O.2       1 RES1    0.0000
     14 O2        -5.5589   -7.0155   -3.5856 O.2       1 RES1    0.0000
     15 O3        -2.9207   -7.5893    0.3768 O.2       1 RES1    0.0000
     16 O4        -1.4669   -6.1456    0.8640 O.2       1 RES1    0.0000
     17 N10F      -3.9645   -4.2415   -7.0536 N.am      1 RES1    0.0000
     18 C1F       -4.0920   -4.8370   -8.2992 C.ar      1 RES1    0.0000
     19 C11F      -4.8065   -3.0795   -6.7536 C.3       1 RES1    0.0000
     20 C2F       -5.2130   -4.5594   -9.1032 C.ar      1 RES1    0.0000
     21 C6F       -3.1350   -5.7152   -8.8416 C.ar      1 RES1    0.0000
     22 C3F       -5.3845   -5.1352  -10.3488 C.ar      1 RES1    0.0000
     23 C5F       -3.3279   -6.3354  -10.0488 C.ar      1 RES1    0.0000
     24 N1F       -1.8279   -5.9392   -8.2320 N.pl3     1 RES1    0.0000
     25 C4F       -4.4489   -6.0269  -10.7952 C.ar      1 RES1    0.0000
     26 O1F       -1.3174   -5.0547   -7.5984 O.2       1 RES1    0.0000
     27 O2F       -1.3311   -7.0155   -8.4144 O.2       1 RES1    0.0000
     28 N2F       -4.6087   -6.6378  -12.1008 N.pl3     1 RES1    0.0000
     29 O3F       -3.9693   -7.5893  -12.3768 O.2       1 RES1    0.0000
     30 O4F       -5.4231   -6.1456  -12.8640 O.2       1 RES1    0.0000
@<TRIPOS>BOND
     1    1    5 ar
     2    2    3 2
     3    3   11 1
     4    4   11 1
     5    5    6 ar
     6    6    7 ar
     7    7    8 ar
     8    8    9 ar
     9    9    1 ar
    10   10    9 1
    11   11    1 1
    12   12    7 1
    13   13   10 2
    14   14   10 2
    15   15   12 2
    16   16   12 2
    17   17    3 1
    18   18   17 1
    19   19   17 1
    20   20   18 ar
    21   21   18 ar
    22   22   20 ar
    23   23   21 ar
    24   24   21 1
    25   25   22 ar
    26   26   24 2
    27   27   24 2
    28   28   25 1
    29   29   28 2
    30   30   28 2
    31   23   25 ar
@<TRIPOS>SUBSTRUCTURE
     1 RES1 1

@<TRIPOS>CRYSIN
   6.8900   10.3200   24.0000  90.0000  90.0000  90.0000  60 1

