# MOL2 file generated by ConQuest
# Please check atom types

@<TRIPOS>MOLECULE
MEBCUT
    94    84     3
SMALL
NO_CHARGES
****
Generated from CSD

@<TRIPOS>ATOM
      1 O1         2.4574    3.6443    6.3111 O.3       1 RES1    0.0000
      2 O2         4.8456    3.4342    5.0197 O.3       1 RES1    0.0000
      3 H1         4.3064    3.6853    5.4950 H         1 RES1    0.0000
      4 O3         3.4385    4.6414   -0.0401 O.2       1 RES1    0.0000
      5 O4         3.2454    5.9897    1.6245 O.2       1 RES1    0.0000
      6 N1         3.3981    4.8746    1.1583 N.pl3     1 RES1    0.0000
      7 C1         2.8930    3.9150    8.6414 C.3       1 RES1    0.0000
      8 H2         2.9870    4.8847    8.5357 H         1 RES1    0.0000
      9 H3         3.7649    3.4864    8.5180 H         1 RES1    0.0000
     10 H4         2.5573    3.7156    9.5401 H         1 RES1    0.0000
     11 C2         1.9315    3.3926    7.6225 C.3       1 RES1    0.0000
     12 H5         1.0576    3.8684    7.7218 H         1 RES1    0.0000
     13 C3         1.6914    1.9078    7.6626 C.3       1 RES1    0.0000
     14 H6         0.8592    1.7056    8.1560 H         1 RES1    0.0000
     15 H7         2.4461    1.4483    8.1095 H         1 RES1    0.0000
     16 C4         1.5761    1.4550    6.2303 C.3       1 RES1    0.0000
     17 H8         0.6769    1.0837    6.0493 H         1 RES1    0.0000
     18 H9         2.2551    0.7657    6.0221 H         1 RES1    0.0000
     19 C5         1.8179    2.7235    5.4085 C.3       1 RES1    0.0000
     20 H10        0.9342    3.1027    5.1329 H         1 RES1    0.0000
     21 C6         2.7023    2.5701    4.1621 C.3       1 RES1    0.0000
     22 H11        2.3723    1.7668    3.6671 H         1 RES1    0.0000
     23 C7         4.1566    2.3055    4.5274 C.3       1 RES1    0.0000
     24 H12        4.1874    1.5921    5.2130 H         1 RES1    0.0000
     25 H13        4.6294    1.9707    3.7247 H         1 RES1    0.0000
     26 C8         2.5206    3.7875    3.2249 C.3       1 RES1    0.0000
     27 H14        2.6765    4.6173    3.7616 H         1 RES1    0.0000
     28 C9         3.5736    3.7392    2.1019 C.3       1 RES1    0.0000
     29 H15        4.4807    3.7774    2.4976 H         1 RES1    0.0000
     30 H16        3.4909    2.8853    1.6084 H         1 RES1    0.0000
     31 C10        1.1191    3.8628    2.6370 C.ar      1 RES1    0.0000
     32 C11        0.6534    2.8707    1.7895 C.ar      1 RES1    0.0000
     33 H17        1.2068    2.1230    1.5956 H         1 RES1    0.0000
     34 C12       -0.6128    2.9538    1.2159 C.ar      1 RES1    0.0000
     35 H18       -0.9135    2.2735    0.6248 H         1 RES1    0.0000
     36 C13       -1.4390    4.0353    1.5107 C.ar      1 RES1    0.0000
     37 H19       -2.3128    4.0875    1.1423 H         1 RES1    0.0000
     38 C14       -0.9725    5.0268    2.3422 C.ar      1 RES1    0.0000
     39 H20       -1.5221    5.7785    2.5312 H         1 RES1    0.0000
     40 C15        0.2932    4.9414    2.9061 C.ar      1 RES1    0.0000
     41 H21        0.5957    5.6307    3.4860 H         1 RES1    0.0000
     42 O5        12.2535    3.4814    5.3492 O.3       2 RES2    0.0000
     43 O6        10.0107    3.2359    6.8675 O.3       2 RES2    0.0000
     44 H22       10.8645    3.5617    6.7766 H         2 RES2    0.0000
     45 O7         6.6245    4.5841    2.7869 O.2       2 RES2    0.0000
     46 O8         7.5789    5.8290    4.2550 O.2       2 RES2    0.0000
     47 N2         7.3303    4.7409    3.7568 N.pl3     2 RES2    0.0000
     48 C16       14.0289    3.4943    6.9224 C.3       2 RES2    0.0000
     49 H23       13.5780    4.2858    7.2845 H         2 RES2    0.0000
     50 H24       14.9998    3.6010    7.0105 H         2 RES2    0.0000
     51 H25       13.7423    2.6994    7.4174 H         2 RES2    0.0000
     52 C17       13.6726    3.3370    5.4678 C.3       2 RES2    0.0000
     53 H26       14.1276    4.0459    4.9327 H         2 RES2    0.0000
     54 C18       14.0087    1.9747    4.8894 C.3       2 RES2    0.0000
     55 H27       14.5110    1.4292    5.5463 H         2 RES2    0.0000
     56 H28       14.5532    2.0679    4.0692 H         2 RES2    0.0000
     57 C19       12.6202    1.3174    4.5658 C.3       2 RES2    0.0000
     58 H29       12.6580    0.7724    3.7408 H         2 RES2    0.0000
     59 H30       12.2971    0.7573    5.3156 H         2 RES2    0.0000
     60 C20       11.7559    2.5645    4.3800 C.3       2 RES2    0.0000
     61 H31       11.9213    2.9387    3.4684 H         2 RES2    0.0000
     62 C21       10.2548    2.3966    4.5738 C.3       2 RES2    0.0000
     63 H32        9.9745    1.5955    4.0452 H         2 RES2    0.0000
     64 C22        9.9036    2.1196    6.0349 C.3       2 RES2    0.0000
     65 H33        8.9762    1.7769    6.0797 H         2 RES2    0.0000
     66 H34       10.5028    1.4095    6.3761 H         2 RES2    0.0000
     67 C23        9.5043    3.6162    3.9891 C.3       2 RES2    0.0000
     68 H35        9.8890    4.4392    4.4072 H         2 RES2    0.0000
     69 C24        8.0158    3.5645    4.3447 C.3       2 RES2    0.0000
     70 H36        7.6149    2.7314    3.9907 H         2 RES2    0.0000
     71 H37        7.9055    3.5684    5.3284 H         2 RES2    0.0000
     72 C25        9.7032    3.7229    2.4832 C.ar      2 RES2    0.0000
     73 C26       10.3529    4.8038    1.9289 C.ar      2 RES2    0.0000
     74 H38       10.6808    5.4908    2.4960 H         2 RES2    0.0000
     75 C27       10.5390    4.9088    0.5543 C.ar      2 RES2    0.0000
     76 H39       10.9881    5.6616    0.1890 H         2 RES2    0.0000
     77 C28       10.0643    3.9100   -0.2772 C.ar      2 RES2    0.0000
     78 H40       10.1949    3.9707   -1.2159 H         2 RES2    0.0000
     79 C29        9.4055    2.8286    0.2579 C.ar      2 RES2    0.0000
     80 H41        9.0783    2.1421   -0.3108 H         2 RES2    0.0000
     81 C30        9.2190    2.7404    1.6261 C.ar      2 RES2    0.0000
     82 H42        8.7510    1.9954    1.9865 H         2 RES2    0.0000
     83 C31       14.1546    3.9999    6.6437 Du        3 SUP3    0.0000
     84 C32       13.6602    3.2359    5.4630 Du        3 SUP3    0.0000
     85 C33       13.7260    1.7022    5.5367 Du        3 SUP3    0.0000
     86 C34       12.6202    1.3174    4.5658 Du        3 SUP3    0.0000
     87 H43       14.5599    4.8403    6.3457 Du        3 SUP3    0.0000
     88 H44       14.8254    3.4656    7.1211 Du        3 SUP3    0.0000
     89 H45       13.4055    4.1920    7.2444 Du        3 SUP3    0.0000
     90 H46       14.1266    3.5538    4.6315 Du        3 SUP3    0.0000
     91 H47       14.6061    1.3618    5.2419 Du        3 SUP3    0.0000
     92 H48       13.5372    1.3792    6.4530 Du        3 SUP3    0.0000
     93 H49       12.0816    0.5736    4.9343 Du        3 SUP3    0.0000
     94 H50       13.0048    1.0309    3.6991 Du        3 SUP3    0.0000
@<TRIPOS>BOND
     1    1   11 1
     2    2    3 1
     3    4    6 2
     4    5    6 2
     5    6   28 1
     6    7    8 1
     7    9    7 1
     8   10    7 1
     9   11    7 1
    10   12   11 1
    11   13   11 1
    12   14   13 1
    13   15   13 1
    14   16   13 1
    15   17   16 1
    16   18   16 1
    17   19    1 1
    18   20   19 1
    19   21   19 1
    20   22   21 1
    21   23    2 1
    22   24   23 1
    23   25   23 1
    24   26   21 1
    25   27   26 1
    26   28   26 1
    27   29   28 1
    28   30   28 1
    29   31   26 1
    30   32   31 ar
    31   33   32 1
    32   34   32 ar
    33   35   34 1
    34   36   34 ar
    35   37   36 1
    36   38   36 ar
    37   39   38 1
    38   40   31 ar
    39   41   40 1
    40   42   52 1
    41   43   44 1
    42   45   47 2
    43   46   47 2
    44   47   69 1
    45   48   49 1
    46   50   48 1
    47   51   48 1
    48   52   48 1
    49   53   52 1
    50   54   52 1
    51   55   54 1
    52   56   54 1
    53   57   54 1
    54   58   57 1
    55   59   57 1
    56   60   42 1
    57   61   60 1
    58   62   60 1
    59   63   62 1
    60   64   43 1
    61   65   64 1
    62   66   64 1
    63   67   62 1
    64   68   67 1
    65   69   67 1
    66   70   69 1
    67   71   69 1
    68   72   67 1
    69   73   72 ar
    70   74   73 1
    71   75   73 ar
    72   76   75 1
    73   77   75 ar
    74   78   77 1
    75   79   77 ar
    76   80   79 1
    77   81   72 ar
    78   82   81 1
    79   16   19 1
    80   21   23 1
    81   38   40 ar
    82   57   60 1
    83   62   64 1
    84   79   81 ar
@<TRIPOS>SUBSTRUCTURE
     1 RES1 1
     2 RES2 42
     3 SUP3 83

@<TRIPOS>CRYSIN
  16.3100    5.6178   17.6140  90.0000 114.5600  90.0000   4 1

