# MOL2 file generated by ConQuest
# Please check atom types

@<TRIPOS>MOLECULE
MEBDAA
    40    41     1
SMALL
NO_CHARGES
****
Generated from CSD

@<TRIPOS>ATOM
      1 O1         9.0254    1.7578   11.5882 O.3       1 RES1    0.0000
      2 O2         7.8378   -0.4940    9.0218 O.2       1 RES1    0.0000
      3 H1        10.0890   -0.2792    8.6486 H         1 RES1    0.0000
      4 O3         9.7644    0.6098    8.7593 O.3       1 RES1    0.0000
      5 O4         3.8718    2.8593    8.4636 O.2       1 RES1    0.0000
      6 O5         3.2858    0.7794    8.4532 O.2       1 RES1    0.0000
      7 N1         4.0936    1.6770    8.6737 N.pl3     1 RES1    0.0000
      8 C1         9.0969    1.3425   13.9759 C.3       1 RES1    0.0000
      9 H2         9.9266    0.8335   13.8664 H         1 RES1    0.0000
     10 H3         8.3298    0.7364   13.9049 H         1 RES1    0.0000
     11 H4         9.0922    1.7741   14.8562 H         1 RES1    0.0000
     12 C2         9.0069    2.3924   12.9036 C.3       1 RES1    0.0000
     13 H5         9.7894    3.0096   12.9819 H         1 RES1    0.0000
     14 C3         7.7183    3.2079   12.9522 C.3       1 RES1    0.0000
     15 H6         7.0448    2.7705   13.5325 H         1 RES1    0.0000
     16 H7         7.8906    4.1211   13.2936 H         1 RES1    0.0000
     17 C4         7.2453    3.2492   11.5044 C.3       1 RES1    0.0000
     18 H8         6.2595    3.3208   11.4498 H         1 RES1    0.0000
     19 H9         7.6553    4.0054   11.0126 H         1 RES1    0.0000
     20 C5         7.7303    1.9195   10.9703 C.3       1 RES1    0.0000
     21 H10        7.1171    1.1895   11.2717 H         1 RES1    0.0000
     22 C6         7.8883    1.8668    9.4491 C.3       1 RES1    0.0000
     23 H11        8.5352    2.5809    9.1809 H         1 RES1    0.0000
     24 C7         8.4744    0.5355    9.0479 C.2       1 RES1    0.0000
     25 C8         6.5416    2.1440    8.7230 C.3       1 RES1    0.0000
     26 H12        6.3077    3.0991    8.9056 H         1 RES1    0.0000
     27 C9         5.4027    1.2983    9.2890 C.3       1 RES1    0.0000
     28 H13        5.5842    0.3414    9.1121 H         1 RES1    0.0000
     29 H14        5.3540    1.4257   10.2698 H         1 RES1    0.0000
     30 C10        6.6846    2.0085    7.2129 C.ar      1 RES1    0.0000
     31 C11        6.2494    0.8847    6.5078 C.ar      1 RES1    0.0000
     32 H15        5.8532    0.1600    6.9767 H         1 RES1    0.0000
     33 C12        6.3908    0.8167    5.1262 C.ar      1 RES1    0.0000
     34 H16        6.0820    0.0494    4.6593 H         1 RES1    0.0000
     35 C13        6.9767    1.8561    4.4269 C.ar      1 RES1    0.0000
     36 H17        7.0758    1.8049    3.4833 H         1 RES1    0.0000
     37 C14        7.4181    2.9747    5.1191 C.ar      1 RES1    0.0000
     38 H18        7.8270    3.6913    4.6471 H         1 RES1    0.0000
     39 C15        7.2663    3.0514    6.4993 C.ar      1 RES1    0.0000
     40 H19        7.5634    3.8268    6.9605 H         1 RES1    0.0000
@<TRIPOS>BOND
     1    1   12 1
     2    2   24 2
     3    3    4 1
     4    4   24 1
     5    5    7 2
     6    6    7 2
     7    7   27 1
     8    8    9 1
     9   10    8 1
    10   11    8 1
    11   12    8 1
    12   13   12 1
    13   14   12 1
    14   15   14 1
    15   16   14 1
    16   17   14 1
    17   18   17 1
    18   19   17 1
    19   20    1 1
    20   21   20 1
    21   22   20 1
    22   23   22 1
    23   24   22 1
    24   25   22 1
    25   26   25 1
    26   27   25 1
    27   28   27 1
    28   29   27 1
    29   30   25 1
    30   31   30 ar
    31   32   31 1
    32   33   31 ar
    33   34   33 1
    34   35   33 ar
    35   36   35 1
    36   37   35 ar
    37   38   37 1
    38   39   30 ar
    39   40   39 1
    40   17   20 1
    41   37   39 ar
@<TRIPOS>SUBSTRUCTURE
     1 RES1 1

@<TRIPOS>CRYSIN
  12.3470    5.8167   20.7820  90.0000 103.1140  90.0000  14 1

