# MOL2 file generated by ConQuest
# Please check atom types

@<TRIPOS>MOLECULE
MEBFIJ
    94    98     2
SMALL
NO_CHARGES
****
Generated from CSD

@<TRIPOS>ATOM
      1 O1        11.8464    0.4512   10.8075 O.3       1 RES1    0.0000
      2 H1        12.5741    0.0889   10.9119 H         1 RES1    0.0000
      3 N1         8.4991    1.2487   11.3757 N.3       1 RES1    0.0000
      4 N2        11.1132   -0.2433    9.8335 N.2       1 RES1    0.0000
      5 C1         8.9919   -0.7922    6.4416 C.3       1 RES1    0.0000
      6 C2         9.7512   -1.4189    7.6298 C.3       1 RES1    0.0000
      7 H2         9.4782   -2.3277    7.8308 H         1 RES1    0.0000
      8 H3        10.7161   -1.3553    7.5536 H         1 RES1    0.0000
      9 C3         9.1344   -0.3675    8.5643 C.3       1 RES1    0.0000
     10 H4         8.3099   -0.7162    8.9609 H         1 RES1    0.0000
     11 C4         8.8005    0.4753    7.3031 C.3       1 RES1    0.0000
     12 H5         7.8954    0.8234    7.2924 H         1 RES1    0.0000
     13 H6         9.4455    1.1762    7.1165 H         1 RES1    0.0000
     14 C5         9.1812    0.6120   12.4989 C.3       1 RES1    0.0000
     15 H7         9.8807    1.1980   12.8310 H         1 RES1    0.0000
     16 H8         9.5957   -0.2138   12.2020 H         1 RES1    0.0000
     17 C6         8.2000    0.3169   13.6130 C.3       1 RES1    0.0000
     18 H9         7.5342   -0.3133   13.2948 H         1 RES1    0.0000
     19 H10        8.6710   -0.0942   14.3556 H         1 RES1    0.0000
     20 C7         7.5147    1.5667   14.0890 C.3       1 RES1    0.0000
     21 H11        8.1608    2.1498   14.5155 H         1 RES1    0.0000
     22 H12        6.8359    1.3370   14.7447 H         1 RES1    0.0000
     23 C8         6.8728    2.2876   12.9184 C.3       1 RES1    0.0000
     24 H13        6.5291    3.1452   13.2148 H         1 RES1    0.0000
     25 H14        6.1277    1.7640   12.5858 H         1 RES1    0.0000
     26 C9         7.8845    2.5038   11.8027 C.3       1 RES1    0.0000
     27 H15        7.4418    2.9167   11.0452 H         1 RES1    0.0000
     28 H16        8.5764    3.1093   12.1114 H         1 RES1    0.0000
     29 C10        9.4488    1.5273   10.2691 C.3       1 RES1    0.0000
     30 H17       10.1961    2.0403   10.6188 H         1 RES1    0.0000
     31 H18        9.0028    2.0697    9.6006 H         1 RES1    0.0000
     32 C11        9.9753    0.2786    9.6155 C.2       1 RES1    0.0000
     33 C12        7.6746   -1.4872    6.1388 C.3       1 RES1    0.0000
     34 H19        7.2405   -1.0460    5.4053 H         1 RES1    0.0000
     35 H20        7.1078   -1.4519    6.9139 H         1 RES1    0.0000
     36 H21        7.8421   -2.4037    5.9064 H         1 RES1    0.0000
     37 C13        9.7947   -0.6031    5.1617 C.ar      1 RES1    0.0000
     38 C14        9.6501    0.5307    4.3824 C.ar      1 RES1    0.0000
     39 H22        9.0365    1.1839    4.6324 H         1 RES1    0.0000
     40 C15       10.4104    0.7068    3.2272 C.ar      1 RES1    0.0000
     41 H23       10.3125    1.4760    2.7133 H         1 RES1    0.0000
     42 C16       11.2785   -0.2391    2.8663 C.ar      1 RES1    0.0000
     43 H24       11.7931   -0.1172    2.1003 H         1 RES1    0.0000
     44 C17       11.4297   -1.3888    3.6009 C.ar      1 RES1    0.0000
     45 H25       12.0280   -2.0473    3.3317 H         1 RES1    0.0000
     46 C18       10.6846   -1.5508    4.7406 C.ar      1 RES1    0.0000
     47 H26       10.7868   -2.3283    5.2401 H         1 RES1    0.0000
     48 O2         7.0066    2.5038   19.5168 O.3       2 RES2    0.0000
     49 H27        6.2920    2.8866   19.3931 H         2 RES2    0.0000
     50 N3        10.3278    1.6851   18.9373 N.3       2 RES2    0.0000
     51 N4         7.7453    3.1947   20.4939 N.2       2 RES2    0.0000
     52 C19        9.8752    3.8108   23.8639 C.3       2 RES2    0.0000
     53 C20        9.9840    2.4938   23.0606 C.3       2 RES2    0.0000
     54 H28        9.2900    1.8488   23.2685 H         2 RES2    0.0000
     55 H29       10.8630    2.0844   23.0979 H         2 RES2    0.0000
     56 C21        9.7197    3.3042   21.7594 C.3       2 RES2    0.0000
     57 H30       10.5725    3.5869   21.3708 H         2 RES2    0.0000
     58 C22        9.1627    4.4210   22.6331 C.3       2 RES2    0.0000
     59 H31        8.1945    4.4157   22.7035 H         2 RES2    0.0000
     60 H32        9.4869    5.3027   22.3943 H         2 RES2    0.0000
     61 C23       10.9522    0.4470   18.5045 C.3       2 RES2    0.0000
     62 H33       10.2658   -0.1667   18.1990 H         2 RES2    0.0000
     63 H34       11.4047    0.0371   19.2598 H         2 RES2    0.0000
     64 C24       11.9421    0.6756   17.3946 C.3       2 RES2    0.0000
     65 H35       12.6829    1.2045   17.7299 H         2 RES2    0.0000
     66 H36       12.2956   -0.1785   17.1009 H         2 RES2    0.0000
     67 C25       11.3220    1.3806   16.2298 C.3       2 RES2    0.0000
     68 H37       10.6770    0.7975   15.8002 H         2 RES2    0.0000
     69 H38       12.0063    1.6074   15.5816 H         2 RES2    0.0000
     70 C26       10.6345    2.6381   16.7059 C.3       2 RES2    0.0000
     71 H39       10.1613    3.0480   15.9654 H         2 RES2    0.0000
     72 H40       11.2981    3.2689   17.0263 H         2 RES2    0.0000
     73 C27        9.6533    2.3306   17.8227 C.3       2 RES2    0.0000
     74 H41        9.2410    3.1540   18.1297 H         2 RES2    0.0000
     75 H42        8.9538    1.7493   17.4900 H         2 RES2    0.0000
     76 C28        9.4031    1.4130   20.0445 C.3       2 RES2    0.0000
     77 H43        9.8578    0.8670   20.7044 H         2 RES2    0.0000
     78 H44        8.6503    0.9029   19.7076 H         2 RES2    0.0000
     79 C29        8.8842    2.6634   20.7172 C.2       2 RES2    0.0000
     80 C30       11.2589    4.4363   24.1038 C.3       2 RES2    0.0000
     81 H45       11.7561    4.4380   23.2845 H         2 RES2    0.0000
     82 H46       11.7332    3.9233   24.7611 H         2 RES2    0.0000
     83 H47       11.1534    5.3380   24.4146 H         2 RES2    0.0000
     84 C31        9.1170    3.7831   25.1545 C.ar      2 RES2    0.0000
     85 C32        8.2979    4.8274   25.5069 C.ar      2 RES2    0.0000
     86 H48        8.2087    5.5459   24.9210 H         2 RES2    0.0000
     87 C33        7.5941    4.8444   26.7180 C.ar      2 RES2    0.0000
     88 H49        7.0567    5.5718   26.9360 H         2 RES2    0.0000
     89 C34        7.6974    3.8066   27.5666 C.ar      2 RES2    0.0000
     90 H50        7.2449    3.8261   28.3806 H         2 RES2    0.0000
     91 C35        8.4513    2.7441   27.2479 C.ar      2 RES2    0.0000
     92 H51        8.5002    2.0185   27.8263 H         2 RES2    0.0000
     93 C36        9.1681    2.7264   26.0373 C.ar      2 RES2    0.0000
     94 H52        9.6892    1.9843   25.8272 H         2 RES2    0.0000
@<TRIPOS>BOND
     1    1    2 1
     2    3   14 1
     3    4    1 1
     4    5    6 1
     5    6    7 1
     6    8    6 1
     7    9    6 1
     8   10    9 1
     9   11    5 1
    10   12   11 1
    11   13   11 1
    12   14   15 1
    13   16   14 1
    14   17   14 1
    15   18   17 1
    16   19   17 1
    17   20   17 1
    18   21   20 1
    19   22   20 1
    20   23   20 1
    21   24   23 1
    22   25   23 1
    23   26    3 1
    24   27   26 1
    25   28   26 1
    26   29    3 1
    27   30   29 1
    28   31   29 1
    29   32    4 2
    30   33    5 1
    31   34   33 1
    32   35   33 1
    33   36   33 1
    34   37    5 1
    35   38   37 ar
    36   39   38 1
    37   40   38 ar
    38   41   40 1
    39   42   40 ar
    40   43   42 1
    41   44   42 ar
    42   45   44 1
    43   46   37 ar
    44   47   46 1
    45   48   49 1
    46   50   61 1
    47   51   48 1
    48   52   53 1
    49   53   54 1
    50   55   53 1
    51   56   53 1
    52   57   56 1
    53   58   52 1
    54   59   58 1
    55   60   58 1
    56   61   62 1
    57   63   61 1
    58   64   61 1
    59   65   64 1
    60   66   64 1
    61   67   64 1
    62   68   67 1
    63   69   67 1
    64   70   67 1
    65   71   70 1
    66   72   70 1
    67   73   50 1
    68   74   73 1
    69   75   73 1
    70   76   50 1
    71   77   76 1
    72   78   76 1
    73   79   51 2
    74   80   52 1
    75   81   80 1
    76   82   80 1
    77   83   80 1
    78   84   52 1
    79   85   84 ar
    80   86   85 1
    81   87   85 ar
    82   88   87 1
    83   89   87 ar
    84   90   89 1
    85   91   89 ar
    86   92   91 1
    87   93   84 ar
    88   94   93 1
    89    9   11 1
    90    9   32 1
    91   23   26 1
    92   29   32 1
    93   44   46 ar
    94   56   58 1
    95   56   79 1
    96   70   73 1
    97   76   79 1
    98   91   93 ar
@<TRIPOS>SUBSTRUCTURE
     1 RES1 1
     2 RES2 48

@<TRIPOS>CRYSIN
  10.8782    5.8899   53.3070  90.0000  90.0000  90.0000  29 1

