# MOL2 file generated by ConQuest
# Please check atom types

@<TRIPOS>MOLECULE
MEBNOY
    47    50     1
SMALL
NO_CHARGES
****
Generated from CSD

@<TRIPOS>ATOM
      1 C1         4.5372    8.2533   15.7947 C.3       1 RES1    0.0000
      2 H1         4.7709    7.7061   15.0026 H         1 RES1    0.0000
      3 H2         4.1168    7.6692   16.4743 H         1 RES1    0.0000
      4 C2         5.7662    8.9315   16.3587 C.3       1 RES1    0.0000
      5 H3         6.6062    8.4165   16.1835 H         1 RES1    0.0000
      6 C3         6.0627   10.5482   17.9566 C.3       1 RES1    0.0000
      7 C4         5.7660   10.3272   15.6816 C.3       1 RES1    0.0000
      8 H4         6.5765   10.4826   15.1168 H         1 RES1    0.0000
      9 C5         4.4607   10.3415   14.8647 C.3       1 RES1    0.0000
     10 H5         4.0087   11.2315   14.9241 H         1 RES1    0.0000
     11 C6         3.6074    9.1164   11.6669 C.3       1 RES1    0.0000
     12 H6         2.7584    9.1035   11.1583 H         1 RES1    0.0000
     13 H7         3.8237    8.1853   11.9218 H         1 RES1    0.0000
     14 C7         4.7008    9.6593   10.7951 C.2       1 RES1    0.0000
     15 H8         4.7905    9.3549    9.8989 H         1 RES1    0.0000
     16 C8         5.5454   10.5677   11.2766 C.2       1 RES1    0.0000
     17 C9         5.4901   11.0397   12.7124 C.3       1 RES1    0.0000
     18 H9         6.4280   11.0590   13.0581 H         1 RES1    0.0000
     19 C10        4.9328   12.4552   12.8229 C.ar      1 RES1    0.0000
     20 C11        3.7711   12.8200   12.1421 C.ar      1 RES1    0.0000
     21 H10        3.3244   12.1816   11.5989 H         1 RES1    0.0000
     22 C12        3.2605   14.1101   12.2511 C.ar      1 RES1    0.0000
     23 H11        2.4614   14.3431   11.7934 H         1 RES1    0.0000
     24 C13        3.9151   15.0549   13.0253 C.ar      1 RES1    0.0000
     25 H12        3.5788   15.9417   13.0813 H         1 RES1    0.0000
     26 C14        5.0578   14.7022   13.7141 C.ar      1 RES1    0.0000
     27 H13        5.5000   15.3451   14.2551 H         1 RES1    0.0000
     28 C15        5.5700   13.4028   13.6211 C.ar      1 RES1    0.0000
     29 H14        6.3535   13.1669   14.1035 H         1 RES1    0.0000
     30 C16        5.3677   11.1677   19.1434 C.3       1 RES1    0.0000
     31 H15        5.6182   10.6836   19.9583 H         1 RES1    0.0000
     32 H16        4.3971   11.1143   19.0182 H         1 RES1    0.0000
     33 H17        5.6356   12.1062   19.2251 H         1 RES1    0.0000
     34 C17        7.5712   10.5439   18.1153 C.3       1 RES1    0.0000
     35 H18        7.9854   10.2161   17.2896 H         1 RES1    0.0000
     36 H19        7.8195    9.9581   18.8612 H         1 RES1    0.0000
     37 H20        7.8834   11.4544   18.2975 H         1 RES1    0.0000
     38 C18        6.6668   10.9093    9.2185 C.3       1 RES1    0.0000
     39 H21        5.8211   11.1109    8.7661 H         1 RES1    0.0000
     40 H22        6.8775    9.9581    9.1104 H         1 RES1    0.0000
     41 H23        7.3835   11.4494    8.8250 H         1 RES1    0.0000
     42 N1         4.7568    9.9908   13.4688 N.3       1 RES1    0.0000
     43 O1         3.6547    9.3219   15.4297 O.3       1 RES1    0.0000
     44 O2         5.5721    9.2200   17.7466 O.3       1 RES1    0.0000
     45 O3         5.6676   11.2488   16.7653 O.3       1 RES1    0.0000
     46 O4         3.4394    9.9020   12.8469 O.3       1 RES1    0.0000
     47 O5         6.5486   11.2138   10.6062 O.3       1 RES1    0.0000
@<TRIPOS>BOND
     1    1    2 1
     2    3    1 1
     3    4    1 1
     4    5    4 1
     5    6   30 1
     6    7    4 1
     7    8    7 1
     8    9    7 1
     9   10    9 1
    10   11   12 1
    11   13   11 1
    12   14   11 1
    13   15   14 1
    14   16   14 2
    15   17   16 1
    16   18   17 1
    17   19   17 1
    18   20   19 ar
    19   21   20 1
    20   22   20 ar
    21   23   22 1
    22   24   22 ar
    23   25   24 1
    24   26   24 ar
    25   27   26 1
    26   28   19 ar
    27   29   28 1
    28   30   31 1
    29   32   30 1
    30   33   30 1
    31   34    6 1
    32   35   34 1
    33   36   34 1
    34   37   34 1
    35   38   39 1
    36   40   38 1
    37   41   38 1
    38   42    9 1
    39   43    1 1
    40   44    4 1
    41   45    6 1
    42   46   11 1
    43   47   16 1
    44    6   44 1
    45    7   45 1
    46    9   43 1
    47   17   42 1
    48   26   28 ar
    49   38   47 1
    50   42   46 1
@<TRIPOS>SUBSTRUCTURE
     1 RES1 1

@<TRIPOS>CRYSIN
   5.6042   16.7560   17.8390  90.0000  90.0000  90.0000  19 1

