# MOL2 file generated by ConQuest
# Please check atom types

@<TRIPOS>MOLECULE
MEBQAN
    30    32     1
SMALL
NO_CHARGES
****
Generated from CSD

@<TRIPOS>ATOM
      1 N1         0.2285    4.2220   -1.7554 N.am      1 RES1    0.0000
      2 H1        -0.1068    3.5169   -1.3487 H         1 RES1    0.0000
      3 N2         0.7846    7.8557   -3.4694 N.2       1 RES1    0.0000
      4 O1         0.9121    5.0892    0.2234 O.2       1 RES1    0.0000
      5 O2         1.4741    8.4736   -2.3736 O.3       1 RES1    0.0000
      6 C1         0.9659    6.4433   -1.7270 C.2       1 RES1    0.0000
      7 C2         0.7208    5.1951   -0.9939 C.2       1 RES1    0.0000
      8 C3         0.2049    4.2372   -3.2240 C.3       1 RES1    0.0000
      9 H2        -0.4189    3.5393   -3.5460 H         1 RES1    0.0000
     10 H3         1.1079    4.0189   -3.5662 H         1 RES1    0.0000
     11 C4        -0.2264    5.5862   -3.7797 C.3       1 RES1    0.0000
     12 H4        -0.0172    5.6380   -4.7448 H         1 RES1    0.0000
     13 H5        -1.2030    5.7036   -3.6654 H         1 RES1    0.0000
     14 C5         0.5029    6.6485   -3.0439 C.2       1 RES1    0.0000
     15 C6         1.5499    7.6093   -1.3501 C.2       1 RES1    0.0000
     16 C7         2.2196    7.9356   -0.0466 C.2       1 RES1    0.0000
     17 H6         2.3332    7.2168    0.5630 H         1 RES1    0.0000
     18 C8         2.6566    9.0844    0.3301 C.2       1 RES1    0.0000
     19 H7         2.5959    9.8032   -0.2876 H         1 RES1    0.0000
     20 C9         3.2526    9.3703    1.6713 C.ar      1 RES1    0.0000
     21 C10        3.3277   10.6207    2.1102 C.ar      1 RES1    0.0000
     22 H8         3.0354   11.3409    1.5634 H         1 RES1    0.0000
     23 C11        3.8209   10.8533    3.3333 C.ar      1 RES1    0.0000
     24 H9         3.8907   11.7514    3.6351 H         1 RES1    0.0000
     25 C12        4.2322    9.8356    4.1717 C.ar      1 RES1    0.0000
     26 H10        4.5588   10.0502    5.0385 H         1 RES1    0.0000
     27 C13        4.1793    8.5341    3.7869 C.ar      1 RES1    0.0000
     28 H11        4.4725    7.8420    4.3681 H         1 RES1    0.0000
     29 C14        3.6784    8.2388    2.5010 C.ar      1 RES1    0.0000
     30 H12        3.6189    7.3443    2.1871 H         1 RES1    0.0000
@<TRIPOS>BOND
     1    1    2 1
     2    3    5 1
     3    4    7 2
     4    5   15 1
     5    6    7 1
     6    7    1 1
     7    8    1 1
     8    9    8 1
     9   10    8 1
    10   11    8 1
    11   12   11 1
    12   13   11 1
    13   14    3 2
    14   15    6 2
    15   16   15 1
    16   17   16 1
    17   18   16 2
    18   19   18 1
    19   20   18 1
    20   21   20 ar
    21   22   21 1
    22   23   21 ar
    23   24   23 1
    24   25   23 ar
    25   26   25 1
    26   27   25 ar
    27   28   27 1
    28   29   20 ar
    29   30   29 1
    30    6   14 1
    31   11   14 1
    32   27   29 ar
@<TRIPOS>SUBSTRUCTURE
     1 RES1 1

@<TRIPOS>CRYSIN
   8.0372    7.2024   20.5918  90.0000 100.4380  90.0000  14 1

