# MOL2 file generated by ConQuest
# Please check atom types

@<TRIPOS>MOLECULE
MECBOO
   125   132     3
SMALL
NO_CHARGES
****
Generated from CSD

@<TRIPOS>ATOM
      1 N1         0.9398   -3.8359   -1.2808 N.pl3     1 RES1    0.0000
      2 N2         0.6511    2.3291    0.4202 N.3       1 RES1    0.0000
      3 O1         0.3898   -4.3441   -2.2470 O.2       1 RES1    0.0000
      4 O2         1.4772   -4.4710   -0.3806 O.2       1 RES1    0.0000
      5 O3         2.4715    5.4949    0.5599 O.3       1 RES1    0.0000
      6 O4         3.5779    5.5663    2.5218 O.2       1 RES1    0.0000
      7 O5         6.1273    3.9371   -2.5332 O.3       1 RES1    0.0000
      8 O6         5.4326    6.0914   -2.6114 O.2       1 RES1    0.0000
      9 C1         0.9526   -2.3626   -1.1903 C.ar      1 RES1    0.0000
     10 C2         0.3130   -1.6296   -2.1794 C.ar      1 RES1    0.0000
     11 H1        -0.1313   -2.0636   -2.8982 H         1 RES1    0.0000
     12 C3         0.3405   -0.2425   -2.0912 C.ar      1 RES1    0.0000
     13 H2        -0.0936    0.2782   -2.7575 H         1 RES1    0.0000
     14 C4         0.9958    0.3998   -1.0361 C.ar      1 RES1    0.0000
     15 C5         1.6257   -0.3805   -0.0508 C.ar      1 RES1    0.0000
     16 H3         2.0664    0.0460    0.6745 H         1 RES1    0.0000
     17 C6         1.6125   -1.7602   -0.1220 C.ar      1 RES1    0.0000
     18 H4         2.0438   -2.2849    0.5425 H         1 RES1    0.0000
     19 C7         1.0234    1.9114   -0.9356 C.3       1 RES1    0.0000
     20 H5         0.3427    2.2761   -1.5709 H         1 RES1    0.0000
     21 C8         3.0174    3.4694   -0.5851 C.ar      1 RES1    0.0000
     22 C9         2.3870    2.4735   -1.3297 C.ar      1 RES1    0.0000
     23 C10        2.3336    4.0576    0.6221 C.3       1 RES1    0.0000
     24 H6         2.7454    3.7044    1.4621 H         1 RES1    0.0000
     25 C11        0.8420    3.7603    0.5968 C.3       1 RES1    0.0000
     26 H7         0.4254    4.0549    1.4447 H         1 RES1    0.0000
     27 H8         0.4128    4.2521   -0.1480 H         1 RES1    0.0000
     28 C12       -0.7401    1.9622    0.7135 C.3       1 RES1    0.0000
     29 H9        -0.9722    2.2608    1.6173 H         1 RES1    0.0000
     30 H10       -0.8405    0.9902    0.6542 H         1 RES1    0.0000
     31 H11       -1.3347    2.3922    0.0638 H         1 RES1    0.0000
     32 C13        3.0986    6.1271    1.5647 C.2       1 RES1    0.0000
     33 C14        3.1017    7.5951    1.3359 C.ar      1 RES1    0.0000
     34 C15        2.6276    8.1596    0.1517 C.ar      1 RES1    0.0000
     35 H12        2.3033    7.6017   -0.5454 H         1 RES1    0.0000
     36 C16        2.6288    9.5422   -0.0064 C.ar      1 RES1    0.0000
     37 H13        2.3269    9.9260   -0.8210 H         1 RES1    0.0000
     38 C17        3.0745   10.3641    1.0297 C.ar      1 RES1    0.0000
     39 H14        3.0536   11.3083    0.9312 H         1 RES1    0.0000
     40 C18        3.5507    9.7930    2.2109 C.ar      1 RES1    0.0000
     41 H15        3.8577   10.3510    2.9156 H         1 RES1    0.0000
     42 C19        3.5769    8.4262    2.3580 C.ar      1 RES1    0.0000
     43 H16        3.9197    8.0442    3.1578 H         1 RES1    0.0000
     44 C20        3.0086    2.0071   -2.4930 C.ar      1 RES1    0.0000
     45 H17        2.5887    1.3276   -3.0070 H         1 RES1    0.0000
     46 C21        4.2375    2.5252   -2.9114 C.ar      1 RES1    0.0000
     47 H18        4.6449    2.2170   -3.7134 H         1 RES1    0.0000
     48 C22        4.8484    3.4919   -2.1382 C.ar      1 RES1    0.0000
     49 C23        4.2614    3.9781   -0.9817 C.ar      1 RES1    0.0000
     50 H19        4.6961    4.6464   -0.4656 H         1 RES1    0.0000
     51 C24        6.3112    5.2804   -2.7134 C.2       1 RES1    0.0000
     52 C25        7.7262    5.6110   -3.0325 C.ar      1 RES1    0.0000
     53 C26        8.6085    4.6826   -3.5850 C.ar      1 RES1    0.0000
     54 H20        8.3281    3.7899   -3.7467 H         1 RES1    0.0000
     55 C27        9.9086    5.0828   -3.8980 C.ar      1 RES1    0.0000
     56 H21       10.5153    4.4602   -4.2834 H         1 RES1    0.0000
     57 C28       10.3193    6.3852   -3.6493 C.ar      1 RES1    0.0000
     58 H22       11.2089    6.6465   -3.8570 H         1 RES1    0.0000
     59 C29        9.4427    7.3066   -3.1017 C.ar      1 RES1    0.0000
     60 H23        9.7252    8.1997   -2.9431 H         1 RES1    0.0000
     61 C30        8.1416    6.9162   -2.7839 C.ar      1 RES1    0.0000
     62 H24        7.5396    7.5403   -2.3977 H         1 RES1    0.0000
     63 N3         1.0468   10.0911    6.6909 N.pl3     2 RES2    0.0000
     64 N4         2.2749    3.7962    7.5360 N.3       2 RES2    0.0000
     65 O7         1.2797   10.7700    5.6871 O.2       2 RES2    0.0000
     66 O8         0.5779   10.5332    7.7282 O.2       2 RES2    0.0000
     67 O9         0.4611    0.6081    7.3126 O.3       2 RES2    0.0000
     68 O10        0.4423    0.3321    9.5001 O.2       2 RES2    0.0000
     69 O11       -3.0424    2.3416    4.2916 O.3       2 RES2    0.0000
     70 O12       -2.0287    0.4386    3.5954 O.2       2 RES2    0.0000
     71 C31        1.3350    8.6549    6.6195 C.ar      2 RES2    0.0000
     72 C32        1.9876    8.1561    5.5038 C.ar      2 RES2    0.0000
     73 H25        2.2733    8.7386    4.8100 H         2 RES2    0.0000
     74 C33        2.2158    6.7859    5.4172 C.ar      2 RES2    0.0000
     75 H26        2.6803    6.4318    4.6678 H         2 RES2    0.0000
     76 C34        1.7665    5.9289    6.4214 C.ar      2 RES2    0.0000
     77 C35        1.1394    6.4684    7.5452 C.ar      2 RES2    0.0000
     78 H27        0.8558    5.8907    8.2448 H         2 RES2    0.0000
     79 C36        0.9233    7.8365    7.6568 C.ar      2 RES2    0.0000
     80 H28        0.5029    8.2019    8.4262 H         2 RES2    0.0000
     81 C37        1.9025    4.4282    6.2609 C.3       2 RES2    0.0000
     82 H29        2.6231    4.2433    5.5933 H         2 RES2    0.0000
     83 C38        0.5868    3.8414    5.7329 C.ar      2 RES2    0.0000
     84 C39       -0.0215    2.7364    6.3390 C.ar      2 RES2    0.0000
     85 C40        0.6614    2.0354    7.4859 C.3       2 RES2    0.0000
     86 H30        0.2544    2.3309    8.3507 H         2 RES2    0.0000
     87 C41        2.1418    2.3484    7.4855 C.3       2 RES2    0.0000
     88 H31        2.5803    1.9366    8.2710 H         2 RES2    0.0000
     89 H32        2.5677    1.9935    6.6652 H         2 RES2    0.0000
     90 C42        3.6294    4.1787    7.9312 C.3       2 RES2    0.0000
     91 H33        3.8770    3.7022    8.7511 H         2 RES2    0.0000
     92 H34        3.6625    5.1437    8.0925 H         2 RES2    0.0000
     93 H35        4.2571    3.9454    7.2150 H         2 RES2    0.0000
     94 C43        0.2167   -0.1030    8.3913 C.2       2 RES2    0.0000
     95 C44       -0.0430   -1.5339    8.1433 C.ar      2 RES2    0.0000
     96 C45        0.1422   -2.1162    6.8977 C.ar      2 RES2    0.0000
     97 H36        0.4271   -1.5882    6.1604 H         2 RES2    0.0000
     98 C46       -0.0930   -3.4751    6.7367 C.ar      2 RES2    0.0000
     99 H37        0.0354   -3.8797    5.8863 H         2 RES2    0.0000
    100 C47       -0.5158   -4.2488    7.8177 C.ar      2 RES2    0.0000
    101 H38       -0.6783   -5.1766    7.7023 H         2 RES2    0.0000
    102 C48       -0.6989   -3.6608    9.0605 C.ar      2 RES2    0.0000
    103 H39       -0.9847   -4.1864    9.7984 H         2 RES2    0.0000
    104 C49       -0.4657   -2.3160    9.2235 C.ar      2 RES2    0.0000
    105 H40       -0.5928   -1.9147   10.0754 H         2 RES2    0.0000
    106 C50       -0.0249    4.4133    4.6095 C.ar      2 RES2    0.0000
    107 H41        0.3857    5.1569    4.1833 H         2 RES2    0.0000
    108 C51       -1.2257    3.9115    4.1049 C.ar      2 RES2    0.0000
    109 H42       -1.6302    4.2981    3.3377 H         2 RES2    0.0000
    110 C52       -1.8134    2.8374    4.7504 C.ar      2 RES2    0.0000
    111 C53       -1.2360    2.2465    5.8568 C.ar      2 RES2    0.0000
    112 H43       -1.6614    1.5138    6.2852 H         2 RES2    0.0000
    113 C54       -3.0363    1.0629    3.8293 C.2       2 RES2    0.0000
    114 C55       -4.4063    0.5166    3.6829 C.ar      2 RES2    0.0000
    115 C56       -5.5345    1.3361    3.6788 C.ar      2 RES2    0.0000
    116 H44       -5.4436    2.2805    3.7337 H         2 RES2    0.0000
    117 C57       -6.7974    0.7527    3.5941 C.ar      2 RES2    0.0000
    118 H45       -7.5716    1.3035    3.5756 H         2 RES2    0.0000
    119 C58       -6.9276   -0.6167    3.5368 C.ar      2 RES2    0.0000
    120 H46       -7.7938   -1.0055    3.4914 H         2 RES2    0.0000
    121 C59       -5.8016   -1.4397    3.5445 C.ar      2 RES2    0.0000
    122 H47       -5.8958   -2.3835    3.5074 H         2 RES2    0.0000
    123 C60       -4.5386   -0.8585    3.6065 C.ar      2 RES2    0.0000
    124 H48       -3.7638   -1.4086    3.5959 H         2 RES2    0.0000
    125 O13       -0.5971    0.5893    9.3458 Du        3 SUP3    0.0000
@<TRIPOS>BOND
     1    1    3 2
     2    2   19 1
     3    4    1 2
     4    5   23 1
     5    6   32 2
     6    7   48 1
     7    8   51 2
     8    9    1 1
     9   10    9 ar
    10   11   10 1
    11   12   10 ar
    12   13   12 1
    13   14   12 ar
    14   15   14 ar
    15   16   15 1
    16   17    9 ar
    17   18   17 1
    18   19   14 1
    19   20   19 1
    20   21   22 ar
    21   22   19 1
    22   23   21 1
    23   24   23 1
    24   25    2 1
    25   26   25 1
    26   27   25 1
    27   28    2 1
    28   29   28 1
    29   30   28 1
    30   31   28 1
    31   32    5 1
    32   33   32 1
    33   34   33 ar
    34   35   34 1
    35   36   34 ar
    36   37   36 1
    37   38   36 ar
    38   39   38 1
    39   40   38 ar
    40   41   40 1
    41   42   33 ar
    42   43   42 1
    43   44   22 ar
    44   45   44 1
    45   46   44 ar
    46   47   46 1
    47   48   46 ar
    48   49   21 ar
    49   50   49 1
    50   51    7 1
    51   52   51 1
    52   53   52 ar
    53   54   53 1
    54   55   53 ar
    55   56   55 1
    56   57   55 ar
    57   58   57 1
    58   59   57 ar
    59   60   59 1
    60   61   52 ar
    61   62   61 1
    62   63   65 2
    63   64   81 1
    64   66   63 2
    65   67   85 1
    66   68   94 2
    67   69  110 1
    68   70  113 2
    69   71   63 1
    70   72   71 ar
    71   73   72 1
    72   74   72 ar
    73   75   74 1
    74   76   74 ar
    75   77   76 ar
    76   78   77 1
    77   79   71 ar
    78   80   79 1
    79   81   76 1
    80   82   81 1
    81   83   81 1
    82   84   83 ar
    83   85   84 1
    84   86   85 1
    85   87   64 1
    86   88   87 1
    87   89   87 1
    88   90   64 1
    89   91   90 1
    90   92   90 1
    91   93   90 1
    92   94   67 1
    93   95   94 1
    94   96   95 ar
    95   97   96 1
    96   98   96 ar
    97   99   98 1
    98  100   98 ar
    99  101  100 1
   100  102  100 ar
   101  103  102 1
   102  104   95 ar
   103  105  104 1
   104  106   83 ar
   105  107  106 1
   106  108  106 ar
   107  109  108 1
   108  110  108 ar
   109  111   84 ar
   110  112  111 1
   111  113   69 1
   112  114  113 1
   113  115  114 ar
   114  116  115 1
   115  117  115 ar
   116  118  117 1
   117  119  117 ar
   118  120  119 1
   119  121  119 ar
   120  122  121 1
   121  123  114 ar
   122  124  123 1
   123   15   17 ar
   124   23   25 1
   125   40   42 ar
   126   48   49 ar
   127   59   61 ar
   128   77   79 ar
   129   85   87 1
   130  102  104 ar
   131  110  111 ar
   132  121  123 ar
@<TRIPOS>SUBSTRUCTURE
     1 RES1 1
     2 RES2 63
     3 SUP3 125

@<TRIPOS>CRYSIN
   7.9505   21.9068   14.7482  90.0000 100.4120  90.0000   4 1

