# MOL2 file generated by ConQuest
# Please check atom types

@<TRIPOS>MOLECULE
MEDLOY
    49    43     2
SMALL
NO_CHARGES
****
Generated from CSD

@<TRIPOS>ATOM
      1 O1         2.0462   -0.0935    6.8463 O.3       1 RES1    0.0000
      2 H1         2.5022    0.4162    6.3577 H         1 RES1    0.0000
      3 O2         4.5334   -2.6354   11.9619 O.2       1 RES1    0.0000
      4 O3         6.3018   -1.7047   11.1281 O.2       1 RES1    0.0000
      5 N1         5.0985   -1.9746   11.0897 N.pl3     1 RES1    0.0000
      6 N2         4.0860    1.2307    6.0563 N.2       1 RES1    0.0000
      7 N3         5.7819    4.7518    2.0036 N.3       1 RES1    0.0000
      8 C1         2.8024   -0.5406    7.8507 C.ar      1 RES1    0.0000
      9 C2         2.2304   -1.4002    8.7961 C.ar      1 RES1    0.0000
     10 H2         1.3203   -1.6580    8.7070 H         1 RES1    0.0000
     11 C3         2.9736   -1.8752    9.8537 C.ar      1 RES1    0.0000
     12 H3         2.5807   -2.4524   10.4983 H         1 RES1    0.0000
     13 C4         4.3079   -1.4982    9.9640 C.ar      1 RES1    0.0000
     14 C5         4.9030   -0.6521    9.0471 C.ar      1 RES1    0.0000
     15 H4         5.8157   -0.4095    9.1473 H         1 RES1    0.0000
     16 C6         4.1635   -0.1585    7.9794 C.ar      1 RES1    0.0000
     17 C7         4.7862    0.7502    7.0253 C.2       1 RES1    0.0000
     18 H5         5.7020    0.9859    7.1175 H         1 RES1    0.0000
     19 C8         4.5926    2.1269    5.0879 C.ar      1 RES1    0.0000
     20 C9         5.9061    2.6031    5.0188 C.ar      1 RES1    0.0000
     21 H6         6.5436    2.3189    5.6634 H         1 RES1    0.0000
     22 C10        6.2850    3.4808    4.0240 C.ar      1 RES1    0.0000
     23 H7         7.1809    3.7944    4.0032 H         1 RES1    0.0000
     24 C11        5.3791    3.9279    3.0338 C.ar      1 RES1    0.0000
     25 C12        4.0610    3.4468    3.1269 C.ar      1 RES1    0.0000
     26 H8         3.4150    3.7298    2.4908 H         1 RES1    0.0000
     27 C13        3.6879    2.5675    4.1288 C.ar      1 RES1    0.0000
     28 H9         2.7910    2.2566    4.1614 H         1 RES1    0.0000
     29 C14        4.8394    5.1247    0.9233 C.3       1 RES1    0.0000
     30 H10        4.2768    4.3441    0.6932 H         1 RES1    0.0000
     31 H11        5.3501    5.3833    0.1155 H         1 RES1    0.0000
     32 C15        3.9489    6.2791    1.3469 C.3       1 RES1    0.0000
     33 H12        3.3377    6.5050    0.6152 H         1 RES1    0.0000
     34 H13        4.5044    7.0569    1.5613 H         1 RES1    0.0000
     35 H14        3.4310    6.0198    2.1369 H         1 RES1    0.0000
     36 C16        7.0602    5.4494    2.0554 C.3       1 RES1    0.0000
     37 H15        7.2639    5.8017    1.1523 H         1 RES1    0.0000
     38 H16        7.7663    4.7958    2.2879 H         1 RES1    0.0000
     39 C17        7.1215    6.5991    3.0467 C.3       1 RES1    0.0000
     40 H17        8.0100    7.0101    3.0154 H         1 RES1    0.0000
     41 H18        6.9506    6.2602    3.9501 H         1 RES1    0.0000
     42 H19        6.4436    7.2683    2.8145 H         1 RES1    0.0000
     43 C18        4.6958    5.7728    1.5686 Du        2 SUP2    0.0000
     44 C19        4.2551    5.1541    0.2571 Du        2 SUP2    0.0000
     45 H20        3.9511    5.8173    2.2202 Du        2 SUP2    0.0000
     46 H21        5.0749    6.6785    1.4385 Du        2 SUP2    0.0000
     47 H22        3.5501    5.7016   -0.1426 Du        2 SUP2    0.0000
     48 H23        3.9180    4.2484    0.4205 Du        2 SUP2    0.0000
     49 H24        5.0228    5.1096   -0.3549 Du        2 SUP2    0.0000
@<TRIPOS>BOND
     1    1    2 1
     2    3    5 2
     3    4    5 2
     4    5   13 1
     5    6   17 2
     6    7   24 1
     7    8    1 1
     8    9    8 ar
     9   10    9 1
    10   11    9 ar
    11   12   11 1
    12   13   11 ar
    13   14   13 ar
    14   15   14 1
    15   16    8 ar
    16   17   16 1
    17   18   17 1
    18   19    6 1
    19   20   19 ar
    20   21   20 1
    21   22   20 ar
    22   23   22 1
    23   24   22 ar
    24   25   24 ar
    25   26   25 1
    26   27   19 ar
    27   28   27 1
    28   29    7 1
    29   30   29 1
    30   31   29 1
    31   32   29 1
    32   33   32 1
    33   34   32 1
    34   35   32 1
    35   36    7 1
    36   37   36 1
    37   38   36 1
    38   39   36 1
    39   40   39 1
    40   41   39 1
    41   42   39 1
    42   14   16 ar
    43   25   27 ar
@<TRIPOS>SUBSTRUCTURE
     1 RES1 1
     2 SUP2 43

@<TRIPOS>CRYSIN
   6.5848   22.2544   10.8735  90.0000 106.8110  90.0000  14 1

