# MOL2 file generated by ConQuest
# Please check atom types

@<TRIPOS>MOLECULE
MEDNEQ
    25    27     1
SMALL
NO_CHARGES
****
Generated from CSD

@<TRIPOS>ATOM
      1 C1         2.4458    3.4502    6.0057 C.ar      1 RES1    0.0000
      2 C2         2.4871    2.8182    4.7599 C.ar      1 RES1    0.0000
      3 C3         1.4294    2.3589    2.6524 C.3       1 RES1    0.0000
      4 H1         1.2304    2.9720    1.9266 H         1 RES1    0.0000
      5 H2         0.6753    1.7554    2.7424 H         1 RES1    0.0000
      6 C4         2.6222    1.5751    2.2949 C.2       1 RES1    0.0000
      7 C5         3.5826    1.9710    4.5061 C.ar      1 RES1    0.0000
      8 C6         4.5901    1.7786    5.4282 C.ar      1 RES1    0.0000
      9 H3         5.3099    1.2184    5.2457 H         1 RES1    0.0000
     10 C7         4.4918    2.4515    6.6398 C.ar      1 RES1    0.0000
     11 C8         3.4474    3.2835    6.9481 C.ar      1 RES1    0.0000
     12 H4         3.4122    3.7238    7.7664 H         1 RES1    0.0000
     13 C9         4.5604    0.5231    2.6683 C.2       1 RES1    0.0000
     14 N1         1.3368    4.3334    6.3790 N.pl3     1 RES1    0.0000
     15 N2         5.5593    2.2836    7.6293 N.pl3     1 RES1    0.0000
     16 N3         3.5974    1.3634    3.2332 N.am      1 RES1    0.0000
     17 N4         2.8718    0.9668    1.1883 N.2       1 RES1    0.0000
     18 N5         4.0792    0.3313    1.4188 N.am      1 RES1    0.0000
     19 O1         0.2805    4.2684    5.7884 O.2       1 RES1    0.0000
     20 O2         1.5514    5.1327    7.2623 O.2       1 RES1    0.0000
     21 O3         5.5338    2.9748    8.6281 O.2       1 RES1    0.0000
     22 O4         6.4245    1.4708    7.4139 O.2       1 RES1    0.0000
     23 O5         1.5600    3.0922    3.8342 O.3       1 RES1    0.0000
     24 H5         4.4173   -0.2167    0.8083 H         1 RES1    0.0000
     25 O6         5.5463    0.0768    3.2066 O.2       1 RES1    0.0000
@<TRIPOS>BOND
     1    1    2 ar
     2    2    7 ar
     3    3    4 1
     4    5    3 1
     5    6    3 1
     6    7    8 ar
     7    8    9 1
     8   10    8 ar
     9   11    1 ar
    10   12   11 1
    11   13   16 1
    12   14    1 1
    13   15   10 1
    14   16    6 1
    15   17    6 2
    16   18   13 1
    17   19   14 2
    18   20   14 2
    19   21   15 2
    20   22   15 2
    21   23    2 1
    22   24   18 1
    23   25   13 2
    24    3   23 1
    25    7   16 1
    26   10   11 ar
    27   17   18 1
@<TRIPOS>SUBSTRUCTURE
     1 RES1 1

@<TRIPOS>CRYSIN
   6.6313   18.5174    8.3354  90.0000  91.3520  90.0000 231 1

