# MOL2 file generated by ConQuest
# Please check atom types

@<TRIPOS>MOLECULE
MEDXAW01
    41    42     1
SMALL
NO_CHARGES
****
Generated from CSD

@<TRIPOS>ATOM
      1 C1        16.1586    8.8417    3.2538 C.3       1 RES1    0.0000
      2 H1        15.5599    8.2756    2.7232 H         1 RES1    0.0000
      3 C2        17.4637    9.0075    2.4951 C.3       1 RES1    0.0000
      4 H2        17.2919    9.4152    1.6435 H         1 RES1    0.0000
      5 H3        17.8657    8.1470    2.3598 H         1 RES1    0.0000
      6 H4        18.0617    9.5646    3.0011 H         1 RES1    0.0000
      7 C3        16.3461    8.2021    4.6148 C.3       1 RES1    0.0000
      8 H5        15.4958    8.1207    5.0505 H         1 RES1    0.0000
      9 H6        16.9284    8.7486    5.1480 H         1 RES1    0.0000
     10 H7        16.7360    7.3297    4.5080 H         1 RES1    0.0000
     11 C4        14.2377   10.4101    3.5271 C.ar      1 RES1    0.0000
     12 C5        13.6839   11.7239    3.7094 C.ar      1 RES1    0.0000
     13 C6        12.3153   11.9300    3.7870 C.ar      1 RES1    0.0000
     14 H8        11.9889   12.7924    3.9064 H         1 RES1    0.0000
     15 C7        11.4258   10.8742    3.6876 C.ar      1 RES1    0.0000
     16 C8        11.9383    9.5637    3.5257 C.ar      1 RES1    0.0000
     17 H9        11.3545    8.8454    3.4627 H         1 RES1    0.0000
     18 C9        13.2790    9.3447    3.4634 C.ar      1 RES1    0.0000
     19 H10       13.5855    8.4720    3.3758 H         1 RES1    0.0000
     20 C10        7.9104   10.6720    3.6836 C.ar      1 RES1    0.0000
     21 C11        7.4770   11.9998    3.7771 C.ar      1 RES1    0.0000
     22 H11        8.0971   12.6887    3.8361 H         1 RES1    0.0000
     23 C12        6.1270   12.2859    3.7817 C.ar      1 RES1    0.0000
     24 H12        5.8341   13.1658    3.8627 H         1 RES1    0.0000
     25 C13        5.2061   11.2478    3.6637 C.ar      1 RES1    0.0000
     26 C14        5.5910    9.9251    3.5556 C.ar      1 RES1    0.0000
     27 H13        4.9680    9.2409    3.4660 H         1 RES1    0.0000
     28 C15        6.9460    9.6709    3.5881 C.ar      1 RES1    0.0000
     29 N1        15.5424   10.1677    3.3984 N.pl3     1 RES1    0.0000
     30 N2        14.5189   12.9022    3.8295 N.pl3     1 RES1    0.0000
     31 N3        10.0719   11.2213    3.7718 N.2       1 RES1    0.0000
     32 N4         9.2704   10.2577    3.6212 N.2       1 RES1    0.0000
     33 N5         3.7684   11.5557    3.6411 N.pl3     1 RES1    0.0000
     34 N6         7.3715    8.2612    3.5257 N.pl3     1 RES1    0.0000
     35 O1        15.7481   12.7842    3.7499 O.2       1 RES1    0.0000
     36 O2        13.9786   13.9927    4.0139 O.2       1 RES1    0.0000
     37 O3         3.4345   12.7307    3.7340 O.2       1 RES1    0.0000
     38 O4         2.9837   10.6292    3.5277 O.2       1 RES1    0.0000
     39 O5         7.9475    7.7974    4.4848 O.2       1 RES1    0.0000
     40 O6         7.0882    7.6353    2.5150 O.2       1 RES1    0.0000
     41 H14       16.0375   10.7940    3.4355 H         1 RES1    0.0000
@<TRIPOS>BOND
     1    1    2 1
     2    3    1 1
     3    4    3 1
     4    5    3 1
     5    6    3 1
     6    7    1 1
     7    8    7 1
     8    9    7 1
     9   10    7 1
    10   11   12 ar
    11   12   13 ar
    12   13   14 1
    13   15   13 ar
    14   16   15 ar
    15   17   16 1
    16   18   11 ar
    17   19   18 1
    18   20   21 ar
    19   21   22 1
    20   23   21 ar
    21   24   23 1
    22   25   23 ar
    23   26   25 ar
    24   27   26 1
    25   28   20 ar
    26   29    1 1
    27   30   12 1
    28   31   15 1
    29   32   20 1
    30   33   25 1
    31   34   28 1
    32   35   30 2
    33   36   30 2
    34   37   33 2
    35   38   33 2
    36   39   34 2
    37   40   34 2
    38   41   29 1
    39   11   29 1
    40   16   18 ar
    41   26   28 ar
    42   31   32 2
@<TRIPOS>SUBSTRUCTURE
     1 RES1 1

@<TRIPOS>CRYSIN
  35.6388   13.8296    6.6323  90.0000  90.0000  90.0000  41 1

