# MOL2 file generated by ConQuest
# Please check atom types

@<TRIPOS>MOLECULE
MEDXOL
    35    37     1
SMALL
NO_CHARGES
****
Generated from CSD

@<TRIPOS>ATOM
      1 O1         9.2968    4.6917    5.7068 O.2       1 RES1    0.0000
      2 O2        11.4483    4.9155    5.1929 O.3       1 RES1    0.0000
      3 N1        12.2722    5.0643    4.0020 N.2       1 RES1    0.0000
      4 C1         2.7381    4.6414    3.9035 C.ar      1 RES1    0.0000
      5 H1         1.8101    4.6851    3.9282 H         1 RES1    0.0000
      6 C2         3.4586    4.4795    5.0951 C.ar      1 RES1    0.0000
      7 H2         3.0063    4.4066    5.9046 H         1 RES1    0.0000
      8 C3         4.8170    4.4278    5.0717 C.ar      1 RES1    0.0000
      9 H3         5.2848    4.3075    5.8663 H         1 RES1    0.0000
     10 C4         5.5241    4.5539    3.8655 C.ar      1 RES1    0.0000
     11 C5         6.9342    4.5590    3.8234 C.ar      1 RES1    0.0000
     12 H4         7.4131    4.4686    4.6158 H         1 RES1    0.0000
     13 C6         7.6189    4.6953    2.6355 C.ar      1 RES1    0.0000
     14 C7         9.0581    4.7814    2.5063 C.2       1 RES1    0.0000
     15 H5         9.3374    4.8186    1.6203 H         1 RES1    0.0000
     16 C8        10.0876    4.8207    3.3817 C.2       1 RES1    0.0000
     17 C9        11.4842    4.9957    3.0052 C.2       1 RES1    0.0000
     18 C10       12.0193    5.0927    1.6052 C.3       1 RES1    0.0000
     19 H6        11.4020    5.6563    1.0930 H         1 RES1    0.0000
     20 C11       13.3924    5.7445    1.5422 C.3       1 RES1    0.0000
     21 H7        13.3621    6.5990    1.9792 H         1 RES1    0.0000
     22 H8        13.6484    5.8626    0.6246 H         1 RES1    0.0000
     23 H9        14.0333    5.1824    1.9833 H         1 RES1    0.0000
     24 C12        4.7965    4.6873    2.6584 C.ar      1 RES1    0.0000
     25 C13        5.5057    4.7836    1.4539 C.ar      1 RES1    0.0000
     26 H10        5.0376    4.8419    0.6533 H         1 RES1    0.0000
     27 C14        6.8611    4.7923    1.4327 C.ar      1 RES1    0.0000
     28 H11        7.3050    4.8623    0.6177 H         1 RES1    0.0000
     29 C15       10.1355    4.7865    4.8438 C.2       1 RES1    0.0000
     30 C16       12.0417    3.7278    0.9479 C.3       1 RES1    0.0000
     31 H12       12.6587    3.1584    1.4149 H         1 RES1    0.0000
     32 H13       12.3188    3.8175    0.0329 H         1 RES1    0.0000
     33 H14       11.1630    3.3421    0.9807 H         1 RES1    0.0000
     34 C17        3.3799    4.7340    2.7211 C.ar      1 RES1    0.0000
     35 H15        2.8886    4.8295    1.9381 H         1 RES1    0.0000
@<TRIPOS>BOND
     1    1   29 2
     2    2    3 1
     3    3   17 2
     4    4    5 1
     5    6    4 ar
     6    7    6 1
     7    8    6 ar
     8    9    8 1
     9   10    8 ar
    10   11   10 ar
    11   12   11 1
    12   13   11 ar
    13   14   13 1
    14   15   14 1
    15   16   14 2
    16   17   16 1
    17   18   17 1
    18   19   18 1
    19   20   18 1
    20   21   20 1
    21   22   20 1
    22   23   20 1
    23   24   10 ar
    24   25   24 ar
    25   26   25 1
    26   27   13 ar
    27   28   27 1
    28   29    2 1
    29   30   18 1
    30   31   30 1
    31   32   30 1
    32   33   30 1
    33   34    4 ar
    34   35   34 1
    35   16   29 1
    36   24   34 ar
    37   25   27 ar
@<TRIPOS>SUBSTRUCTURE
     1 RES1 1

@<TRIPOS>CRYSIN
  13.7578    7.2909   13.7080  90.0000  92.3330  90.0000  14 1

