# MOL2 file generated by ConQuest
# Please check atom types

@<TRIPOS>MOLECULE
MEDXAW
    82    84     2
SMALL
NO_CHARGES
****
Generated from CSD

@<TRIPOS>ATOM
      1 C1         8.7454    3.2545   33.9793 C.3       1 RES1    0.0000
      2 H1         8.1797    2.7245   33.3792 H         1 RES1    0.0000
      3 C2         8.9095    2.4957   35.2841 C.3       1 RES1    0.0000
      4 H2         9.3171    1.6441   35.1112 H         1 RES1    0.0000
      5 H3         8.0487    2.3611   35.6850 H         1 RES1    0.0000
      6 H4         9.4657    3.0018   35.8810 H         1 RES1    0.0000
      7 C3         8.1071    4.6134   34.1668 C.3       1 RES1    0.0000
      8 H5         8.0277    5.0498   33.3150 H         1 RES1    0.0000
      9 H6         8.6530    5.1460   34.7477 H         1 RES1    0.0000
     10 H7         7.2346    4.5066   34.5552 H         1 RES1    0.0000
     11 C4        10.3192    3.5271   32.0552 C.ar      1 RES1    0.0000
     12 C5        11.6376    3.7108   31.5028 C.ar      1 RES1    0.0000
     13 C6        11.8443    3.7864   30.1350 C.ar      1 RES1    0.0000
     14 H8        12.7078    3.9051   29.8082 H         1 RES1    0.0000
     15 C7        10.7923    3.6876   29.2465 C.ar      1 RES1    0.0000
     16 C8         9.4801    3.5251   29.7569 C.ar      1 RES1    0.0000
     17 H9         8.7626    3.4607   29.1702 H         1 RES1    0.0000
     18 C9         9.2595    3.4634   31.0997 C.ar      1 RES1    0.0000
     19 H10        8.3857    3.3752   31.4048 H         1 RES1    0.0000
     20 C10       10.5996    3.6836   25.7283 C.ar      1 RES1    0.0000
     21 C11       11.9296    3.7764   25.2970 C.ar      1 RES1    0.0000
     22 H11       12.6177    3.8355   25.9200 H         1 RES1    0.0000
     23 C12       12.2174    3.7804   23.9456 C.ar      1 RES1    0.0000
     24 H12       13.0970    3.8620   23.6534 H         1 RES1    0.0000
     25 C13       11.1851    3.6624   23.0251 C.ar      1 RES1    0.0000
     26 C14        9.8583    3.5556   23.4093 C.ar      1 RES1    0.0000
     27 H13        9.1745    3.4660   22.7838 H         1 RES1    0.0000
     28 C15        9.6010    3.5887   24.7674 C.ar      1 RES1    0.0000
     29 N1        10.0750    3.3997   33.3628 N.pl3     1 RES1    0.0000
     30 N2        12.8109    3.8288   32.3378 N.pl3     1 RES1    0.0000
     31 N3        11.1432    3.7705   27.8897 N.2       1 RES1    0.0000
     32 N4        10.1819    3.6226   27.0918 N.2       1 RES1    0.0000
     33 N5        11.4952    3.6405   21.5874 N.pl3     1 RES1    0.0000
     34 N6         8.1909    3.5271   25.1898 N.pl3     1 RES1    0.0000
     35 O1        12.6899    3.7499   33.5677 O.2       1 RES1    0.0000
     36 O2        13.9043    4.0145   31.7975 O.2       1 RES1    0.0000
     37 O3        12.6713    3.7333   21.2535 O.2       1 RES1    0.0000
     38 O4        10.5712    3.5277   20.8026 O.2       1 RES1    0.0000
     39 O5         7.7259    4.4834   25.7664 O.2       1 RES1    0.0000
     40 O6         7.5655    2.5143   24.9071 O.2       1 RES1    0.0000
     41 H14       10.7106    3.4687   33.8460 H         1 RES1    0.0000
     42 C16        8.7887    6.5686   19.4812 C.3       2 RES2    0.0000
     43 H15        8.2223    6.0380   20.0788 H         2 RES2    0.0000
     44 C17        8.9562    5.8099   18.1761 C.3       2 RES2    0.0000
     45 H16        9.3653    4.9590   18.3503 H         2 RES2    0.0000
     46 H17        9.5141    6.3166   17.5806 H         2 RES2    0.0000
     47 H18        8.0960    5.6746   17.7730 H         2 RES2    0.0000
     48 C18        8.1476    7.9322   19.2941 C.3       2 RES2    0.0000
     49 H19        8.0659    8.3673   20.1465 H         2 RES2    0.0000
     50 H20        7.2769    7.8255   18.9063 H         2 RES2    0.0000
     51 H21        8.6950    8.4661   18.7139 H         2 RES2    0.0000
     52 C19       10.3516    6.8432   21.3989 C.ar      2 RES2    0.0000
     53 C20       11.6609    7.0243   21.9545 C.ar      2 RES2    0.0000
     54 C21       11.8662    7.1032   23.3234 C.ar      2 RES2    0.0000
     55 H22       12.7277    7.2246   23.6498 H         2 RES2    0.0000
     56 C22       10.8067    7.0030   24.2140 C.ar      2 RES2    0.0000
     57 C23        9.4982    6.8432   23.6997 C.ar      2 RES2    0.0000
     58 H23        8.7790    6.7809   24.2842 H         2 RES2    0.0000
     59 C24        9.2806    6.7795   22.3608 C.ar      2 RES2    0.0000
     60 H24        8.4077    6.6920   22.0532 H         2 RES2    0.0000
     61 C25       10.5950    6.9991   27.7269 C.ar      2 RES2    0.0000
     62 C26       11.9207    7.0939   28.1624 C.ar      2 RES2    0.0000
     63 H25       12.6104    7.1536   27.5416 H         2 RES2    0.0000
     64 C27       12.2051    7.0986   29.5109 C.ar      2 RES2    0.0000
     65 H26       13.0839    7.1788   29.8046 H         2 RES2    0.0000
     66 C28       11.1611    6.9805   30.4326 C.ar      2 RES2    0.0000
     67 C29        9.8426    6.8717   30.0470 C.ar      2 RES2    0.0000
     68 H27        9.1567    6.7815   30.6706 H         2 RES2    0.0000
     69 C30        9.5915    6.9029   28.6948 C.ar      2 RES2    0.0000
     70 N7        10.1110    6.7126   20.0974 N.pl3     2 RES2    0.0000
     71 N8        12.8443    7.1463   21.1195 N.pl3     2 RES2    0.0000
     72 N9        11.1502    7.0893   25.5654 N.2       2 RES2    0.0000
     73 N10       10.1843    6.9354   26.3708 N.2       2 RES2    0.0000
     74 N11       11.4670    6.9579   31.8702 N.pl3     2 RES2    0.0000
     75 N12        8.1823    6.8399   28.2664 N.pl3     2 RES2    0.0000
     76 O7        12.7292    7.0654   19.8914 O.2       2 RES2    0.0000
     77 O8        13.9318    7.3300   21.6598 O.2       2 RES2    0.0000
     78 O9        12.6409    7.0508   32.2038 O.2       2 RES2    0.0000
     79 O10       10.5378    6.8439   32.6550 O.2       2 RES2    0.0000
     80 O11        7.5557    5.8311   28.5501 O.2       2 RES2    0.0000
     81 O12        7.7198    7.8016   27.6912 O.2       2 RES2    0.0000
     82 H28       10.7282    6.7185   19.5870 H         2 RES2    0.0000
@<TRIPOS>BOND
     1    1    2 1
     2    3    1 1
     3    4    3 1
     4    5    3 1
     5    6    3 1
     6    7    1 1
     7    8    7 1
     8    9    7 1
     9   10    7 1
    10   11   12 ar
    11   12   13 ar
    12   13   14 1
    13   15   13 ar
    14   16   15 ar
    15   17   16 1
    16   18   11 ar
    17   19   18 1
    18   20   21 ar
    19   21   22 1
    20   23   21 ar
    21   24   23 1
    22   25   23 ar
    23   26   25 ar
    24   27   26 1
    25   28   20 ar
    26   29    1 1
    27   30   12 1
    28   31   15 1
    29   32   20 1
    30   33   25 1
    31   34   28 1
    32   35   30 2
    33   36   30 2
    34   37   33 2
    35   38   33 2
    36   39   34 2
    37   40   34 2
    38   41   29 1
    39   42   43 1
    40   44   42 1
    41   45   44 1
    42   46   44 1
    43   47   44 1
    44   48   42 1
    45   49   48 1
    46   50   48 1
    47   51   48 1
    48   52   53 ar
    49   53   54 ar
    50   54   55 1
    51   56   54 ar
    52   57   56 ar
    53   58   57 1
    54   59   52 ar
    55   60   59 1
    56   61   62 ar
    57   62   63 1
    58   64   62 ar
    59   65   64 1
    60   66   64 ar
    61   67   66 ar
    62   68   67 1
    63   69   61 ar
    64   70   42 1
    65   71   53 1
    66   72   56 1
    67   73   61 1
    68   74   66 1
    69   75   69 1
    70   76   71 2
    71   77   71 2
    72   78   74 2
    73   79   74 2
    74   80   75 2
    75   81   75 2
    76   82   70 1
    77   11   29 1
    78   16   18 ar
    79   26   28 ar
    80   31   32 2
    81   52   70 1
    82   57   59 ar
    83   67   69 ar
    84   72   73 2
@<TRIPOS>SUBSTRUCTURE
     1 RES1 1
     2 RES2 42

@<TRIPOS>CRYSIN
  13.8296    6.6323   35.6388  90.0000  90.1600  90.0000   5 1

