# MOL2 file generated by ConQuest
# Please check atom types

@<TRIPOS>MOLECULE
MEDXUR
    53    57     1
SMALL
NO_CHARGES
****
Generated from CSD

@<TRIPOS>ATOM
      1 O1         2.3949   -0.7585    2.3486 O.3       1 RES1    0.0000
      2 O2         3.9476   -1.1187    3.9413 O.3       1 RES1    0.0000
      3 O3         4.6285    3.5292    4.2224 O.2       1 RES1    0.0000
      4 O4         8.7879    2.7487    5.3848 O.3       1 RES1    0.0000
      5 O5         7.8568    0.7485    4.9773 O.2       1 RES1    0.0000
      6 N1         8.7923    3.9894    4.7566 N.pl3     1 RES1    0.0000
      7 H1         8.9797    4.7329    5.2195 H         1 RES1    0.0000
      8 C1         2.0863   -2.0002    2.9117 C.3       1 RES1    0.0000
      9 H2         2.1072   -2.7087    2.2212 H         1 RES1    0.0000
     10 H3         1.1839   -1.9802    3.3190 H         1 RES1    0.0000
     11 C2         3.1220   -2.2564    3.9533 C.3       1 RES1    0.0000
     12 H4         2.7026   -2.3754    4.8404 H         1 RES1    0.0000
     13 H5         3.6433   -3.0689    3.7333 H         1 RES1    0.0000
     14 C3         3.2981   -0.0941    3.2104 C.3       1 RES1    0.0000
     15 C4         2.5239    0.8435    4.1436 C.3       1 RES1    0.0000
     16 H6         1.9851    1.4749    3.6045 H         1 RES1    0.0000
     17 H7         1.9041    0.3122    4.7046 H         1 RES1    0.0000
     18 C5         3.4742    1.6280    5.0421 C.3       1 RES1    0.0000
     19 H8         2.9616    2.2864    5.5753 H         1 RES1    0.0000
     20 H9         3.9267    1.0086    5.6689 H         1 RES1    0.0000
     21 C6         4.4986    2.3394    4.2084 C.2       1 RES1    0.0000
     22 C7         5.3120    1.4119    3.2871 C.3       1 RES1    0.0000
     23 H10        5.7741    0.7364    3.8620 H         1 RES1    0.0000
     24 C8         4.3103    0.6614    2.3858 C.3       1 RES1    0.0000
     25 H11        3.8421    1.3098    1.8023 H         1 RES1    0.0000
     26 H12        4.8011    0.0270    1.8046 H         1 RES1    0.0000
     27 C9         6.3904    2.2294    2.5604 C.3       1 RES1    0.0000
     28 H13        5.9371    3.0549    2.2212 H         1 RES1    0.0000
     29 C10        6.9876    1.5429    1.3480 C.ar      1 RES1    0.0000
     30 C11        6.3957    1.7110    0.0915 C.ar      1 RES1    0.0000
     31 H14        5.6136    2.2454    0.0117 H         1 RES1    0.0000
     32 C12        6.9318    1.1087   -1.0404 C.ar      1 RES1    0.0000
     33 H15        6.5099    1.2257   -1.8842 H         1 RES1    0.0000
     34 C13        8.0757    0.3402   -0.9444 C.ar      1 RES1    0.0000
     35 H16        8.4488   -0.0680   -1.7157 H         1 RES1    0.0000
     36 C14        8.6659    0.1751    0.2856 C.ar      1 RES1    0.0000
     37 H17        9.4531   -0.3502    0.3581 H         1 RES1    0.0000
     38 C15        8.1306    0.7645    1.4240 C.ar      1 RES1    0.0000
     39 H18        8.5526    0.6314    2.2634 H         1 RES1    0.0000
     40 C16        7.4331    2.6956    3.5638 C.2       1 RES1    0.0000
     41 C17        7.9649    1.9242    4.6356 C.2       1 RES1    0.0000
     42 C18        7.9344    3.9524    3.7115 C.2       1 RES1    0.0000
     43 C19        7.6520    5.1782    2.9611 C.ar      1 RES1    0.0000
     44 C20        7.7025    5.1922    1.5752 C.ar      1 RES1    0.0000
     45 H19        7.9554    4.4077    1.1024 H         1 RES1    0.0000
     46 C21        7.3878    6.3389    0.8829 C.ar      1 RES1    0.0000
     47 H20        7.4471    6.3489   -0.0655 H         1 RES1    0.0000
     48 C22        6.9903    7.4656    1.5488 C.ar      1 RES1    0.0000
     49 H21        6.7339    8.2400    1.0626 H         1 RES1    0.0000
     50 C23        6.9606    7.4766    2.9400 C.ar      1 RES1    0.0000
     51 H22        6.7052    8.2620    3.4103 H         1 RES1    0.0000
     52 C24        7.3059    6.3359    3.6272 C.ar      1 RES1    0.0000
     53 H23        7.3050    6.3449    4.5782 H         1 RES1    0.0000
@<TRIPOS>BOND
     1    1    8 1
     2    2   11 1
     3    3   21 2
     4    4    6 1
     5    5   41 2
     6    6    7 1
     7    8    9 1
     8   10    8 1
     9   11    8 1
    10   12   11 1
    11   13   11 1
    12   14    1 1
    13   15   14 1
    14   16   15 1
    15   17   15 1
    16   18   15 1
    17   19   18 1
    18   20   18 1
    19   21   18 1
    20   22   21 1
    21   23   22 1
    22   24   14 1
    23   25   24 1
    24   26   24 1
    25   27   22 1
    26   28   27 1
    27   29   27 1
    28   30   29 ar
    29   31   30 1
    30   32   30 ar
    31   33   32 1
    32   34   32 ar
    33   35   34 1
    34   36   34 ar
    35   37   36 1
    36   38   29 ar
    37   39   38 1
    38   40   27 1
    39   41    4 1
    40   42    6 1
    41   43   42 1
    42   44   43 ar
    43   45   44 1
    44   46   44 ar
    45   47   46 1
    46   48   46 ar
    47   49   48 1
    48   50   48 ar
    49   51   50 1
    50   52   43 ar
    51   53   52 1
    52    2   14 1
    53   22   24 1
    54   36   38 ar
    55   40   41 1
    56   40   42 2
    57   50   52 ar
@<TRIPOS>SUBSTRUCTURE
     1 RES1 1

@<TRIPOS>CRYSIN
   8.7182   10.0061   23.4060  90.0000  90.0000  90.0000  19 1

