# MOL2 file generated by ConQuest
# Please check atom types

@<TRIPOS>MOLECULE
MEFGAG
   284   288     4
SMALL
NO_CHARGES
****
Generated from CSD

@<TRIPOS>ATOM
      1 C1        17.0288   12.1295   15.7497 C.3       1 RES1    0.0000
      2 H1        16.7282   11.2613   15.4349 H         1 RES1    0.0000
      3 H2        17.2385   12.0458   16.6923 H         1 RES1    0.0000
      4 C2        19.0544   13.5187   15.5033 C.ar      1 RES1    0.0000
      5 H3        18.8044   13.9973   16.2583 H         1 RES1    0.0000
      6 C3        20.2321   13.8210   14.8786 C.ar      1 RES1    0.0000
      7 H4        20.7624   14.5051   15.2076 H         1 RES1    0.0000
      8 C4        20.6357   13.1287   13.7547 C.ar      1 RES1    0.0000
      9 H5        21.4479   13.3372   13.3557 H         1 RES1    0.0000
     10 C5        19.8537   12.1409   13.2254 C.ar      1 RES1    0.0000
     11 H6        20.0974   11.6888   12.4497 H         1 RES1    0.0000
     12 C6        18.6714   11.8490   13.9200 C.ar      1 RES1    0.0000
     13 H7        18.1496   11.1510   13.5974 H         1 RES1    0.0000
     14 C7        18.2385   12.5035   15.0248 C.ar      1 RES1    0.0000
     15 C8        15.6824   13.9318   16.5699 C.2       1 RES1    0.0000
     16 O1        15.9531   13.0846   15.5875 O.3       1 RES1    0.0000
     17 O2        16.3006   13.9520   17.6445 O.2       1 RES1    0.0000
     18 N1        14.6325   14.6979   16.3410 N.am      1 RES1    0.0000
     19 H8        14.4254   15.2847   16.9371 H         1 RES1    0.0000
     20 C9        13.7983   14.6153   15.1393 C.3       1 RES1    0.0000
     21 H9        13.5789   13.6713   14.9883 H         1 RES1    0.0000
     22 C10       14.5023   15.1430   13.8803 C.2       1 RES1    0.0000
     23 O3        15.3535   16.0206   13.9423 O.2       1 RES1    0.0000
     24 C11       12.5188   15.3535   15.3713 C.3       1 RES1    0.0000
     25 H10       12.0883   15.0079   16.1566 H         1 RES1    0.0000
     26 H11       11.9413   15.2385   14.6131 H         1 RES1    0.0000
     27 H12       12.7052   16.2878   15.4922 H         1 RES1    0.0000
     28 N2        14.0582   14.5753   12.7724 N.am      1 RES1    0.0000
     29 H13       13.4408   13.9805   12.8407 H         1 RES1    0.0000
     30 C12       14.5550   14.8981   11.4419 C.3       1 RES1    0.0000
     31 H14       14.9807   15.7802   11.4594 H         1 RES1    0.0000
     32 C13       13.4790   14.8932   10.4293 C.2       1 RES1    0.0000
     33 O4        12.5152   14.1541   10.5167 O.2       1 RES1    0.0000
     34 C14       15.6019   13.8311   11.0651 C.3       1 RES1    0.0000
     35 H15       16.3063   13.8300   11.7169 H         1 RES1    0.0000
     36 H16       15.9662   14.0321   10.2004 H         1 RES1    0.0000
     37 H17       15.1834   12.9679   11.0429 H         1 RES1    0.0000
     38 N3        13.5663   15.8592    9.4883 N.am      1 RES1    0.0000
     39 H18       14.2252   16.4090    9.5344 H         1 RES1    0.0000
     40 C15       12.6155   16.0266    8.4010 C.3       1 RES1    0.0000
     41 H19       12.0428   15.2323    8.3597 H         1 RES1    0.0000
     42 C16       13.3578   16.1507    7.1055 C.2       1 RES1    0.0000
     43 O5        14.3151   16.9504    7.0292 O.2       1 RES1    0.0000
     44 C17       11.7500   17.2323    8.6474 C.3       1 RES1    0.0000
     45 H20       11.2970   17.1069    9.4962 H         1 RES1    0.0000
     46 H21       12.3313   18.0030    8.7443 H         1 RES1    0.0000
     47 C18       10.6932   17.5676    7.5919 C.3       1 RES1    0.0000
     48 H22       11.1405   17.6738    6.7271 H         1 RES1    0.0000
     49 C19        9.6122   16.4768    7.4536 C.3       1 RES1    0.0000
     50 H23        8.9997   16.7199    6.7558 H         1 RES1    0.0000
     51 H24        9.1344   16.3914    8.2818 H         1 RES1    0.0000
     52 H25       10.0278   15.6387    7.2358 H         1 RES1    0.0000
     53 C20        9.9810   18.8808    7.9384 C.3       1 RES1    0.0000
     54 H26        9.3356   19.0845    7.2565 H         1 RES1    0.0000
     55 H27       10.6250   19.5900    7.9925 H         1 RES1    0.0000
     56 H28        9.5336   18.7895    8.7841 H         1 RES1    0.0000
     57 N4        12.9114   15.4104    6.0881 N.am      1 RES1    0.0000
     58 H29       12.2736   14.8629    6.2662 H         1 RES1    0.0000
     59 C21       13.3629   15.4247    4.7672 C.ar      1 RES1    0.0000
     60 C22       14.0711   16.4856    4.2124 C.ar      1 RES1    0.0000
     61 H30       14.2148   17.2582    4.7068 H         1 RES1    0.0000
     62 C23       14.5671   16.3875    2.9026 C.ar      1 RES1    0.0000
     63 H31       15.0514   17.0878    2.5274 H         1 RES1    0.0000
     64 C24       14.3267   15.2472    2.1857 C.ar      1 RES1    0.0000
     65 C25       13.5639   14.2506    2.6944 C.ar      1 RES1    0.0000
     66 H32       13.3789   13.5010    2.1762 H         1 RES1    0.0000
     67 C26       13.0655   14.3420    3.9565 C.ar      1 RES1    0.0000
     68 H33       12.5164   13.6646    4.2808 H         1 RES1    0.0000
     69 N5        14.8040   15.2064    0.8155 N.pl3     1 RES1    0.0000
     70 O6        15.4827   16.1028    0.3720 O.2       1 RES1    0.0000
     71 O7        14.5362   14.2250    0.1303 O.2       1 RES1    0.0000
     72 C27        7.5972   13.9172    4.8149 C.3       2 RES2    0.0000
     73 H34        7.8622   14.5799    4.1584 H         2 RES2    0.0000
     74 H35        7.4902   14.3740    5.6621 H         2 RES2    0.0000
     75 C28        6.1038   12.9150    3.1299 C.ar      2 RES2    0.0000
     76 H36        6.7250   13.1000    2.4623 H         2 RES2    0.0000
     77 C29        4.9668   12.1719    2.8342 C.ar      2 RES2    0.0000
     78 H37        4.8257   11.8608    1.9679 H         2 RES2    0.0000
     79 C30        4.0384   11.8957    3.8309 C.ar      2 RES2    0.0000
     80 H38        3.2772   11.3981    3.6322 H         2 RES2    0.0000
     81 C31        4.2469   12.3611    5.1233 C.ar      2 RES2    0.0000
     82 H39        3.6268   12.1760    5.7909 H         2 RES2    0.0000
     83 C32        5.3854   13.1029    5.4205 C.ar      2 RES2    0.0000
     84 H40        5.5249   13.4137    6.2852 H         2 RES2    0.0000
     85 C33        6.3123   13.3803    4.4222 C.ar      2 RES2    0.0000
     86 C34        9.4477   12.7847    3.8977 C.2       2 RES2    0.0000
     87 O8         8.6647   12.9555    4.9468 O.3       2 RES2    0.0000
     88 O9         9.3007   13.3576    2.8056 O.2       2 RES2    0.0000
     89 N6        10.4301   11.9632    4.1282 N.am      2 RES2    0.0000
     90 H41       11.0264   11.8981    3.5114 H         2 RES2    0.0000
     91 C35       10.6349   11.1434    5.3076 C.3       2 RES2    0.0000
     92 H42        9.8444   10.5774    5.4300 H         2 RES2    0.0000
     93 C36       10.8312   11.9835    6.5825 C.2       2 RES2    0.0000
     94 O10       11.3418   13.0978    6.5412 O.2       2 RES2    0.0000
     95 C37       11.7972   10.2655    5.0247 C.3       2 RES2    0.0000
     96 H43       11.6263    9.7533    4.2315 H         2 RES2    0.0000
     97 H44       11.9367    9.6700    5.7654 H         2 RES2    0.0000
     98 H45       12.5819   10.8049    4.8959 H         2 RES2    0.0000
     99 N7        10.4797   11.3665    7.7159 N.am      2 RES2    0.0000
    100 H46       10.1168   10.5876    7.6761 H         2 RES2    0.0000
    101 C38       10.7010   11.9858    9.0193 C.3       2 RES2    0.0000
    102 H47       11.5269   12.5103    8.9796 H         2 RES2    0.0000
    103 C39       10.8472   10.9466   10.0780 C.2       2 RES2    0.0000
    104 O11       10.3076    9.8727    9.9508 O.2       2 RES2    0.0000
    105 C40        9.5444   12.9254    9.3373 C.3       2 RES2    0.0000
    106 H48        9.4730   13.5886    8.6490 H         2 RES2    0.0000
    107 H49        9.7051   13.3545   10.1813 H         2 RES2    0.0000
    108 H50        8.7280   12.4218    9.3849 H         2 RES2    0.0000
    109 N8        11.5301   11.2905   11.1796 N.am      2 RES2    0.0000
    110 H51       11.9333   12.0496   11.2177 H         2 RES2    0.0000
    111 C41       11.5900   10.3849   12.3066 C.3       2 RES2    0.0000
    112 H52       10.7185    9.9357   12.3289 H         2 RES2    0.0000
    113 C42       11.6509   11.2040   13.5465 C.2       2 RES2    0.0000
    114 O12       12.1528   12.3135   13.6355 O.2       2 RES2    0.0000
    115 C43       12.5877    9.3105   12.2383 C.3       2 RES2    0.0000
    116 H53       12.5481    8.8285   13.0792 H         2 RES2    0.0000
    117 H54       12.3000    8.6938   11.5468 H         2 RES2    0.0000
    118 C44       14.0680    9.6393   11.9696 C.3       2 RES2    0.0000
    119 H55       14.1518   10.0979   11.1065 H         2 RES2    0.0000
    120 C45       14.7874   10.4579   13.0664 C.3       2 RES2    0.0000
    121 H56       15.6858   10.6370   12.7851 H         2 RES2    0.0000
    122 H57       14.7965    9.9532   13.8803 H         2 RES2    0.0000
    123 H58       14.3185   11.2831   13.2000 H         2 RES2    0.0000
    124 C46       14.9221    8.3556   11.9537 C.3       2 RES2    0.0000
    125 H59       15.8383    8.5839   11.8011 H         2 RES2    0.0000
    126 H60       14.6103    7.7720   11.2623 H         2 RES2    0.0000
    127 H61       14.8403    7.9132   12.8057 H         2 RES2    0.0000
    128 N9        11.1507   10.5412   14.5972 N.am      2 RES2    0.0000
    129 H62       10.8212    9.7648   14.4319 H         2 RES2    0.0000
    130 C47       11.1007   10.9589   15.9277 C.ar      2 RES2    0.0000
    131 C48       12.1379   11.7036   16.5047 C.ar      2 RES2    0.0000
    132 H63       12.8786   11.9546   16.0024 H         2 RES2    0.0000
    133 C49       12.0324   12.0616   17.8559 C.ar      2 RES2    0.0000
    134 H64       12.7224   12.5283   18.2692 H         2 RES2    0.0000
    135 C50       10.9143   11.7225   18.5648 C.ar      2 RES2    0.0000
    136 C51        9.9251   10.9258   18.0085 C.ar      2 RES2    0.0000
    137 H65        9.2184   10.6226   18.5315 H         2 RES2    0.0000
    138 C52        9.9990   10.5901   16.6828 C.ar      2 RES2    0.0000
    139 H66        9.3058   10.1132   16.2885 H         2 RES2    0.0000
    140 N10       10.8620   12.0488   19.9589 N.pl3     2 RES2    0.0000
    141 O13       11.7614   12.7203   20.4342 O.2       2 RES2    0.0000
    142 O14        9.9422   11.6062   20.6520 O.2       2 RES2    0.0000
    143 C53       11.3015    4.8640   15.7576 C.3       3 RES3    0.0000
    144 H67       11.0453    4.0566   16.2281 H         3 RES3    0.0000
    145 H68       11.9517    5.3352   16.3028 H         3 RES3    0.0000
    146 C54       11.4881    3.3935   13.8088 C.ar      3 RES3    0.0000
    147 H69       10.7719    2.9005   14.1378 H         3 RES3    0.0000
    148 C55       12.1161    3.0055   12.6690 C.ar      3 RES3    0.0000
    149 H70       11.8395    2.2418   12.2176 H         3 RES3    0.0000
    150 C56       13.1764    3.7454   12.1826 C.ar      3 RES3    0.0000
    151 H71       13.5793    3.4783   11.3878 H         3 RES3    0.0000
    152 C57       13.6492    4.8425   12.8137 C.ar      3 RES3    0.0000
    153 H72       14.3543    5.3441   12.4735 H         3 RES3    0.0000
    154 C58       13.0080    5.1760   14.0218 C.ar      3 RES3    0.0000
    155 H73       13.3473    5.8746   14.5320 H         3 RES3    0.0000
    156 C59       11.9101    4.5105   14.4685 C.ar      3 RES3    0.0000
    157 C60        9.7408    6.4338   16.6001 C.2       3 RES3    0.0000
    158 O15       10.1393    5.7010   15.5653 O.3       3 RES3    0.0000
    159 O16       10.3124    6.3381   17.7017 O.2       3 RES3    0.0000
    160 N11        8.6930    7.1743   16.3807 N.am      3 RES3    0.0000
    161 H74        8.4570    7.7296   16.9943 H         3 RES3    0.0000
    162 C61        7.8817    7.1242   15.1488 C.3       3 RES3    0.0000
    163 H75        7.5124    6.2229   15.0359 H         3 RES3    0.0000
    164 C62        8.7186    7.4905   13.9137 C.2       3 RES3    0.0000
    165 O17        9.5876    8.3310   13.9439 O.2       3 RES3    0.0000
    166 C63        6.7693    8.0977   15.3221 C.3       3 RES3    0.0000
    167 H76        6.2462    7.8527   16.0883 H         3 RES3    0.0000
    168 H77        6.2132    8.0915   14.5400 H         3 RES3    0.0000
    169 H78        7.1308    8.9792   15.4508 H         3 RES3    0.0000
    170 N12        8.4111    6.8077   12.8105 N.am      3 RES3    0.0000
    171 H79        7.7987    6.2063   12.8582 H         3 RES3    0.0000
    172 C64        9.0618    7.0316   11.5436 C.3       3 RES3    0.0000
    173 H80        9.4541    7.9296   11.5579 H         3 RES3    0.0000
    174 C65        8.0660    6.9828   10.4516 C.2       3 RES3    0.0000
    175 O18        7.1473    6.1868   10.4261 O.2       3 RES3    0.0000
    176 C66       10.1830    6.0279   11.3258 C.3       3 RES3    0.0000
    177 H81       10.8120    6.0884   12.0475 H         3 RES3    0.0000
    178 H82       10.6282    6.2213   10.4961 H         3 RES3    0.0000
    179 H83        9.8164    5.1417   11.2925 H         3 RES3    0.0000
    180 N13        8.3341    7.7926    9.4151 N.am      3 RES3    0.0000
    181 H84        9.0384    8.2832    9.4676 H         3 RES3    0.0000
    182 C67        7.5261    7.9044    8.2150 C.3       3 RES3    0.0000
    183 H85        6.8326    7.2115    8.1943 H         3 RES3    0.0000
    184 C68        8.4101    7.8154    7.0021 C.2       3 RES3    0.0000
    185 O19        9.4116    8.5248    6.9608 O.2       3 RES3    0.0000
    186 C69        6.9250    9.2620    8.1355 C.3       3 RES3    0.0000
    187 H86        7.6527    9.9036    8.1292 H         3 RES3    0.0000
    188 H87        6.4772    9.3319    7.2787 H         3 RES3    0.0000
    189 C70        5.9259    9.7052    9.2196 C.3       3 RES3    0.0000
    190 H88        5.1870    9.0662    9.3023 H         3 RES3    0.0000
    191 C71        6.5167   10.0496   10.5962 C.3       3 RES3    0.0000
    192 H89        5.8236   10.3830   11.1716 H         3 RES3    0.0000
    193 H90        7.1943   10.7272   10.4929 H         3 RES3    0.0000
    194 H91        6.9090    9.2674   10.9857 H         3 RES3    0.0000
    195 C72        5.4236   11.0762    8.7269 C.3       3 RES3    0.0000
    196 H92        4.8182   11.4444    9.3818 H         3 RES3    0.0000
    197 H93        4.9637   10.9696    7.8939 H         3 RES3    0.0000
    198 H94        6.1681   11.6698    8.6156 H         3 RES3    0.0000
    199 N14        8.0259    6.9404    6.0595 N.am      3 RES3    0.0000
    200 H95        7.3370    6.4603    6.2439 H         3 RES3    0.0000
    201 C73        8.6147    6.7195    4.8149 C.ar      3 RES3    0.0000
    202 C74        9.8230    7.2757    4.4063 C.ar      3 RES3    0.0000
    203 H96       10.3156    7.8034    4.9913 H         3 RES3    0.0000
    204 C75       10.2918    7.0376    3.1140 C.ar      3 RES3    0.0000
    205 H97       11.1014    7.3970    2.8311 H         3 RES3    0.0000
    206 C76        9.5423    6.2698    2.2699 C.ar      3 RES3    0.0000
    207 C77        8.3270    5.7643    2.6403 C.ar      3 RES3    0.0000
    208 H98        7.8301    5.2659    2.0331 H         3 RES3    0.0000
    209 C78        7.8420    5.9839    3.8865 C.ar      3 RES3    0.0000
    210 H99        7.0071    5.6554    4.1298 H         3 RES3    0.0000
    211 N15        9.9879    6.0758    0.9013 N.pl3     3 RES3    0.0000
    212 O20       11.0856    6.5187    0.5786 O.2       3 RES3    0.0000
    213 O21        9.2927    5.4435    0.1192 O.2       3 RES3    0.0000
    214 C79        1.5596    5.7616    5.1010 C.3       4 RES4    0.0000
    215 H100       0.7964    5.2151    5.3458 H         4 RES4    0.0000
    216 H101       1.3993    6.1133    4.2108 H         4 RES4    0.0000
    217 C80        2.7160    7.7537    5.9308 C.ar      4 RES4    0.0000
    218 H102       3.3357    7.6498    5.2457 H         4 RES4    0.0000
    219 C81        2.8561    8.7740    6.8162 C.ar      4 RES4    0.0000
    220 H103       3.5249    9.4066    6.6874 H         4 RES4    0.0000
    221 C82        2.0134    8.8795    7.8971 C.ar      4 RES4    0.0000
    222 H104       2.1715    9.5384    8.5361 H         4 RES4    0.0000
    223 C83        0.9584    8.0276    8.0465 C.ar      4 RES4    0.0000
    224 H105       0.3609    8.1157    8.7539 H         4 RES4    0.0000
    225 C84        0.8129    7.0120    7.0832 C.ar      4 RES4    0.0000
    226 H106       0.1037    6.4148    7.1643 H         4 RES4    0.0000
    227 C85        1.6683    6.8722    6.0389 C.ar      4 RES4    0.0000
    228 C86        3.4883    4.9420    3.9724 C.2       4 RES4    0.0000
    229 O22        2.7429    4.9342    5.0772 O.3       4 RES4    0.0000
    230 O23        3.2592    5.5477    2.9312 O.2       4 RES4    0.0000
    231 N16        4.5489    4.1656    4.1759 N.am      4 RES4    0.0000
    232 H107       5.1205    4.1251    3.5353 H         4 RES4    0.0000
    233 C87        4.8507    3.3782    5.3601 C.3       4 RES4    0.0000
    234 H108       4.0835    2.7949    5.5397 H         4 RES4    0.0000
    235 C88        5.0731    4.2602    6.5889 C.2       4 RES4    0.0000
    236 O24        5.8092    5.2472    6.5428 O.2       4 RES4    0.0000
    237 C89        6.0444    2.5046    5.0756 C.3       4 RES4    0.0000
    238 H109       5.8624    1.9549    4.3094 H         4 RES4    0.0000
    239 H110       6.2202    1.9455    5.8354 H         4 RES4    0.0000
    240 H111       6.8095    3.0554    4.8991 H         4 RES4    0.0000
    241 N17        4.5172    3.8448    7.7222 N.am      4 RES4    0.0000
    242 H112       4.0349    3.1332    7.7063 H         4 RES4    0.0000
    243 C90        4.6907    4.5380    8.9828 C.3       4 RES4    0.0000
    244 H113       5.5582    4.9937    8.9717 H         4 RES4    0.0000
    245 C91        4.6803    3.5493   10.1162 C.2       4 RES4    0.0000
    246 O25        3.9449    2.5887   10.0796 O.2       4 RES4    0.0000
    247 C92        3.6104    5.5706    9.1672 C.3       4 RES4    0.0000
    248 H114       3.6356    6.1989    8.4423 H         4 RES4    0.0000
    249 H115       3.7444    6.0349    9.9969 H         4 RES4    0.0000
    250 H116       2.7500    5.1380    9.1815 H         4 RES4    0.0000
    251 N18        5.4640    3.8647   11.1224 N.am      4 RES4    0.0000
    252 H117       5.9464    4.5713   11.0381 H         4 RES4    0.0000
    253 C93        5.5837    3.1212   12.3607 C.3       4 RES4    0.0000
    254 H118       4.9474    2.3767   12.3638 H         4 RES4    0.0000
    255 C94        5.2917    4.0376   13.5004 C.2       4 RES4    0.0000
    256 O26        5.7798    5.1793   13.5401 O.2       4 RES4    0.0000
    257 C95        6.9737    2.5981   12.5053 C.3       4 RES4    0.0000
    258 H119       7.5688    3.3619   12.5705 H         4 RES4    0.0000
    259 H120       7.0229    2.1277   13.3526 H         4 RES4    0.0000
    260 C96        7.5331    1.6666   11.4260 C.3       4 RES4    0.0000
    261 H121       7.5442    2.1595   10.5787 H         4 RES4    0.0000
    262 C97        6.6566    0.4084   11.2336 C.3       4 RES4    0.0000
    263 H122       7.0241   -0.1283   10.5263 H         4 RES4    0.0000
    264 H123       5.7647    0.6710   11.0095 H         4 RES4    0.0000
    265 H124       6.6504   -0.1023   12.0475 H         4 RES4    0.0000
    266 C98        8.9603    1.2146   11.7312 C.3       4 RES4    0.0000
    267 H125       9.2659    0.6373   11.0238 H         4 RES4    0.0000
    268 H126       8.9754    0.7398   12.5609 H         4 RES4    0.0000
    269 H127       9.5325    1.9825   11.7852 H         4 RES4    0.0000
    270 N19        4.4754    3.5362   14.4478 N.am      4 RES4    0.0000
    271 H128       4.1536    2.7565   14.2809 H         4 RES4    0.0000
    272 C99        4.0839    4.0926   15.6479 C.ar      4 RES4    0.0000
    273 C100       4.5307    5.3295   16.1200 C.ar      4 RES4    0.0000
    274 H129       5.0903    5.8572   15.5987 H         4 RES4    0.0000
    275 C101       4.1249    5.7645   17.3933 C.ar      4 RES4    0.0000
    276 H130       4.4265    6.5783   17.7239 H         4 RES4    0.0000
    277 C102       3.2913    4.9955   18.1404 C.ar      4 RES4    0.0000
    278 C103       2.8307    3.7967   17.6890 C.ar      4 RES4    0.0000
    279 H131       2.2602    3.2866   18.2167 H         4 RES4    0.0000
    280 C104       3.2050    3.3514   16.4698 C.ar      4 RES4    0.0000
    281 H132       2.8761    2.5375   16.1646 H         4 RES4    0.0000
    282 N20        2.9125    5.4386   19.4788 N.pl3     4 RES4    0.0000
    283 O27        2.0698    4.8112   20.1036 O.2       4 RES4    0.0000
    284 O28        3.4093    6.4713   19.9096 O.2       4 RES4    0.0000
@<TRIPOS>BOND
     1    1    2 1
     2    3    1 1
     3    4    5 1
     4    6    4 ar
     5    7    6 1
     6    8    6 ar
     7    9    8 1
     8   10    8 ar
     9   11   10 1
    10   12   10 ar
    11   13   12 1
    12   14    1 1
    13   15   16 1
    14   16    1 1
    15   17   15 2
    16   18   15 1
    17   19   18 1
    18   20   18 1
    19   21   20 1
    20   22   20 1
    21   23   22 2
    22   24   20 1
    23   25   24 1
    24   26   24 1
    25   27   24 1
    26   28   22 1
    27   29   28 1
    28   30   28 1
    29   31   30 1
    30   32   30 1
    31   33   32 2
    32   34   30 1
    33   35   34 1
    34   36   34 1
    35   37   34 1
    36   38   32 1
    37   39   38 1
    38   40   38 1
    39   41   40 1
    40   42   40 1
    41   43   42 2
    42   44   40 1
    43   45   44 1
    44   46   44 1
    45   47   44 1
    46   48   47 1
    47   49   47 1
    48   50   49 1
    49   51   49 1
    50   52   49 1
    51   53   47 1
    52   54   53 1
    53   55   53 1
    54   56   53 1
    55   57   42 1
    56   58   57 1
    57   59   57 1
    58   60   59 ar
    59   61   60 1
    60   62   60 ar
    61   63   62 1
    62   64   62 ar
    63   65   64 ar
    64   66   65 1
    65   67   59 ar
    66   68   67 1
    67   69   64 1
    68   70   69 2
    69   71   69 2
    70   72   73 1
    71   74   72 1
    72   75   76 1
    73   77   75 ar
    74   78   77 1
    75   79   77 ar
    76   80   79 1
    77   81   79 ar
    78   82   81 1
    79   83   81 ar
    80   84   83 1
    81   85   72 1
    82   86   87 1
    83   87   72 1
    84   88   86 2
    85   89   86 1
    86   90   89 1
    87   91   89 1
    88   92   91 1
    89   93   91 1
    90   94   93 2
    91   95   91 1
    92   96   95 1
    93   97   95 1
    94   98   95 1
    95   99   93 1
    96  100   99 1
    97  101   99 1
    98  102  101 1
    99  103  101 1
   100  104  103 2
   101  105  101 1
   102  106  105 1
   103  107  105 1
   104  108  105 1
   105  109  103 1
   106  110  109 1
   107  111  109 1
   108  112  111 1
   109  113  111 1
   110  114  113 2
   111  115  111 1
   112  116  115 1
   113  117  115 1
   114  118  115 1
   115  119  118 1
   116  120  118 1
   117  121  120 1
   118  122  120 1
   119  123  120 1
   120  124  118 1
   121  125  124 1
   122  126  124 1
   123  127  124 1
   124  128  113 1
   125  129  128 1
   126  130  128 1
   127  131  130 ar
   128  132  131 1
   129  133  131 ar
   130  134  133 1
   131  135  133 ar
   132  136  135 ar
   133  137  136 1
   134  138  130 ar
   135  139  138 1
   136  140  135 1
   137  141  140 2
   138  142  140 2
   139  143  144 1
   140  145  143 1
   141  146  147 1
   142  148  146 ar
   143  149  148 1
   144  150  148 ar
   145  151  150 1
   146  152  150 ar
   147  153  152 1
   148  154  152 ar
   149  155  154 1
   150  156  143 1
   151  157  158 1
   152  158  143 1
   153  159  157 2
   154  160  157 1
   155  161  160 1
   156  162  160 1
   157  163  162 1
   158  164  162 1
   159  165  164 2
   160  166  162 1
   161  167  166 1
   162  168  166 1
   163  169  166 1
   164  170  164 1
   165  171  170 1
   166  172  170 1
   167  173  172 1
   168  174  172 1
   169  175  174 2
   170  176  172 1
   171  177  176 1
   172  178  176 1
   173  179  176 1
   174  180  174 1
   175  181  180 1
   176  182  180 1
   177  183  182 1
   178  184  182 1
   179  185  184 2
   180  186  182 1
   181  187  186 1
   182  188  186 1
   183  189  186 1
   184  190  189 1
   185  191  189 1
   186  192  191 1
   187  193  191 1
   188  194  191 1
   189  195  189 1
   190  196  195 1
   191  197  195 1
   192  198  195 1
   193  199  184 1
   194  200  199 1
   195  201  199 1
   196  202  201 ar
   197  203  202 1
   198  204  202 ar
   199  205  204 1
   200  206  204 ar
   201  207  206 ar
   202  208  207 1
   203  209  201 ar
   204  210  209 1
   205  211  206 1
   206  212  211 2
   207  213  211 2
   208  214  215 1
   209  216  214 1
   210  217  218 1
   211  219  217 ar
   212  220  219 1
   213  221  219 ar
   214  222  221 1
   215  223  221 ar
   216  224  223 1
   217  225  223 ar
   218  226  225 1
   219  227  214 1
   220  228  229 1
   221  229  214 1
   222  230  228 2
   223  231  228 1
   224  232  231 1
   225  233  231 1
   226  234  233 1
   227  235  233 1
   228  236  235 2
   229  237  233 1
   230  238  237 1
   231  239  237 1
   232  240  237 1
   233  241  235 1
   234  242  241 1
   235  243  241 1
   236  244  243 1
   237  245  243 1
   238  246  245 2
   239  247  243 1
   240  248  247 1
   241  249  247 1
   242  250  247 1
   243  251  245 1
   244  252  251 1
   245  253  251 1
   246  254  253 1
   247  255  253 1
   248  256  255 2
   249  257  253 1
   250  258  257 1
   251  259  257 1
   252  260  257 1
   253  261  260 1
   254  262  260 1
   255  263  262 1
   256  264  262 1
   257  265  262 1
   258  266  260 1
   259  267  266 1
   260  268  266 1
   261  269  266 1
   262  270  255 1
   263  271  270 1
   264  272  270 1
   265  273  272 ar
   266  274  273 1
   267  275  273 ar
   268  276  275 1
   269  277  275 ar
   270  278  277 ar
   271  279  278 1
   272  280  272 ar
   273  281  280 1
   274  282  277 1
   275  283  282 2
   276  284  282 2
   277    4   14 ar
   278   12   14 ar
   279   65   67 ar
   280   75   85 ar
   281   83   85 ar
   282  136  138 ar
   283  146  156 ar
   284  154  156 ar
   285  207  209 ar
   286  217  227 ar
   287  225  227 ar
   288  278  280 ar
@<TRIPOS>SUBSTRUCTURE
     1 RES1 1
     2 RES2 72
     3 RES3 143
     4 RES4 214

@<TRIPOS>CRYSIN
  11.7500   15.0540   16.6920  80.3400  75.0600  88.9800   1 1

