# MOL2 file generated by ConQuest
# Please check atom types

@<TRIPOS>MOLECULE
MEFZIG
    92    98     1
SMALL
NO_CHARGES
****
Generated from CSD

@<TRIPOS>ATOM
      1 O1         2.5345    1.6039    4.0764 O.3       1 RES1    0.0000
      2 C1         3.3754    2.7526    3.8045 C.3       1 RES1    0.0000
      3 H1         3.9621    2.5650    3.0161 H         1 RES1    0.0000
      4 C2         1.0960    3.3435    4.0635 C.3       1 RES1    0.0000
      5 H2         1.1179    3.4753    5.0542 H         1 RES1    0.0000
      6 C3         2.4001    3.9209    3.4670 C.3       1 RES1    0.0000
      7 H3         2.3017    3.9894    2.4749 H         1 RES1    0.0000
      8 C4        -0.2486    3.8430    3.5443 C.3       1 RES1    0.0000
      9 H4        -0.9811    3.4937    4.1292 H         1 RES1    0.0000
     10 C5        -0.5289    3.4576    2.1065 C.3       1 RES1    0.0000
     11 H5        -0.0029    4.0571    1.5035 H         1 RES1    0.0000
     12 C6        -0.1391    1.9956    1.8153 C.3       1 RES1    0.0000
     13 H6        -0.1395    1.8578    0.8258 H         1 RES1    0.0000
     14 O2         1.1800    1.7809    2.2991 O.3       1 RES1    0.0000
     15 N1         1.2024    1.8976    3.7852 N.3       1 RES1    0.0000
     16 C7         4.2295    2.9738    5.0401 C.2       1 RES1    0.0000
     17 O3         5.2462    3.7950    4.7231 O.3       1 RES1    0.0000
     18 C8         6.1130    4.1701    5.8208 C.3       1 RES1    0.0000
     19 H7         6.8188    4.7649    5.4923 H         1 RES1    0.0000
     20 H8         6.5176    3.3651    6.2073 H         1 RES1    0.0000
     21 H9         5.5881    4.6332    6.5075 H         1 RES1    0.0000
     22 O4         4.0378    2.5014    6.1197 O.2       1 RES1    0.0000
     23 C9         2.8299    5.2668    4.0171 C.2       1 RES1    0.0000
     24 O5         2.7502    5.3168    5.3531 O.3       1 RES1    0.0000
     25 C10        3.2077    6.5432    5.9600 C.3       1 RES1    0.0000
     26 H10        3.1095    6.4830    6.9327 H         1 RES1    0.0000
     27 H11        2.6740    7.2930    5.6250 H         1 RES1    0.0000
     28 H12        4.1505    6.6879    5.7345 H         1 RES1    0.0000
     29 O6         3.1982    6.1746    3.3253 O.2       1 RES1    0.0000
     30 O7        -0.1930    5.2823    3.6553 O.3       1 RES1    0.0000
     31 C11       -1.2851    5.9361    4.1511 C.2       1 RES1    0.0000
     32 C12       -1.0054    7.3897    4.3018 C.ar      1 RES1    0.0000
     33 C13        0.2567    7.9347    4.0854 C.ar      1 RES1    0.0000
     34 H13        0.9665    7.3806    3.7839 H         1 RES1    0.0000
     35 C14        0.4821    9.2823    4.3070 C.ar      1 RES1    0.0000
     36 H14        1.3479    9.6480    4.1704 H         1 RES1    0.0000
     37 C15       -0.5540   10.0966    4.7257 C.ar      1 RES1    0.0000
     38 H15       -0.3958   11.0182    4.8919 H         1 RES1    0.0000
     39 C16       -1.8065    9.5787    4.9022 C.ar      1 RES1    0.0000
     40 H16       -2.5163   10.1484    5.1754 H         1 RES1    0.0000
     41 C17       -2.0517    8.2257    4.6871 C.ar      1 RES1    0.0000
     42 H17       -2.9277    7.8751    4.8004 H         1 RES1    0.0000
     43 O8        -2.3207    5.3938    4.4371 O.2       1 RES1    0.0000
     44 O9        -1.9213    3.7314    1.9319 O.3       1 RES1    0.0000
     45 C18       -2.4022    3.7888    0.6661 C.2       1 RES1    0.0000
     46 C19       -3.8283    4.2327    0.6609 C.ar      1 RES1    0.0000
     47 C20       -4.5274    4.2230   -0.5476 C.ar      1 RES1    0.0000
     48 H18       -4.1055    3.9127   -1.3399 H         1 RES1    0.0000
     49 C21       -5.8374    4.6685   -0.5862 C.ar      1 RES1    0.0000
     50 H19       -6.3161    4.6571   -1.4056 H         1 RES1    0.0000
     51 C22       -6.4488    5.1277    0.5604 C.ar      1 RES1    0.0000
     52 H20       -7.3448    5.4421    0.5231 H         1 RES1    0.0000
     53 C23       -5.7730    5.1339    1.7586 C.ar      1 RES1    0.0000
     54 H21       -6.2038    5.4448    2.5458 H         1 RES1    0.0000
     55 C24       -4.4591    4.6838    1.8192 C.ar      1 RES1    0.0000
     56 H22       -3.9935    4.6834    2.6476 H         1 RES1    0.0000
     57 O10       -1.7494    3.5195   -0.3028 O.2       1 RES1    0.0000
     58 O11       -1.0915    1.1560    2.3756 O.3       1 RES1    0.0000
     59 C25       -0.9144   -0.2360    2.0537 C.3       1 RES1    0.0000
     60 H23       -0.5140   -0.3083    1.1402 H         1 RES1    0.0000
     61 C26       -2.2797   -0.9779    2.0652 C.3       1 RES1    0.0000
     62 C27       -1.7960   -2.4579    2.1297 C.3       1 RES1    0.0000
     63 H24       -2.4484   -3.0104    2.6257 H         1 RES1    0.0000
     64 H25       -1.7013   -2.8280    1.2149 H         1 RES1    0.0000
     65 C28       -0.4227   -2.4667    2.8537 C.3       1 RES1    0.0000
     66 H26       -0.4971   -2.9195    3.7324 H         1 RES1    0.0000
     67 H27        0.2543   -2.9401    2.3100 H         1 RES1    0.0000
     68 C29       -0.0317   -0.9905    3.0392 C.3       1 RES1    0.0000
     69 H28       -0.2062   -0.6937    3.9669 H         1 RES1    0.0000
     70 H29        0.9263   -0.8519    2.8331 H         1 RES1    0.0000
     71 C30       -3.0490   -0.5337    3.3162 C.ar      1 RES1    0.0000
     72 C31       -3.8310    0.6245    3.2699 C.ar      1 RES1    0.0000
     73 H30       -3.9251    1.0890    2.4466 H         1 RES1    0.0000
     74 C32       -4.4756    1.1125    4.3959 C.ar      1 RES1    0.0000
     75 H31       -4.9893    1.9103    4.3379 H         1 RES1    0.0000
     76 C33       -4.3748    0.4473    5.6018 C.ar      1 RES1    0.0000
     77 H32       -4.8291    0.7705    6.3710 H         1 RES1    0.0000
     78 C34       -3.6015   -0.6992    5.6714 C.ar      1 RES1    0.0000
     79 H33       -3.5107   -1.1571    6.4985 H         1 RES1    0.0000
     80 C35       -2.9583   -1.1863    4.5389 C.ar      1 RES1    0.0000
     81 H34       -2.4442   -1.9828    4.6033 H         1 RES1    0.0000
     82 C36       -3.1353   -0.7540    0.8207 C.ar      1 RES1    0.0000
     83 C37       -2.8968    0.2540   -0.1044 C.ar      1 RES1    0.0000
     84 H35       -2.1601    0.8392    0.0271 H         1 RES1    0.0000
     85 C38       -3.7095    0.4271   -1.2123 C.ar      1 RES1    0.0000
     86 H36       -3.5218    1.1209   -1.8346 H         1 RES1    0.0000
     87 C39       -4.7912   -0.4065   -1.4133 C.ar      1 RES1    0.0000
     88 H37       -5.3549   -0.2871   -2.1696 H         1 RES1    0.0000
     89 C40       -5.0472   -1.4202   -0.4986 C.ar      1 RES1    0.0000
     90 H38       -5.7889   -1.9983   -0.6313 H         1 RES1    0.0000
     91 C41       -4.2374   -1.5906    0.5901 C.ar      1 RES1    0.0000
     92 H39       -4.4241   -2.2916    1.2033 H         1 RES1    0.0000
@<TRIPOS>BOND
     1    1    2 1
     2    2    3 1
     3    4    5 1
     4    6    2 1
     5    7    6 1
     6    8    4 1
     7    9    8 1
     8   10    8 1
     9   11   10 1
    10   12   10 1
    11   13   12 1
    12   14   12 1
    13   15    1 1
    14   16    2 1
    15   17   16 1
    16   18   17 1
    17   19   18 1
    18   20   18 1
    19   21   18 1
    20   22   16 2
    21   23    6 1
    22   24   23 1
    23   25   24 1
    24   26   25 1
    25   27   25 1
    26   28   25 1
    27   29   23 2
    28   30    8 1
    29   31   30 1
    30   32   31 1
    31   33   32 ar
    32   34   33 1
    33   35   33 ar
    34   36   35 1
    35   37   35 ar
    36   38   37 1
    37   39   37 ar
    38   40   39 1
    39   41   32 ar
    40   42   41 1
    41   43   31 2
    42   44   10 1
    43   45   44 1
    44   46   45 1
    45   47   46 ar
    46   48   47 1
    47   49   47 ar
    48   50   49 1
    49   51   49 ar
    50   52   51 1
    51   53   51 ar
    52   54   53 1
    53   55   46 ar
    54   56   55 1
    55   57   45 2
    56   58   12 1
    57   59   58 1
    58   60   59 1
    59   61   59 1
    60   62   61 1
    61   63   62 1
    62   64   62 1
    63   65   62 1
    64   66   65 1
    65   67   65 1
    66   68   59 1
    67   69   68 1
    68   70   68 1
    69   71   61 1
    70   72   71 ar
    71   73   72 1
    72   74   72 ar
    73   75   74 1
    74   76   74 ar
    75   77   76 1
    76   78   76 ar
    77   79   78 1
    78   80   71 ar
    79   81   80 1
    80   82   61 1
    81   83   82 ar
    82   84   83 1
    83   85   83 ar
    84   86   85 1
    85   87   85 ar
    86   88   87 1
    87   89   87 ar
    88   90   89 1
    89   91   82 ar
    90   92   91 1
    91    4    6 1
    92    4   15 1
    93   14   15 1
    94   39   41 ar
    95   53   55 ar
    96   65   68 1
    97   78   80 ar
    98   89   91 ar
@<TRIPOS>SUBSTRUCTURE
     1 RES1 1

@<TRIPOS>CRYSIN
  12.1040   12.1970   13.9710  99.3650 104.8270 113.6980   2 1

