# MOL2 file generated by ConQuest
# Please check atom types

@<TRIPOS>MOLECULE
MEGDUY
    30    30     2
SMALL
USER_CHARGES
****
Generated from CSD

@<TRIPOS>ATOM
      1 N1         1.1125    0.4358    3.4930 N.ar      1 RES1    0.0000
      2 N2         0.1748    4.2243    3.8853 N.ar      2 RES2    0.0000
      3 O1        -2.9608    2.9433    6.1410 O.2       2 RES2   -1.0000
      4 O2        -1.5256   -0.3159    5.7533 O.2       1 RES1    0.0000
      5 O3        -1.3365    1.9418    1.6186 O.2       2 RES2    0.0000
      6 C1        -1.8131    2.9224    4.1596 C.ar      2 RES2    0.0000
      7 H1        -2.4247    2.3304    3.7847 H         2 RES2    0.0000
      8 C2        -0.0136    4.6428    5.1535 C.ar      2 RES2    0.0000
      9 H2         0.6034    5.2384    5.5139 H         2 RES2    0.0000
     10 N3        -1.9709    3.3635    5.4378 N.pl3     2 RES2    1.0000
     11 C3        -0.7894   -0.9788    3.1841 C.ar      1 RES1    0.0000
     12 H3        -1.5651   -1.3463    3.5423 H         1 RES1    0.0000
     13 C4         1.4588    0.1233    2.2254 C.ar      1 RES1    0.0000
     14 H4         2.2313    0.5055    1.8762 H         1 RES1    0.0000
     15 N4         0.3324    0.9245    6.0575 N.am      1 RES1    0.0000
     16 C5        -0.7376    3.3662    3.4319 C.ar      2 RES2    0.0000
     17 C6        -0.0110   -0.1387    3.9316 C.ar      1 RES1    0.0000
     18 N5        -0.4147   -1.2687    1.9120 N.pl3     1 RES1    1.0000
     19 N6         0.4123    3.3460    1.3121 N.am      2 RES2    0.0000
     20 C7        -1.0581    4.2421    5.9438 C.ar      2 RES2    0.0000
     21 H5        -1.1447    4.5654    6.8112 H         2 RES2    0.0000
     22 C8         0.7419   -0.7207    1.4266 C.ar      1 RES1    0.0000
     23 H6         1.0347   -0.9207    0.5671 H         1 RES1    0.0000
     24 C9        -0.5722    2.8236    2.0221 C.2       2 RES2    0.0000
     25 C10       -0.4604    0.1535    5.3557 C.2       1 RES1    0.0000
     26 O4        -1.1445   -2.0413    1.1971 O.2       1 RES1   -1.0000
     27 H7         1.0582    1.1847    5.5536 H         1 RES1    0.0000
     28 H8         0.9348    3.8685    1.7484 H         2 RES2    0.0000
     29 H9         0.1163    1.1581    6.7789 H         1 RES1    0.0000
     30 H10        0.5724    3.0298    0.4848 H         2 RES2    0.0000
@<TRIPOS>BOND
     1    1   13 ar
     2    2    8 ar
     3    3   10 1
     4    4   25 2
     5    5   24 2
     6    6    7 1
     7    8    9 1
     8   10    6 ar
     9   11   12 1
    10   13   14 1
    11   15   25 1
    12   16    2 ar
    13   17    1 ar
    14   18   11 ar
    15   19   24 1
    16   20    8 ar
    17   21   20 1
    18   22   13 ar
    19   23   22 1
    20   24   16 1
    21   25   17 1
    22   26   18 1
    23   27   15 1
    24   28   19 1
    25   29   15 1
    26   30   19 1
    27    6   16 ar
    28   10   20 ar
    29   11   17 ar
    30   18   22 ar
@<TRIPOS>SUBSTRUCTURE
     1 RES1 1
     2 RES2 2

@<TRIPOS>CRYSIN
   5.4030    7.5080   14.9780  96.8380  97.0940 102.8220   2 1

