# MOL2 file generated by ConQuest
# Please check atom types

@<TRIPOS>MOLECULE
MEGLUG
    24    25     1
SMALL
NO_CHARGES
****
Generated from CSD

@<TRIPOS>ATOM
      1 O1        -0.5889    9.8459   10.2344 O.3       1 RES1    0.0000
      2 O2        -0.9809    8.6656   13.3003 O.3       1 RES1    0.0000
      3 N1        -0.7826    9.2459    8.9682 N.2       1 RES1    0.0000
      4 N2        -0.1416    7.7241   10.4800 N.2       1 RES1    0.0000
      5 C1        -1.6724    8.4459    6.3978 C.3       1 RES1    0.0000
      6 H1        -2.0660    8.3353    5.5291 H         1 RES1    0.0000
      7 H2        -0.9538    9.0792    6.3454 H         1 RES1    0.0000
      8 H3        -2.3373    8.7659    7.0123 H         1 RES1    0.0000
      9 C2        -1.1426    7.1272    6.8772 C.ar      1 RES1    0.0000
     10 C3        -1.1888    6.0304    6.0230 C.ar      1 RES1    0.0000
     11 H4        -1.5646    6.1363    5.1788 H         1 RES1    0.0000
     12 C4        -0.6993    4.7933    6.3809 C.ar      1 RES1    0.0000
     13 H5        -0.7386    4.0846    5.7799 H         1 RES1    0.0000
     14 C5        -0.1509    4.6107    7.6294 C.ar      1 RES1    0.0000
     15 H6         0.1821    3.7785    7.8767 H         1 RES1    0.0000
     16 C6        -0.0982    5.6651    8.5073 C.ar      1 RES1    0.0000
     17 H7         0.2684    5.5368    9.3523 H         1 RES1    0.0000
     18 C7        -0.5857    6.9290    8.1578 C.ar      1 RES1    0.0000
     19 C8        -0.5137    7.9895    9.1801 C.2       1 RES1    0.0000
     20 C9        -0.2161    8.8698   11.0583 C.2       1 RES1    0.0000
     21 C10        0.0224    9.2194   12.4900 C.3       1 RES1    0.0000
     22 H8         0.8888    8.8804   12.7668 H         1 RES1    0.0000
     23 H9         0.0285   10.1837   12.5921 H         1 RES1    0.0000
     24 H10       -0.7766    7.7773   13.7140 H         1 RES1    0.0000
@<TRIPOS>BOND
     1    1    3 1
     2    2   21 1
     3    3   19 2
     4    4   19 1
     5    5    6 1
     6    7    5 1
     7    8    5 1
     8    9    5 1
     9   10    9 ar
    10   11   10 1
    11   12   10 ar
    12   13   12 1
    13   14   12 ar
    14   15   14 1
    15   16   14 ar
    16   17   16 1
    17   18    9 ar
    18   19   18 1
    19   20    1 1
    20   21   20 1
    21   22   21 1
    22   23   21 1
    23   24    2 1
    24    4   20 2
    25   16   18 ar
@<TRIPOS>SUBSTRUCTURE
     1 RES1 1

@<TRIPOS>CRYSIN
   7.5290   14.3070    8.7990  90.0000 106.3900  90.0000 231 1

