# MOL2 file generated by ConQuest
# Please check atom types

@<TRIPOS>MOLECULE
MEGQAQ
    30    32     1
SMALL
NO_CHARGES
****
Generated from CSD

@<TRIPOS>ATOM
      1 O1         2.2069    7.9216    7.5546 O.3       1 RES1    0.0000
      2 C1         0.9528    6.9454    6.0798 C.2       1 RES1    0.0000
      3 N1         0.9722    7.9857    6.8711 N.2       1 RES1    0.0000
      4 C2         2.1505    6.1693    6.1843 C.2       1 RES1    0.0000
      5 C3         2.8763    6.8178    7.1298 C.2       1 RES1    0.0000
      6 C4         4.1429    6.5419    7.8054 C.ar      1 RES1    0.0000
      7 C5         4.5963    5.2348    7.9447 C.ar      1 RES1    0.0000
      8 H1         4.0879    4.5040    7.5852 H         1 RES1    0.0000
      9 C6         5.7769    5.0160    8.6104 C.ar      1 RES1    0.0000
     10 H2         6.0803    4.1100    8.6988 H         1 RES1    0.0000
     11 N2         6.5352    5.9765    9.1423 N.ar      1 RES1    0.0000
     12 C7         6.0843    7.2219    9.0011 C.ar      1 RES1    0.0000
     13 H3         6.6130    7.9302    9.3755 H         1 RES1    0.0000
     14 C8         4.9101    7.5586    8.3554 C.ar      1 RES1    0.0000
     15 H4         4.6273    8.4733    8.2867 H         1 RES1    0.0000
     16 C9        -0.2349    6.7043    5.2105 C.3       1 RES1    0.0000
     17 H5        -0.8851    7.3931    5.3637 H         1 RES1    0.0000
     18 H6         0.0366    6.7190    4.2895 H         1 RES1    0.0000
     19 H7        -0.6208    5.8497    5.4163 H         1 RES1    0.0000
     20 C10        2.5239    4.9708    5.3934 C.ar      1 RES1    0.0000
     21 C11        1.7138    3.8425    5.3919 C.ar      1 RES1    0.0000
     22 H8         0.8891    3.8493    5.8840 H         1 RES1    0.0000
     23 C12        2.0820    2.7123    4.6835 C.ar      1 RES1    0.0000
     24 H9         1.5194    1.9350    4.6958 H         1 RES1    0.0000
     25 C13        3.2563    2.6989    3.9582 C.ar      1 RES1    0.0000
     26 H10        3.5078    1.9156    3.4623 H         1 RES1    0.0000
     27 C14        4.0636    3.8163    3.9500 C.ar      1 RES1    0.0000
     28 H11        4.8767    3.8141    3.4389 H         1 RES1    0.0000
     29 C15        3.7067    4.9418    4.6676 C.ar      1 RES1    0.0000
     30 H12        4.2844    5.7079    4.6724 H         1 RES1    0.0000
@<TRIPOS>BOND
     1    1    3 1
     2    2    3 2
     3    4    2 1
     4    5    1 1
     5    6    5 1
     6    7    6 ar
     7    8    7 1
     8    9    7 ar
     9   10    9 1
    10   11    9 ar
    11   12   11 ar
    12   13   12 1
    13   14    6 ar
    14   15   14 1
    15   16    2 1
    16   17   16 1
    17   18   16 1
    18   19   16 1
    19   20    4 1
    20   21   20 ar
    21   22   21 1
    22   23   21 ar
    23   24   23 1
    24   25   23 ar
    25   26   25 1
    26   27   25 ar
    27   28   27 1
    28   29   20 ar
    29   30   29 1
    30    4    5 2
    31   12   14 ar
    32   27   29 ar
@<TRIPOS>SUBSTRUCTURE
     1 RES1 1

@<TRIPOS>CRYSIN
  13.5540   12.1238   14.6150  90.0000  90.0000  90.0000  61 1

