# MOL2 file generated by ConQuest
# Please check atom types

@<TRIPOS>MOLECULE
MEGQIY
    37    40     1
SMALL
NO_CHARGES
****
Generated from CSD

@<TRIPOS>ATOM
      1 O1         1.2527    1.9596   -0.1229 O.3       1 RES1    0.0000
      2 C1         2.5277    3.7218   -0.0558 C.2       1 RES1    0.0000
      3 N1         2.2869    2.6610   -0.7882 N.2       1 RES1    0.0000
      4 C2         1.6941    3.7692    1.1026 C.2       1 RES1    0.0000
      5 C3         0.9349    2.6479    0.9973 C.2       1 RES1    0.0000
      6 C4        -0.1318    2.0791    1.8238 C.ar      1 RES1    0.0000
      7 C5        -0.1898    2.3226    3.1721 C.ar      1 RES1    0.0000
      8 H1         0.4871    2.8636    3.5870 H         1 RES1    0.0000
      9 C6        -1.2264    1.7963    3.9173 C.ar      1 RES1    0.0000
     10 H2        -1.2665    1.9876    4.8555 H         1 RES1    0.0000
     11 N2        -2.1924    1.0150    3.4019 N.ar      1 RES1    0.0000
     12 C7        -2.1021    0.7666    2.0951 C.ar      1 RES1    0.0000
     13 H3        -2.7837    0.2109    1.7121 H         1 RES1    0.0000
     14 C8        -1.1126    1.2537    1.2781 C.ar      1 RES1    0.0000
     15 H4        -1.0878    1.0265    0.3463 H         1 RES1    0.0000
     16 C9         3.5556    4.6730   -0.5170 C.ar      1 RES1    0.0000
     17 C10        3.4669    6.0150   -0.2393 C.ar      1 RES1    0.0000
     18 H5         2.7326    6.3353    0.2872 H         1 RES1    0.0000
     19 C11        4.4195    6.8943   -0.7069 C.ar      1 RES1    0.0000
     20 H6         4.3459    7.8293   -0.5026 H         1 RES1    0.0000
     21 C12        5.4774    6.4497   -1.4760 C.ar      1 RES1    0.0000
     22 H7         6.1436    7.0561   -1.8047 H         1 RES1    0.0000
     23 C13        5.5646    5.1242   -1.7456 C.ar      1 RES1    0.0000
     24 H8         6.3079    4.8038   -2.2626 H         1 RES1    0.0000
     25 C14        4.6335    4.2170   -1.2973 C.ar      1 RES1    0.0000
     26 H9         4.7067    3.2870   -1.5143 H         1 RES1    0.0000
     27 C15        1.6608    4.7956    2.1589 C.ar      1 RES1    0.0000
     28 C16        2.7193    4.9754    3.0126 C.ar      1 RES1    0.0000
     29 H10        3.5064    4.4377    2.9025 H         1 RES1    0.0000
     30 C17        2.6633    5.9300    4.0146 C.ar      1 RES1    0.0000
     31 H11        3.3915    6.0313    4.6322 H         1 RES1    0.0000
     32 C18        1.5571    6.7227    4.1359 C.ar      1 RES1    0.0000
     33 H12        1.5241    7.3879    4.8252 H         1 RES1    0.0000
     34 C19        0.4976    6.5723    3.2966 C.ar      1 RES1    0.0000
     35 H13       -0.2705    7.1428    3.3780 H         1 RES1    0.0000
     36 C20        0.5418    5.6080    2.3009 C.ar      1 RES1    0.0000
     37 H14       -0.2010    5.4837    1.7041 H         1 RES1    0.0000
@<TRIPOS>BOND
     1    1    3 1
     2    2    3 2
     3    4    2 1
     4    5    1 1
     5    6    5 1
     6    7    6 ar
     7    8    7 1
     8    9    7 ar
     9   10    9 1
    10   11    9 ar
    11   12   11 ar
    12   13   12 1
    13   14    6 ar
    14   15   14 1
    15   16    2 1
    16   17   16 ar
    17   18   17 1
    18   19   17 ar
    19   20   19 1
    20   21   19 ar
    21   22   21 1
    22   23   21 ar
    23   24   23 1
    24   25   16 ar
    25   26   25 1
    26   27    4 1
    27   28   27 ar
    28   29   28 1
    29   30   28 ar
    30   31   30 1
    31   32   30 ar
    32   33   32 1
    33   34   32 ar
    34   35   34 1
    35   36   27 ar
    36   37   36 1
    37    4    5 2
    38   12   14 ar
    39   23   25 ar
    40   34   36 ar
@<TRIPOS>SUBSTRUCTURE
     1 RES1 1

@<TRIPOS>CRYSIN
   5.8530   16.3450   16.0540  90.0000  96.3200  90.0000 231 1

