# MOL2 file generated by ConQuest
# Please check atom types

@<TRIPOS>MOLECULE
MEINAN10
    29    29     1
SMALL
NO_CHARGES
****
Generated from CSD

@<TRIPOS>ATOM
      1 C1         5.6035    1.9574    2.3626 C.ar      1 RES1    0.0000
      2 C10        7.8562    1.0832    3.8033 C.2       1 RES1    0.0000
      3 C13        6.0286    4.2932    3.0675 C.3       1 RES1    0.0000
      4 C14        6.6293    4.9973    1.8722 C.3       1 RES1    0.0000
      5 C15        5.5556    0.1445   -0.9085 C.3       1 RES1    0.0000
      6 C2         5.9738    1.5408    1.1364 C.ar      1 RES1    0.0000
      7 C3         5.1385    0.6310    0.4087 C.ar      1 RES1    0.0000
      8 C4         3.9695    0.2356    1.0748 C.ar      1 RES1    0.0000
      9 C5         3.5932    0.6295    2.2961 C.ar      1 RES1    0.0000
     10 C6         4.4062    1.5182    2.9351 C.ar      1 RES1    0.0000
     11 C8         7.5180    2.5164    3.7898 C.2       1 RES1    0.0000
     12 H16        6.7931    1.7392    0.7546 H         1 RES1    0.0000
     13 H17        5.4848   -1.0733   -1.1305 H         1 RES1    0.0000
     14 H18        6.6864    0.5250   -1.2380 H         1 RES1    0.0000
     15 H19        4.9533    0.5880   -1.4581 H         1 RES1    0.0000
     16 H20        3.3686   -0.5393    0.4522 H         1 RES1    0.0000
     17 H21        2.6900    0.0771    2.3674 H         1 RES1    0.0000
     18 H22        4.1050    2.0111    3.9501 H         1 RES1    0.0000
     19 H23        7.2223    0.3895    3.5461 H         1 RES1    0.0000
     20 H24       10.0393   -0.6554    4.6404 H         1 RES1    0.0000
     21 H25        6.2991    4.7075    3.9571 H         1 RES1    0.0000
     22 H26        4.9321    4.4491    3.1352 H         1 RES1    0.0000
     23 H27        6.0022    4.7037    0.9295 H         1 RES1    0.0000
     24 H28        6.6600    6.0414    2.0690 H         1 RES1    0.0000
     25 H29        7.4330    4.6071    1.7213 H         1 RES1    0.0000
     26 N11        8.9560    0.7623    4.3343 N.2       1 RES1    0.0000
     27 N7         6.4098    2.8807    3.1134 N.am      1 RES1    0.0000
     28 O12        9.1815   -0.5844    4.3078 O.3       1 RES1    0.0000
     29 O9         8.2079    3.3535    4.3666 O.2       1 RES1    0.0000
@<TRIPOS>BOND
     1    1    6 ar
     2    2   11 1
     3    3    4 1
     4    4   23 1
     5    5    7 1
     6    6    7 ar
     7    7    8 ar
     8    8    9 ar
     9    9   10 ar
    10   10    1 ar
    11   11   27 1
    12   12    6 1
    13   13    5 1
    14   14    5 1
    15   15    5 1
    16   16    8 1
    17   17    9 1
    18   18   10 1
    19   19    2 1
    20   20   28 1
    21   21    3 1
    22   22    3 1
    23   24    4 1
    24   25    4 1
    25   26    2 2
    26   27    1 1
    27   28   26 1
    28   29   11 2
    29    3   27 1
@<TRIPOS>SUBSTRUCTURE
     1 RES1 1

@<TRIPOS>CRYSIN
  15.3600    7.4900   10.5900  90.0000 108.4000  90.0000  14 2

