# MOL2 file generated by ConQuest
# Please check atom types

@<TRIPOS>MOLECULE
MEISOX
    19    21     1
SMALL
NO_CHARGES
****
Generated from CSD

@<TRIPOS>ATOM
      1 N1        -2.2969    8.7377    3.7476 N.2       1 RES1    0.0000
      2 N2        -3.7124    3.8671    1.4927 N.2       1 RES1    0.0000
      3 N3        -2.5647    0.0267   -0.8808 N.2       1 RES1    0.0000
      4 O1        -1.7285    7.7022    2.9536 O.3       1 RES1    0.0000
      5 O2        -2.8582    4.9666    1.7929 O.3       1 RES1    0.0000
      6 O3        -3.1937    1.0755   -0.1608 O.3       1 RES1    0.0000
      7 C1        -3.8009   10.6111    3.4667 C.3       1 RES1    0.0000
      8 C2        -3.0671    9.4262    2.9437 C.2       1 RES1    0.0000
      9 C3        -3.0244    8.8764    1.6337 C.2       1 RES1    0.0000
     10 C4        -2.2087    7.8356    1.6941 C.2       1 RES1    0.0000
     11 C5        -1.7494    6.8215    0.6915 C.3       1 RES1    0.0000
     12 C6        -2.6267    5.6232    0.6349 C.2       1 RES1    0.0000
     13 C7        -3.2639    4.9987   -0.3787 C.2       1 RES1    0.0000
     14 C8        -3.9326    3.9311    0.1970 C.2       1 RES1    0.0000
     15 C9        -4.7983    2.8716   -0.4407 C.3       1 RES1    0.0000
     16 C10       -4.0214    1.7347   -1.0185 C.2       1 RES1    0.0000
     17 C11       -3.9611    1.1796   -2.2237 C.2       1 RES1    0.0000
     18 C12       -3.0400    0.1201   -2.0843 C.2       1 RES1    0.0000
     19 C13       -2.5957   -0.8567   -3.1412 C.3       1 RES1    0.0000
@<TRIPOS>BOND
     1    1    4 1
     2    2    5 1
     3    3    6 1
     4    4   10 1
     5    5   12 1
     6    6   16 1
     7    7    8 1
     8    8    1 2
     9    9    8 1
    10   10    9 2
    11   11   10 1
    12   12   11 1
    13   13   12 2
    14   14    2 2
    15   15   14 1
    16   16   15 1
    17   17   16 2
    18   18    3 2
    19   19   18 1
    20   13   14 1
    21   17   18 1
@<TRIPOS>SUBSTRUCTURE
     1 RES1 1

@<TRIPOS>CRYSIN
   8.8460   26.6880    9.0810  90.0000 142.8200  90.0000  14 1

