# MOL2 file generated by ConQuest
# Please check atom types

@<TRIPOS>MOLECULE
MEJDOX
    46    49     1
SMALL
NO_CHARGES
****
Generated from CSD

@<TRIPOS>ATOM
      1 O1        -2.1030    1.0215    5.3305 O.2       1 RES1    0.0000
      2 O2         0.0036    6.3844    6.4881 O.2       1 RES1    0.0000
      3 O3         4.4799   -0.1074   -0.2148 O.2       1 RES1    0.0000
      4 O4         2.5579   -0.2164   -1.1732 O.2       1 RES1    0.0000
      5 O5        -9.1763    3.7596    1.6955 O.2       1 RES1    0.0000
      6 O6        -7.8525    3.0522    0.1171 O.2       1 RES1    0.0000
      7 N1        -0.3598    2.3334    4.5758 N.am      1 RES1    0.0000
      8 N2        -2.4129    3.1873    4.5707 N.am      1 RES1    0.0000
      9 N3         0.4902    4.5210    5.2062 N.am      1 RES1    0.0000
     10 N4        -1.5149    5.4047    5.0402 N.am      1 RES1    0.0000
     11 N5         3.2922   -0.0410   -0.2007 N.pl3     1 RES1    0.0000
     12 N6        -8.0687    3.4106    1.2813 N.pl3     1 RES1    0.0000
     13 C1        -1.6687    2.0896    4.8756 C.2       1 RES1    0.0000
     14 C2        -0.3178    5.5046    5.6603 C.2       1 RES1    0.0000
     15 C3        -0.1319    3.7026    4.1796 C.3       1 RES1    0.0000
     16 H1         0.3425    3.7712    3.3010 H         1 RES1    0.0000
     17 C4        -1.5785    4.2994    4.1204 C.3       1 RES1    0.0000
     18 H2        -1.8204    4.5983    3.1968 H         1 RES1    0.0000
     19 C5         0.6993    1.3681    4.7521 C.3       1 RES1    0.0000
     20 H3         0.3223    0.5511    5.1637 H         1 RES1    0.0000
     21 H4         1.3700    1.7394    5.3786 H         1 RES1    0.0000
     22 C6         1.3937    0.9891    3.4669 C.ar      1 RES1    0.0000
     23 C7         2.7459    0.6595    3.4721 C.ar      1 RES1    0.0000
     24 H5         3.2382    0.6828    4.2838 H         1 RES1    0.0000
     25 C8         3.3821    0.2916    2.2731 C.ar      1 RES1    0.0000
     26 H6         4.3009    0.0527    2.2641 H         1 RES1    0.0000
     27 C9         2.6370    0.2881    1.1089 C.ar      1 RES1    0.0000
     28 C10        1.3125    0.6053    1.0935 C.ar      1 RES1    0.0000
     29 H7         0.8237    0.5860    0.2792 H         1 RES1    0.0000
     30 C11        0.6918    0.9527    2.2667 C.ar      1 RES1    0.0000
     31 H8        -0.2328    1.1713    2.2590 H         1 RES1    0.0000
     32 C12       -3.7607    3.3659    5.0570 C.3       1 RES1    0.0000
     33 H9        -3.7965    4.2101    5.5728 H         1 RES1    0.0000
     34 H10       -3.9689    2.6267    5.6822 H         1 RES1    0.0000
     35 C13       -4.8387    3.4111    3.9957 C.ar      1 RES1    0.0000
     36 C14       -6.0551    4.0008    4.3276 C.ar      1 RES1    0.0000
     37 H11       -6.1559    4.4143    5.1766 H         1 RES1    0.0000
     38 C15       -7.1159    3.9969    3.4451 C.ar      1 RES1    0.0000
     39 H12       -7.9489    4.3862    3.6818 H         1 RES1    0.0000
     40 C16       -6.9313    3.4137    2.2140 C.ar      1 RES1    0.0000
     41 C17       -5.7362    2.8383    1.8229 C.ar      1 RES1    0.0000
     42 H13       -5.6374    2.4589    0.9571 H         1 RES1    0.0000
     43 C18       -4.6782    2.8328    2.7337 C.ar      1 RES1    0.0000
     44 H14       -3.8497    2.4362    2.4957 H         1 RES1    0.0000
     45 H15        1.3127    4.4486    5.4673 H         1 RES1    0.0000
     46 H16       -2.0731    6.0423    5.0557 H         1 RES1    0.0000
@<TRIPOS>BOND
     1    1   13 2
     2    2   14 2
     3    3   11 2
     4    4   11 2
     5    5   12 2
     6    6   12 2
     7    7   13 1
     8    8   13 1
     9    9   14 1
    10   10   14 1
    11   11   27 1
    12   12   40 1
    13   15    7 1
    14   16   15 1
    15   17    8 1
    16   18   17 1
    17   19    7 1
    18   20   19 1
    19   21   19 1
    20   22   19 1
    21   23   22 ar
    22   24   23 1
    23   25   23 ar
    24   26   25 1
    25   27   25 ar
    26   28   27 ar
    27   29   28 1
    28   30   22 ar
    29   31   30 1
    30   32    8 1
    31   33   32 1
    32   34   32 1
    33   35   32 1
    34   36   35 ar
    35   37   36 1
    36   38   36 ar
    37   39   38 1
    38   40   38 ar
    39   41   40 ar
    40   42   41 1
    41   43   35 ar
    42   44   43 1
    43   45    9 1
    44   46   10 1
    45    9   15 1
    46   10   17 1
    47   15   17 1
    48   28   30 ar
    49   41   43 ar
@<TRIPOS>SUBSTRUCTURE
     1 RES1 1

@<TRIPOS>CRYSIN
  11.6940   12.8120   13.9570  90.3340 111.8910 105.1420   2 1

