# MOL2 file generated by ConQuest
# Please check atom types

@<TRIPOS>MOLECULE
MEJDUD
   188   204     1
SMALL
NO_CHARGES
****
Generated from CSD

@<TRIPOS>ATOM
      1 O1         1.8919    7.7590   20.1726 O.2       1 RES1    0.0000
      2 O2         0.0258    9.1675   14.5901 O.2       1 RES1    0.0000
      3 O3         2.8792    7.1175    9.0431 O.2       1 RES1    0.0000
      4 O4         4.7672    8.8360   14.5021 O.2       1 RES1    0.0000
      5 O5         8.2636   14.2321   14.9618 O.2       1 RES1    0.0000
      6 O6         3.1158   12.6890   12.1620 O.2       1 RES1    0.0000
      7 O7        -2.8109   14.6770   13.6662 O.2       1 RES1    0.0000
      8 O8         2.1453   13.0743   16.7558 O.2       1 RES1    0.0000
      9 O9        -4.7961    9.6263   20.9984 O.2       1 RES1    0.0000
     10 O10       -4.5423   11.6357   21.7435 O.2       1 RES1    0.0000
     11 O11        9.0827    5.7867   18.5552 O.2       1 RES1    0.0000
     12 O12        8.8077    4.2536   17.0456 O.2       1 RES1    0.0000
     13 O13       -4.1708    4.3444    9.7122 O.2       1 RES1    0.0000
     14 O14       -4.3303    3.8687   11.8234 O.2       1 RES1    0.0000
     15 O15       10.2294    9.9002    8.1159 O.2       1 RES1    0.0000
     16 O16       10.1759    8.4640    9.7337 O.2       1 RES1    0.0000
     17 O17        9.1528   10.6669   20.8015 O.2       1 RES1    0.0000
     18 O18        8.0296    8.8709   20.4149 O.2       1 RES1    0.0000
     19 O19        4.7424   21.4883   14.6312 O.2       1 RES1    0.0000
     20 O20        4.0803   20.5706   12.7840 O.2       1 RES1    0.0000
     21 O21        0.6073   20.2457   17.4072 O.2       1 RES1    0.0000
     22 O22        1.7248   21.1560   15.7753 O.2       1 RES1    0.0000
     23 O23       -3.3529    8.5393    8.7766 O.2       1 RES1    0.0000
     24 O24       -4.0786   10.4705    8.1294 O.2       1 RES1    0.0000
     25 N1         1.8518    9.6045   18.7669 N.am      1 RES1    0.0000
     26 N2         2.4383    7.6320   17.9190 N.am      1 RES1    0.0000
     27 N3         0.8398   10.0280   16.5754 N.am      1 RES1    0.0000
     28 N4         1.8832    8.2920   15.6510 N.am      1 RES1    0.0000
     29 N5         2.0944    7.4112   11.2076 N.am      1 RES1    0.0000
     30 N6         3.2373    9.0560   10.2480 N.am      1 RES1    0.0000
     31 N7         2.8559    8.1024   13.4197 N.am      1 RES1    0.0000
     32 N8         4.1243    9.6554   12.4427 N.am      1 RES1    0.0000
     33 N9         6.9576   12.4062   14.4304 N.am      1 RES1    0.0000
     34 N10        5.9714   14.2485   15.2280 N.am      1 RES1    0.0000
     35 N11        4.8756   11.7843   13.3417 N.am      1 RES1    0.0000
     36 N12        3.8833   13.6048   14.1519 N.am      1 RES1    0.0000
     37 N13       -0.5079   14.5627   13.5215 N.am      1 RES1    0.0000
     38 N14       -1.6201   12.7939   14.2798 N.am      1 RES1    0.0000
     39 N15        1.5207   13.8841   14.6769 N.am      1 RES1    0.0000
     40 N16        0.3725   12.2037   15.5737 N.am      1 RES1    0.0000
     41 N17       -4.1230   10.6351   21.1773 N.pl3     1 RES1    0.0000
     42 N18        8.3850    5.1216   17.8176 N.pl3     1 RES1    0.0000
     43 N19       -3.7315    4.3492   10.8698 N.pl3     1 RES1    0.0000
     44 N20        9.6177    9.2069    8.9251 N.pl3     1 RES1    0.0000
     45 N21        8.5750    9.9028   20.0384 N.pl3     1 RES1    0.0000
     46 N22        4.5344   20.5025   13.9219 N.pl3     1 RES1    0.0000
     47 N23        1.0409   20.2444   16.2515 N.pl3     1 RES1    0.0000
     48 N24       -3.6326    9.7178    8.9860 N.pl3     1 RES1    0.0000
     49 C1         2.0466    8.2744   19.0658 C.2       1 RES1    0.0000
     50 C2         0.8216    9.1635   15.5128 C.2       1 RES1    0.0000
     51 C3         2.0601    9.8932   17.3677 C.3       1 RES1    0.0000
     52 H1         2.6763   10.6700   17.2368 H         1 RES1    0.0000
     53 C4         2.6735    8.5694   16.8239 C.3       1 RES1    0.0000
     54 H2         3.6452    8.6647   16.6096 H         1 RES1    0.0000
     55 C5         2.7613    7.7847   10.0643 C.2       1 RES1    0.0000
     56 C6         3.9939    8.8570   13.5498 C.2       1 RES1    0.0000
     57 C7         2.1019    8.4498   12.2214 C.3       1 RES1    0.0000
     58 H3         1.1780    8.7629   12.4398 H         1 RES1    0.0000
     59 C8         2.9594    9.5809   11.5654 C.3       1 RES1    0.0000
     60 H4         2.4657   10.4496   11.5261 H         1 RES1    0.0000
     61 C9         7.1789   13.6914   14.8852 C.2       1 RES1    0.0000
     62 C10        3.8841   12.7038   13.1108 C.2       1 RES1    0.0000
     63 C11        5.5784   12.0095   14.5987 C.3       1 RES1    0.0000
     64 H5         5.4877   11.2329   15.2216 H         1 RES1    0.0000
     65 C12        4.8891   13.2821   15.1568 C.3       1 RES1    0.0000
     66 H6         4.4777   13.1182   16.0540 H         1 RES1    0.0000
     67 C13       -1.7439   14.0761   13.8082 C.2       1 RES1    0.0000
     68 C14        1.4112   13.0597   15.7669 C.2       1 RES1    0.0000
     69 C15        0.5300   13.5607   13.6605 C.3       1 RES1    0.0000
     70 H7         0.9546   13.3407   12.7824 H         1 RES1    0.0000
     71 C16       -0.2344   12.3479   14.2537 C.3       1 RES1    0.0000
     72 H8        -0.1178   11.5253   13.6981 H         1 RES1    0.0000
     73 C17        1.4139   10.5740   19.7428 C.3       1 RES1    0.0000
     74 H9         1.6945   11.4730   19.4398 H         1 RES1    0.0000
     75 H10        1.8786   10.3907   20.5975 H         1 RES1    0.0000
     76 C18       -0.0777   10.6021   20.0053 C.ar      1 RES1    0.0000
     77 C19       -0.8875    9.5035   19.7573 C.ar      1 RES1    0.0000
     78 H11       -0.5195    8.7367   19.3334 H         1 RES1    0.0000
     79 C20       -2.2249    9.5087   20.1174 C.ar      1 RES1    0.0000
     80 H12       -2.7774    8.7542   19.9567 H         1 RES1    0.0000
     81 C21       -2.7293   10.6460   20.7175 C.ar      1 RES1    0.0000
     82 C22       -1.9829   11.7839   20.9072 C.ar      1 RES1    0.0000
     83 H13       -2.3706   12.5683   21.2750 H         1 RES1    0.0000
     84 C23       -0.6450   11.7507   20.5452 C.ar      1 RES1    0.0000
     85 H14       -0.1071   12.5247   20.6672 H         1 RES1    0.0000
     86 C24        2.7600    6.2215   17.8621 C.3       1 RES1    0.0000
     87 H15        2.3574    5.8347   17.0452 H         1 RES1    0.0000
     88 H16        2.3511    5.7692   18.6423 H         1 RES1    0.0000
     89 C25        4.2491    5.9363   17.8581 C.ar      1 RES1    0.0000
     90 C26        5.0887    6.5211   18.7964 C.ar      1 RES1    0.0000
     91 H17        4.7308    7.1177   19.4437 H         1 RES1    0.0000
     92 C27        6.4386    6.2423   18.7933 C.ar      1 RES1    0.0000
     93 H18        7.0176    6.6486   19.4263 H         1 RES1    0.0000
     94 C28        6.9308    5.3620   17.8563 C.ar      1 RES1    0.0000
     95 C29        6.1267    4.7290   16.9348 C.ar      1 RES1    0.0000
     96 H19        6.4886    4.1065   16.3154 H         1 RES1    0.0000
     97 C30        4.7746    5.0299   16.9426 C.ar      1 RES1    0.0000
     98 H20        4.1991    4.6127   16.3134 H         1 RES1    0.0000
     99 C31        1.7174    6.0286   11.4583 C.3       1 RES1    0.0000
    100 H21        2.0491    5.7670   12.3546 H         1 RES1    0.0000
    101 H22        2.1683    5.4528   10.7924 H         1 RES1    0.0000
    102 C32        0.2269    5.7607   11.3987 C.ar      1 RES1    0.0000
    103 C33       -0.5261    6.1598   10.3007 C.ar      1 RES1    0.0000
    104 H23       -0.1392    6.7358    9.6522 H         1 RES1    0.0000
    105 C34       -1.8318    5.7299   10.1400 C.ar      1 RES1    0.0000
    106 H24       -2.3369    5.9896    9.3773 H         1 RES1    0.0000
    107 C35       -2.3844    4.9213   11.1002 C.ar      1 RES1    0.0000
    108 C36       -1.7075    4.5833   12.2636 C.ar      1 RES1    0.0000
    109 H25       -2.1315    4.0825   12.9509 H         1 RES1    0.0000
    110 C37       -0.3918    5.0016   12.3875 C.ar      1 RES1    0.0000
    111 H26        0.1000    4.7655   13.1657 H         1 RES1    0.0000
    112 C38        3.9120    9.7793    9.1852 C.3       1 RES1    0.0000
    113 H27        3.7347   10.7464    9.3037 H         1 RES1    0.0000
    114 H28        3.5135    9.5070    8.3203 H         1 RES1    0.0000
    115 C39        5.4011    9.5761    9.1063 C.ar      1 RES1    0.0000
    116 C40        6.1527   10.3601    8.2293 C.ar      1 RES1    0.0000
    117 H29        5.7113   10.9973    7.6815 H         1 RES1    0.0000
    118 C41        7.5271   10.2262    8.1441 C.ar      1 RES1    0.0000
    119 H30        8.0266   10.7529    7.5324 H         1 RES1    0.0000
    120 C42        8.1576    9.3121    8.9628 C.ar      1 RES1    0.0000
    121 C43        7.4448    8.4937    9.8181 C.ar      1 RES1    0.0000
    122 H31        7.8919    7.8508   10.3568 H         1 RES1    0.0000
    123 C44        6.0704    8.6241    9.8781 C.ar      1 RES1    0.0000
    124 H32        5.5718    8.0559   10.4536 H         1 RES1    0.0000
    125 C45        8.0707   11.4470   14.5309 C.3       1 RES1    0.0000
    126 H33        8.9000   11.8723   14.1975 H         1 RES1    0.0000
    127 H34        7.8780   10.6613   13.9594 H         1 RES1    0.0000
    128 C46        8.2836   10.9866   15.9569 C.ar      1 RES1    0.0000
    129 C47        9.0292   11.7503   16.8381 C.ar      1 RES1    0.0000
    130 H35        9.4781   12.5247   16.5206 H         1 RES1    0.0000
    131 C48        9.1306   11.4038   18.1757 C.ar      1 RES1    0.0000
    132 H36        9.6266   11.9443   18.7797 H         1 RES1    0.0000
    133 C49        8.4987   10.2589   18.6113 C.ar      1 RES1    0.0000
    134 C50        7.7744    9.4535   17.7595 C.ar      1 RES1    0.0000
    135 H37        7.3603    8.6604   18.0751 H         1 RES1    0.0000
    136 C51        7.6655    9.8306   16.4218 C.ar      1 RES1    0.0000
    137 H38        7.1649    9.2910   15.8217 H         1 RES1    0.0000
    138 C52        5.9332   15.3942   16.1187 C.3       1 RES1    0.0000
    139 H39        6.8362   15.5184   16.5051 H         1 RES1    0.0000
    140 H40        5.3191   15.1867   16.8671 H         1 RES1    0.0000
    141 C53        5.4983   16.7056   15.4961 C.ar      1 RES1    0.0000
    142 C54        5.4360   17.8237   16.3309 C.ar      1 RES1    0.0000
    143 H41        5.6129   17.7288   17.2601 H         1 RES1    0.0000
    144 C55        5.1183   19.0648   15.8179 C.ar      1 RES1    0.0000
    145 H42        5.0806   19.8278   16.3831 H         1 RES1    0.0000
    146 C56        4.8544   19.1728   14.4647 C.ar      1 RES1    0.0000
    147 C57        4.8714   18.0875   13.6168 C.ar      1 RES1    0.0000
    148 H43        4.6494   18.1826   12.6973 H         1 RES1    0.0000
    149 C58        5.2226   16.8424   14.1418 C.ar      1 RES1    0.0000
    150 H44        5.2740   16.0857   13.5703 H         1 RES1    0.0000
    151 C59       -0.2784   15.8271   12.8568 C.3       1 RES1    0.0000
    152 H45       -1.1087   16.0988   12.3914 H         1 RES1    0.0000
    153 H46        0.4236   15.7039   12.1707 H         1 RES1    0.0000
    154 C60        0.1417   16.9404   13.7912 C.ar      1 RES1    0.0000
    155 C61       -0.2377   16.9482   15.1248 C.ar      1 RES1    0.0000
    156 H47       -0.7061   16.2035   15.4810 H         1 RES1    0.0000
    157 C62        0.0566   18.0279   15.9476 C.ar      1 RES1    0.0000
    158 H48       -0.2089   18.0364   16.8593 H         1 RES1    0.0000
    159 C63        0.7461   19.0816   15.3978 C.ar      1 RES1    0.0000
    160 C64        1.1734   19.1017   14.0930 C.ar      1 RES1    0.0000
    161 H49        1.6626   19.8409   13.7504 H         1 RES1    0.0000
    162 C65        0.8698   18.0096   13.2819 C.ar      1 RES1    0.0000
    163 H50        1.1621   17.9950   12.3778 H         1 RES1    0.0000
    164 C66       -2.7487   11.8659   14.2312 C.3       1 RES1    0.0000
    165 H51       -3.5648   12.3370   14.5363 H         1 RES1    0.0000
    166 H52       -2.5773   11.1195   14.8596 H         1 RES1    0.0000
    167 C67       -3.0000   11.2956   12.8479 C.ar      1 RES1    0.0000
    168 C68       -2.6356    9.9940   12.5637 C.ar      1 RES1    0.0000
    169 H53       -2.2329    9.4633   13.2393 H         1 RES1    0.0000
    170 C69       -2.8471    9.4502   11.3034 C.ar      1 RES1    0.0000
    171 H54       -2.6014    8.5534   11.1099 H         1 RES1    0.0000
    172 C70       -3.4284   10.2569   10.3433 C.ar      1 RES1    0.0000
    173 C71       -3.7898   11.5631   10.5911 C.ar      1 RES1    0.0000
    174 H55       -4.1822   12.0948    9.9096 H         1 RES1    0.0000
    175 C72       -3.5685   12.0813   11.8513 C.ar      1 RES1    0.0000
    176 H56       -3.8072   12.9807   12.0391 H         1 RES1    0.0000
    177 C73        2.2887    7.4219   14.5630 C.3       1 RES1    0.0000
    178 H57        2.9557    6.7751   14.9080 H         1 RES1    0.0000
    179 H58        1.4988    6.9038   14.2634 H         1 RES1    0.0000
    180 C74        5.1147   10.7156   12.4051 C.3       1 RES1    0.0000
    181 H59        6.0041   10.3252   12.5908 H         1 RES1    0.0000
    182 H60        5.1395   11.0955   11.4912 H         1 RES1    0.0000
    183 C75        2.7831   14.5328   14.3528 C.3       1 RES1    0.0000
    184 H61        2.6633   15.0689   13.5297 H         1 RES1    0.0000
    185 H62        3.0202   15.1540   15.0861 H         1 RES1    0.0000
    186 C76        0.0017   11.2183   16.5643 C.3       1 RES1    0.0000
    187 H63       -0.9365   10.9449   16.4025 H         1 RES1    0.0000
    188 H64        0.0390   11.6410   17.4595 H         1 RES1    0.0000
@<TRIPOS>BOND
     1    1   49 2
     2    2   50 2
     3    3   55 2
     4    4   56 2
     5    5   61 2
     6    6   62 2
     7    7   67 2
     8    8   68 2
     9    9   41 2
    10   10   41 2
    11   11   42 2
    12   12   42 2
    13   13   43 2
    14   14   43 2
    15   15   44 2
    16   16   44 2
    17   17   45 2
    18   18   45 2
    19   19   46 2
    20   20   46 2
    21   21   47 2
    22   22   47 2
    23   23   48 2
    24   24   48 2
    25   25   49 1
    26   26   49 1
    27   27   50 1
    28   28   50 1
    29   29   55 1
    30   30   55 1
    31   31   56 1
    32   32   56 1
    33   33   61 1
    34   34   61 1
    35   35   62 1
    36   36   62 1
    37   37   67 1
    38   38   67 1
    39   39   68 1
    40   40   68 1
    41   41   81 1
    42   42   94 1
    43   43  107 1
    44   44  120 1
    45   45  133 1
    46   46  146 1
    47   47  159 1
    48   48  172 1
    49   51   25 1
    50   52   51 1
    51   53   26 1
    52   54   53 1
    53   57   29 1
    54   58   57 1
    55   59   30 1
    56   60   59 1
    57   63   33 1
    58   64   63 1
    59   65   34 1
    60   66   65 1
    61   69   37 1
    62   70   69 1
    63   71   38 1
    64   72   71 1
    65   73   25 1
    66   74   73 1
    67   75   73 1
    68   76   73 1
    69   77   76 ar
    70   78   77 1
    71   79   77 ar
    72   80   79 1
    73   81   79 ar
    74   82   81 ar
    75   83   82 1
    76   84   76 ar
    77   85   84 1
    78   86   26 1
    79   87   86 1
    80   88   86 1
    81   89   86 1
    82   90   89 ar
    83   91   90 1
    84   92   90 ar
    85   93   92 1
    86   94   92 ar
    87   95   94 ar
    88   96   95 1
    89   97   89 ar
    90   98   97 1
    91   99   29 1
    92  100   99 1
    93  101   99 1
    94  102   99 1
    95  103  102 ar
    96  104  103 1
    97  105  103 ar
    98  106  105 1
    99  107  105 ar
   100  108  107 ar
   101  109  108 1
   102  110  102 ar
   103  111  110 1
   104  112   30 1
   105  113  112 1
   106  114  112 1
   107  115  112 1
   108  116  115 ar
   109  117  116 1
   110  118  116 ar
   111  119  118 1
   112  120  118 ar
   113  121  120 ar
   114  122  121 1
   115  123  115 ar
   116  124  123 1
   117  125   33 1
   118  126  125 1
   119  127  125 1
   120  128  125 1
   121  129  128 ar
   122  130  129 1
   123  131  129 ar
   124  132  131 1
   125  133  131 ar
   126  134  133 ar
   127  135  134 1
   128  136  128 ar
   129  137  136 1
   130  138   34 1
   131  139  138 1
   132  140  138 1
   133  141  138 1
   134  142  141 ar
   135  143  142 1
   136  144  142 ar
   137  145  144 1
   138  146  144 ar
   139  147  146 ar
   140  148  147 1
   141  149  141 ar
   142  150  149 1
   143  151   37 1
   144  152  151 1
   145  153  151 1
   146  154  151 1
   147  155  154 ar
   148  156  155 1
   149  157  155 ar
   150  158  157 1
   151  159  157 ar
   152  160  159 ar
   153  161  160 1
   154  162  154 ar
   155  163  162 1
   156  164   38 1
   157  165  164 1
   158  166  164 1
   159  167  164 1
   160  168  167 ar
   161  169  168 1
   162  170  168 ar
   163  171  170 1
   164  172  170 ar
   165  173  172 ar
   166  174  173 1
   167  175  167 ar
   168  176  175 1
   169  177   28 1
   170  178  177 1
   171  179  177 1
   172  180   32 1
   173  181  180 1
   174  182  180 1
   175  183   36 1
   176  184  183 1
   177  185  183 1
   178  186   27 1
   179  187  186 1
   180  188  186 1
   181   27   51 1
   182   28   53 1
   183   31   57 1
   184   31  177 1
   185   32   59 1
   186   35   63 1
   187   35  180 1
   188   36   65 1
   189   39   69 1
   190   39  183 1
   191   40   71 1
   192   40  186 1
   193   51   53 1
   194   57   59 1
   195   63   65 1
   196   69   71 1
   197   82   84 ar
   198   95   97 ar
   199  108  110 ar
   200  121  123 ar
   201  134  136 ar
   202  147  149 ar
   203  160  162 ar
   204  173  175 ar
@<TRIPOS>SUBSTRUCTURE
     1 RES1 1

@<TRIPOS>CRYSIN
  21.7872   21.8200   19.7435  90.0000 101.3330  90.0000  14 1

