# MOL2 file generated by ConQuest
# Please check atom types

@<TRIPOS>MOLECULE
MEJFAL
    60    63     1
SMALL
NO_CHARGES
****
Generated from CSD

@<TRIPOS>ATOM
      1 O1         1.9157   -2.1633    2.1613 O.2       1 RES1    0.0000
      2 O2        -0.3306    3.5304    1.8323 O.2       1 RES1    0.0000
      3 O3         8.4822    0.5210    6.0122 O.2       1 RES1    0.0000
      4 O4         8.7092   -1.2370    4.7663 O.2       1 RES1    0.0000
      5 O5         8.4873   -0.6635   -1.9535 O.2       1 RES1    0.0000
      6 O6         8.4472   -2.4195   -0.6907 O.2       1 RES1    0.0000
      7 O7         1.7420    3.5838    4.8427 O.3       1 RES1    0.0000
      8 O8         2.3150    3.2597   -0.8910 O.3       1 RES1    0.0000
      9 N1         1.9998   -0.0848    3.1784 N.am      1 RES1    0.0000
     10 N2         1.9828   -0.1938    0.9499 N.am      1 RES1    0.0000
     11 N3         1.0941    2.1657    3.0382 N.am      1 RES1    0.0000
     12 N4         1.1622    2.0821    0.8172 N.am      1 RES1    0.0000
     13 N5         8.0216   -0.3878    5.3241 N.pl3     1 RES1    0.0000
     14 N6         7.8957   -1.4672   -1.2474 N.pl3     1 RES1    0.0000
     15 C1         1.9690   -0.9500    2.1035 C.2       1 RES1    0.0000
     16 C2         0.5545    2.6898    1.8894 C.2       1 RES1    0.0000
     17 C3         2.2164    1.2825    2.7739 C.3       1 RES1    0.0000
     18 H1         3.0545    1.6408    3.1343 H         1 RES1    0.0000
     19 C4         2.2403    1.2044    1.2194 C.3       1 RES1    0.0000
     20 H2         3.1015    1.4931    0.8538 H         1 RES1    0.0000
     21 C5         2.3497   -0.5793    4.5117 C.3       1 RES1    0.0000
     22 H3         1.9028   -0.0372    5.1807 H         1 RES1    0.0000
     23 H4         2.0320   -1.4912    4.6060 H         1 RES1    0.0000
     24 C6         3.8410   -0.5450    4.7618 C.ar      1 RES1    0.0000
     25 C7         4.4129    0.5088    5.4749 C.ar      1 RES1    0.0000
     26 H5         3.8721    1.1834    5.8169 H         1 RES1    0.0000
     27 C8         5.7818    0.5536    5.6765 C.ar      1 RES1    0.0000
     28 H6         6.1681    1.2501    6.1574 H         1 RES1    0.0000
     29 C9         6.5594   -0.4564    5.1502 C.ar      1 RES1    0.0000
     30 C10        6.0270   -1.5093    4.4469 C.ar      1 RES1    0.0000
     31 H7         6.5751   -2.1772    4.1044 H         1 RES1    0.0000
     32 C11        4.6579   -1.5531    4.2582 C.ar      1 RES1    0.0000
     33 H8         4.2792   -2.2629    3.7904 H         1 RES1    0.0000
     34 C12        2.2611   -0.7975   -0.3508 C.3       1 RES1    0.0000
     35 H9         1.8342   -1.6674   -0.3937 H         1 RES1    0.0000
     36 H10        1.8761   -0.2430   -1.0464 H         1 RES1    0.0000
     37 C13        3.7448   -0.9604   -0.6113 C.ar      1 RES1    0.0000
     38 C14        4.4250   -2.0238   -0.0247 C.ar      1 RES1    0.0000
     39 H11        3.9633   -2.6212    0.5182 H         1 RES1    0.0000
     40 C15        5.7803   -2.2029   -0.2384 C.ar      1 RES1    0.0000
     41 H12        6.2301   -2.9223    0.1412 H         1 RES1    0.0000
     42 C16        6.4486   -1.2892   -1.0282 C.ar      1 RES1    0.0000
     43 C17        5.8106   -0.2125   -1.6190 C.ar      1 RES1    0.0000
     44 H13        6.2830    0.3926   -2.1444 H         1 RES1    0.0000
     45 C18        4.4482   -0.0572   -1.4087 C.ar      1 RES1    0.0000
     46 H14        3.9998    0.6555   -1.8039 H         1 RES1    0.0000
     47 C19        0.7787    2.6812    4.3477 C.3       1 RES1    0.0000
     48 H15        0.6975    1.9390    4.9665 H         1 RES1    0.0000
     49 H16       -0.0811    3.1291    4.3103 H         1 RES1    0.0000
     50 C20        1.7512    4.8318    4.1394 C.3       1 RES1    0.0000
     51 H17        2.3842    5.4254    4.5495 H         1 RES1    0.0000
     52 H18        2.0005    4.6812    3.2240 H         1 RES1    0.0000
     53 H19        0.8758    5.2243    4.1725 H         1 RES1    0.0000
     54 C21        1.1014    2.6507   -0.5129 C.3       1 RES1    0.0000
     55 H20        0.3913    3.3110   -0.5448 H         1 RES1    0.0000
     56 H21        0.8854    1.9504   -1.1494 H         1 RES1    0.0000
     57 C22        2.6582    4.3792   -0.0615 C.3       1 RES1    0.0000
     58 H22        3.4187    4.8318   -0.4335 H         1 RES1    0.0000
     59 H23        1.9144    4.9842   -0.0166 H         1 RES1    0.0000
     60 H24        2.8716    4.0695    0.8222 H         1 RES1    0.0000
@<TRIPOS>BOND
     1    1   15 2
     2    2   16 2
     3    3   13 2
     4    4   13 2
     5    5   14 2
     6    6   14 2
     7    7   47 1
     8    8   54 1
     9    9   15 1
    10   10   15 1
    11   11   16 1
    12   12   16 1
    13   13   29 1
    14   14   42 1
    15   17    9 1
    16   18   17 1
    17   19   10 1
    18   20   19 1
    19   21    9 1
    20   22   21 1
    21   23   21 1
    22   24   21 1
    23   25   24 ar
    24   26   25 1
    25   27   25 ar
    26   28   27 1
    27   29   27 ar
    28   30   29 ar
    29   31   30 1
    30   32   24 ar
    31   33   32 1
    32   34   10 1
    33   35   34 1
    34   36   34 1
    35   37   34 1
    36   38   37 ar
    37   39   38 1
    38   40   38 ar
    39   41   40 1
    40   42   40 ar
    41   43   42 ar
    42   44   43 1
    43   45   37 ar
    44   46   45 1
    45   47   11 1
    46   48   47 1
    47   49   47 1
    48   50    7 1
    49   51   50 1
    50   52   50 1
    51   53   50 1
    52   54   12 1
    53   55   54 1
    54   56   54 1
    55   57    8 1
    56   58   57 1
    57   59   57 1
    58   60   57 1
    59   11   17 1
    60   12   19 1
    61   17   19 1
    62   30   32 ar
    63   43   45 ar
@<TRIPOS>SUBSTRUCTURE
     1 RES1 1

@<TRIPOS>CRYSIN
  14.0292    9.5282   16.6321  90.0000  92.9400  90.0000  14 1

