# MOL2 file generated by ConQuest
# Please check atom types

@<TRIPOS>MOLECULE
MEJFEP
   107   114     1
SMALL
NO_CHARGES
****
Generated from CSD

@<TRIPOS>ATOM
      1 O1         0.5162    1.4908    5.8633 O.2       1 RES1    0.0000
      2 O2        -2.8137   -3.4661    7.4629 O.2       1 RES1    0.0000
      3 O3         5.9682   -3.8021    2.9998 O.2       1 RES1    0.0000
      4 O4         6.7597   -1.9898    3.8595 O.2       1 RES1    0.0000
      5 O5         6.7585   -0.1814    9.8679 O.2       1 RES1    0.0000
      6 O6         5.9428   -0.3299   11.8758 O.2       1 RES1    0.0000
      7 O7        -1.1970   -1.4571   10.2751 O.3       1 RES1    0.0000
      8 N1         0.0587   -0.6868    5.2372 N.am      1 RES1    0.0000
      9 N2         0.1715   -0.1918    7.4024 N.am      1 RES1    0.0000
     10 N3        -1.3945   -2.5335    5.8926 N.am      1 RES1    0.0000
     11 N4        -0.9141   -2.2842    8.0563 N.am      1 RES1    0.0000
     12 N5         5.8260   -2.6865    3.4743 N.pl3     1 RES1    0.0000
     13 N6         5.8167   -0.2066   10.6571 N.pl3     1 RES1    0.0000
     14 C1         0.2743    0.3241    6.1390 C.2       1 RES1    0.0000
     15 C2        -1.8114   -2.8330    7.1668 C.2       1 RES1    0.0000
     16 C3        -0.0495   -1.9692    5.8933 C.3       1 RES1    0.0000
     17 H1         0.6248   -2.6200    5.5437 H         1 RES1    0.0000
     18 C4         0.1912   -1.6483    7.3892 C.3       1 RES1    0.0000
     19 H2         1.0688   -2.0073    7.7061 H         1 RES1    0.0000
     20 C5         0.5120   -0.5559    3.8548 C.3       1 RES1    0.0000
     21 H3         0.4956    0.3977    3.5899 H         1 RES1    0.0000
     22 H4        -0.1026   -1.0524    3.2570 H         1 RES1    0.0000
     23 C6         1.9168   -1.0969    3.6994 C.ar      1 RES1    0.0000
     24 C7         2.1356   -2.3662    3.1638 C.ar      1 RES1    0.0000
     25 H5         1.3990   -2.8711    2.8379 H         1 RES1    0.0000
     26 C8         3.4150   -2.8976    3.1029 C.ar      1 RES1    0.0000
     27 H6         3.5662   -3.7640    2.7441 H         1 RES1    0.0000
     28 C9         4.4646   -2.1383    3.5773 C.ar      1 RES1    0.0000
     29 C10        4.2909   -0.8748    4.1144 C.ar      1 RES1    0.0000
     30 H7         5.0334   -0.3751    4.4357 H         1 RES1    0.0000
     31 C11        3.0043   -0.3609    4.1688 C.ar      1 RES1    0.0000
     32 H8         2.8621    0.5055    4.5314 H         1 RES1    0.0000
     33 C12        0.5459    0.6024    8.5624 C.3       1 RES1    0.0000
     34 H9        -0.1121    0.4429    9.2829 H         1 RES1    0.0000
     35 H10        0.5012    1.5611    8.3204 H         1 RES1    0.0000
     36 C13        1.9298    0.2989    9.0921 C.ar      1 RES1    0.0000
     37 C14        3.0345    0.3022    8.2444 C.ar      1 RES1    0.0000
     38 H11        2.9099    0.4345    7.3119 H         1 RES1    0.0000
     39 C15        4.3103    0.1156    8.7444 C.ar      1 RES1    0.0000
     40 H12        5.0654    0.1156    8.1692 H         1 RES1    0.0000
     41 C16        4.4542   -0.0730   10.1082 C.ar      1 RES1    0.0000
     42 C17        3.3850   -0.1194   10.9720 C.ar      1 RES1    0.0000
     43 H13        3.5140   -0.2692   11.9007 H         1 RES1    0.0000
     44 C18        2.1153    0.0588   10.4468 C.ar      1 RES1    0.0000
     45 H14        1.3601    0.0155   11.0224 H         1 RES1    0.0000
     46 C19       -1.8846   -3.3340    4.7840 C.3       1 RES1    0.0000
     47 H15       -1.1534   -3.9177    4.4606 H         1 RES1    0.0000
     48 C20       -0.9315   -2.5870    9.4635 C.3       1 RES1    0.0000
     49 H16       -1.6212   -3.2753    9.6350 H         1 RES1    0.0000
     50 H17       -0.0540   -2.9686    9.7211 H         1 RES1    0.0000
     51 C21       -2.4883   -0.9168   10.0589 C.3       1 RES1    0.0000
     52 H18       -2.6128   -0.1291   10.6282 H         1 RES1    0.0000
     53 H19       -3.1642   -1.5895   10.2799 H         1 RES1    0.0000
     54 H20       -2.5811   -0.6573    9.1183 H         1 RES1    0.0000
     55 O1A       -4.2854    1.4908    3.7047 O.2       1 RES1    0.0000
     56 O2A       -0.9555   -3.4661    2.1052 O.2       1 RES1    0.0000
     57 O3A       -9.7373   -3.8021    6.5683 O.2       1 RES1    0.0000
     58 O4A      -10.5289   -1.9898    5.7085 O.2       1 RES1    0.0000
     59 O5A      -10.5276   -0.1814   -0.2999 O.2       1 RES1    0.0000
     60 O6A       -9.7119   -0.3299   -2.3078 O.2       1 RES1    0.0000
     61 O7A       -2.5722   -1.4571   -0.7071 O.3       1 RES1    0.0000
     62 N1A       -3.8278   -0.6868    4.3309 N.am      1 RES1    0.0000
     63 N2A       -3.9406   -0.1918    2.1656 N.am      1 RES1    0.0000
     64 N3A       -2.3746   -2.5335    3.6755 N.am      1 RES1    0.0000
     65 N4A       -2.8550   -2.2842    1.5117 N.am      1 RES1    0.0000
     66 N5A       -9.5951   -2.6865    6.0937 N.pl3     1 RES1    0.0000
     67 N6A       -9.5858   -0.2066   -1.0890 N.pl3     1 RES1    0.0000
     68 C1A       -4.0434    0.3241    3.4290 C.2       1 RES1    0.0000
     69 C2A       -1.9578   -2.8330    2.4012 C.2       1 RES1    0.0000
     70 C3A       -3.7196   -1.9692    3.6747 C.3       1 RES1    0.0000
     71 H1A       -4.3940   -2.6200    4.0243 H         1 RES1    0.0000
     72 C4A       -3.9604   -1.6483    2.1788 C.3       1 RES1    0.0000
     73 H2A       -4.8379   -2.0073    1.8619 H         1 RES1    0.0000
     74 C5A       -4.2811   -0.5559    5.7133 C.3       1 RES1    0.0000
     75 H3A       -4.2647    0.3977    5.9781 H         1 RES1    0.0000
     76 H4A       -3.6666   -1.0524    6.3111 H         1 RES1    0.0000
     77 C6A       -5.6860   -1.0969    5.8686 C.ar      1 RES1    0.0000
     78 C7A       -5.9048   -2.3662    6.4043 C.ar      1 RES1    0.0000
     79 H5A       -5.1681   -2.8711    6.7301 H         1 RES1    0.0000
     80 C8A       -7.1841   -2.8976    6.4651 C.ar      1 RES1    0.0000
     81 H6A       -7.3353   -3.7640    6.8239 H         1 RES1    0.0000
     82 C9A       -8.2337   -2.1383    5.9907 C.ar      1 RES1    0.0000
     83 C10A      -8.0601   -0.8748    5.4536 C.ar      1 RES1    0.0000
     84 H7A       -8.8026   -0.3751    5.1323 H         1 RES1    0.0000
     85 C11A      -6.7734   -0.3609    5.3992 C.ar      1 RES1    0.0000
     86 H8A       -6.6313    0.5055    5.0366 H         1 RES1    0.0000
     87 C12A      -4.3150    0.6024    1.0056 C.3       1 RES1    0.0000
     88 H9A       -3.6571    0.4429    0.2851 H         1 RES1    0.0000
     89 H10A      -4.2703    1.5611    1.2477 H         1 RES1    0.0000
     90 C13A      -5.6990    0.2989    0.4759 C.ar      1 RES1    0.0000
     91 C14A      -6.8036    0.3022    1.3236 C.ar      1 RES1    0.0000
     92 H11A      -6.6791    0.4345    2.2561 H         1 RES1    0.0000
     93 C15A      -8.0795    0.1156    0.8236 C.ar      1 RES1    0.0000
     94 H12A      -8.8346    0.1156    1.3988 H         1 RES1    0.0000
     95 C16A      -8.2233   -0.0730   -0.5402 C.ar      1 RES1    0.0000
     96 C17A      -7.1541   -0.1194   -1.4040 C.ar      1 RES1    0.0000
     97 H13A      -7.2832   -0.2692   -2.3327 H         1 RES1    0.0000
     98 C18A      -5.8845    0.0588   -0.8787 C.ar      1 RES1    0.0000
     99 H14A      -5.1292    0.0155   -1.4543 H         1 RES1    0.0000
    100 H15A      -2.6158   -3.9177    5.1074 H         1 RES1    0.0000
    101 C20A      -2.8376   -2.5870    0.1045 C.3       1 RES1    0.0000
    102 H16A      -2.1480   -3.2753   -0.0670 H         1 RES1    0.0000
    103 H17A      -3.7151   -2.9686   -0.1531 H         1 RES1    0.0000
    104 C21A      -1.2808   -0.9168   -0.4908 C.3       1 RES1    0.0000
    105 H18A      -1.1563   -0.1291   -1.0601 H         1 RES1    0.0000
    106 H19A      -0.6049   -1.5895   -0.7119 H         1 RES1    0.0000
    107 H20A      -1.1880   -0.6573    0.4497 H         1 RES1    0.0000
@<TRIPOS>BOND
     1    1   14 2
     2    2   15 2
     3    3   12 2
     4    4   12 2
     5    5   13 2
     6    6   13 2
     7    7   48 1
     8    8   14 1
     9    9   14 1
    10   10   15 1
    11   11   15 1
    12   12   28 1
    13   13   41 1
    14   16    8 1
    15   17   16 1
    16   18    9 1
    17   19   18 1
    18   20    8 1
    19   21   20 1
    20   22   20 1
    21   23   20 1
    22   24   23 ar
    23   25   24 1
    24   26   24 ar
    25   27   26 1
    26   28   26 ar
    27   29   28 ar
    28   30   29 1
    29   31   23 ar
    30   32   31 1
    31   33    9 1
    32   34   33 1
    33   35   33 1
    34   36   33 1
    35   37   36 ar
    36   38   37 1
    37   39   37 ar
    38   40   39 1
    39   41   39 ar
    40   42   41 ar
    41   43   42 1
    42   44   36 ar
    43   45   44 1
    44   46   10 1
    45   47   46 1
    46   48   11 1
    47   49   48 1
    48   50   48 1
    49   51    7 1
    50   52   51 1
    51   53   51 1
    52   54   51 1
    53   55   68 2
    54   56   69 2
    55   57   66 2
    56   58   66 2
    57   59   67 2
    58   60   67 2
    59   61  101 1
    60   62   68 1
    61   63   68 1
    62   64   46 1
    63   65   69 1
    64   66   82 1
    65   67   95 1
    66   69   64 1
    67   70   62 1
    68   71   70 1
    69   72   63 1
    70   73   72 1
    71   74   62 1
    72   75   74 1
    73   76   74 1
    74   77   74 1
    75   78   77 ar
    76   79   78 1
    77   80   78 ar
    78   81   80 1
    79   82   80 ar
    80   83   82 ar
    81   84   83 1
    82   85   77 ar
    83   86   85 1
    84   87   63 1
    85   88   87 1
    86   89   87 1
    87   90   87 1
    88   91   90 ar
    89   92   91 1
    90   93   91 ar
    91   94   93 1
    92   95   93 ar
    93   96   95 ar
    94   97   96 1
    95   98   90 ar
    96   99   98 1
    97  100   46 1
    98  101   65 1
    99  102  101 1
   100  103  101 1
   101  104   61 1
   102  105  104 1
   103  106  104 1
   104  107  104 1
   105   10   16 1
   106   11   18 1
   107   16   18 1
   108   29   31 ar
   109   42   44 ar
   110   64   70 1
   111   65   72 1
   112   70   72 1
   113   83   85 ar
   114   96   98 ar
@<TRIPOS>SUBSTRUCTURE
     1 RES1 1

@<TRIPOS>CRYSIN
  33.9210    6.4563   20.5673  90.0000 111.5010  90.0000  15 1

