# MOL2 file generated by ConQuest
# Please check atom types

@<TRIPOS>MOLECULE
MEJGOY
    52    53     1
SMALL
NO_CHARGES
****
Generated from CSD

@<TRIPOS>ATOM
      1 O1         0.2032    2.9236    4.0625 O.3       1 RES1    0.0000
      2 O2        -1.3004    0.4433    1.3038 O.2       1 RES1    0.0000
      3 N1         1.5162    1.1772    4.7938 N.2       1 RES1    0.0000
      4 N2         1.9508   -0.0380    4.2008 N.am      1 RES1    0.0000
      5 C1         2.5231    2.3645    1.4440 C.ar      1 RES1    0.0000
      6 C2         0.8020    1.7405    3.9126 C.2       1 RES1    0.0000
      7 O3         2.8787   -2.0850    4.5178 O.2       1 RES1    0.0000
      8 C3         1.0994    1.8705    1.3904 C.3       1 RES1    0.0000
      9 H1         0.9892    1.3360    0.5878 H         1 RES1    0.0000
     10 H2         0.5110    2.6381    1.3117 H         1 RES1    0.0000
     11 C4         4.8200    2.2117    0.7843 C.ar      1 RES1    0.0000
     12 H3         5.4931    1.7717    0.3157 H         1 RES1    0.0000
     13 C5         0.6462    1.0319    2.6011 C.3       1 RES1    0.0000
     14 C6         3.5348    1.7362    0.7650 C.ar      1 RES1    0.0000
     15 H4         3.3432    0.9678    0.2776 H         1 RES1    0.0000
     16 C7         1.5020   -0.1875    2.8804 C.2       1 RES1    0.0000
     17 O4        -1.3623    0.2221    3.5068 O.3       1 RES1    0.0000
     18 N3         6.4669    3.8795    1.4886 N.pl3     1 RES1    0.0000
     19 C8         5.0970    3.3373    1.4987 C.ar      1 RES1    0.0000
     20 C9        -0.7916    0.5574    2.3695 C.2       1 RES1    0.0000
     21 C10        4.1131    4.0011    2.1867 C.ar      1 RES1    0.0000
     22 H5         4.3140    4.7687    2.6724 H         1 RES1    0.0000
     23 O5         2.7489   -0.5962    6.1853 O.3       1 RES1    0.0000
     24 C11        2.8401    3.5231    2.1516 C.ar      1 RES1    0.0000
     25 H6         2.1697    3.9783    2.6071 H         1 RES1    0.0000
     26 O6         7.2687    3.4235    0.6994 O.2       1 RES1    0.0000
     27 C12        2.5602   -1.0032    4.9530 C.2       1 RES1    0.0000
     28 C13        0.4369    3.5915    5.3231 C.3       1 RES1    0.0000
     29 H7         0.1441    3.0266    6.0552 H         1 RES1    0.0000
     30 H8         1.3850    3.7663    5.4320 H         1 RES1    0.0000
     31 O7         6.7330    4.7805    2.2561 O.2       1 RES1    0.0000
     32 C14       -2.6892   -0.3944    3.3936 C.3       1 RES1    0.0000
     33 H9        -3.3523    0.2795    3.1786 H         1 RES1    0.0000
     34 H10       -2.6877   -1.0590    2.6861 H         1 RES1    0.0000
     35 C15        3.4107   -1.5884    7.0648 C.3       1 RES1    0.0000
     36 H11        2.9400   -2.4338    7.0022 H         1 RES1    0.0000
     37 H12        4.3198   -1.7303    6.7573 H         1 RES1    0.0000
     38 C16       -0.2964    4.8346    5.3367 C.3       1 RES1    0.0000
     39 H13        0.0013    5.3911    4.6155 H         1 RES1    0.0000
     40 H14       -0.1461    5.2855    6.1722 H         1 RES1    0.0000
     41 H15       -1.2339    4.6539    5.2360 H         1 RES1    0.0000
     42 C17        3.4338   -1.2101    8.2813 C.3       1 RES1    0.0000
     43 H16        3.8506   -0.3471    8.3385 H         1 RES1    0.0000
     44 H17        3.9332   -1.8418    8.8038 H         1 RES1    0.0000
     45 H18        2.5367   -1.1552    8.6160 H         1 RES1    0.0000
     46 C18       -2.9944   -0.9923    4.6074 C.3       1 RES1    0.0000
     47 H19       -2.3237   -1.6459    4.8197 H         1 RES1    0.0000
     48 H20       -3.8506   -1.4212    4.5448 H         1 RES1    0.0000
     49 H21       -3.0194   -0.3243    5.2959 H         1 RES1    0.0000
     50 C19        1.7382   -1.1738    2.0452 C.2       1 RES1    0.0000
     51 H22        2.2655   -1.8925    2.3105 H         1 RES1    0.0000
     52 H23        1.3787   -1.1535    1.1865 H         1 RES1    0.0000
@<TRIPOS>BOND
     1    1    6 1
     2    2   20 2
     3    3    4 1
     4    4   16 1
     5    5    8 1
     6    6    3 2
     7    7   27 2
     8    8    9 1
     9   10    8 1
    10   11   12 1
    11   13    6 1
    12   14    5 ar
    13   15   14 1
    14   16   13 1
    15   17   20 1
    16   18   19 1
    17   19   11 ar
    18   20   13 1
    19   21   19 ar
    20   22   21 1
    21   23   27 1
    22   24    5 ar
    23   25   24 1
    24   26   18 2
    25   27    4 1
    26   28    1 1
    27   29   28 1
    28   30   28 1
    29   31   18 2
    30   32   17 1
    31   33   32 1
    32   34   32 1
    33   35   23 1
    34   36   35 1
    35   37   35 1
    36   38   28 1
    37   39   38 1
    38   40   38 1
    39   41   38 1
    40   42   35 1
    41   43   42 1
    42   44   42 1
    43   45   42 1
    44   46   32 1
    45   47   46 1
    46   48   46 1
    47   49   46 1
    48   50   16 2
    49   51   50 1
    50   52   50 1
    51    8   13 1
    52   11   14 ar
    53   21   24 ar
@<TRIPOS>SUBSTRUCTURE
     1 RES1 1

@<TRIPOS>CRYSIN
   9.2020    8.4447   27.2730  90.0000  93.7600  90.0000  14 1

