# MOL2 file generated by ConQuest
# Please check atom types

@<TRIPOS>MOLECULE
MEJJUH
    43    43     1
SMALL
NO_CHARGES
****
Generated from CSD

@<TRIPOS>ATOM
      1 N1        -1.1306    2.6619    1.2738 N.pl3     1 RES1    0.0000
      2 N2        -0.4960    3.8504    3.2583 N.am      1 RES1    0.0000
      3 N3        -1.4049    3.2675    4.1335 N.am      1 RES1    0.0000
      4 O1        -1.1652    7.3574    0.6565 O.3       1 RES1    0.0000
      5 O2        -1.7539    2.6265    0.2271 O.2       1 RES1    0.0000
      6 O3        -0.6764    1.6715    1.8321 O.2       1 RES1    0.0000
      7 O4         1.1543    3.6743    4.8042 O.2       1 RES1    0.0000
      8 O5         1.5850    4.4294    2.7116 O.3       1 RES1    0.0000
      9 O6        -1.9351    5.2646    5.0661 O.2       1 RES1    0.0000
     10 O7        -2.6736    3.3224    5.9251 O.3       1 RES1    0.0000
     11 C1        -0.9760    8.5620    1.2337 C.2       1 RES1    0.0000
     12 H1        -1.0427    9.3753    0.7875 H         1 RES1    0.0000
     13 C2        -0.6800    8.4359    2.5265 C.2       1 RES1    0.0000
     14 H2        -0.5187    9.1249    3.1309 H         1 RES1    0.0000
     15 C3        -0.6599    7.0527    2.7987 C.2       1 RES1    0.0000
     16 H3        -0.4777    6.6548    3.6192 H         1 RES1    0.0000
     17 C4        -0.9547    6.4136    1.6470 C.2       1 RES1    0.0000
     18 C5        -1.1067    5.0688    1.2187 C.2       1 RES1    0.0000
     19 C6        -0.9145    3.9521    1.9312 C.2       1 RES1    0.0000
     20 C7         0.8115    3.9562    3.6762 C.2       1 RES1    0.0000
     21 C8         2.9900    4.7146    3.0669 C.3       1 RES1    0.0000
     22 C9         3.7224    4.7412    1.7581 C.3       1 RES1    0.0000
     23 H4         3.5261    3.9406    1.2658 H         1 RES1    0.0000
     24 H5         4.6670    4.7931    1.9212 H         1 RES1    0.0000
     25 H6         3.4426    5.5064    1.2498 H         1 RES1    0.0000
     26 C10        3.0568    5.9893    3.8323 C.3       1 RES1    0.0000
     27 H7         2.7197    6.7060    3.2900 H         1 RES1    0.0000
     28 H8         3.9685    6.1708    4.0715 H         1 RES1    0.0000
     29 H9         2.5255    5.9118    4.6278 H         1 RES1    0.0000
     30 C11       -1.9936    4.0739    5.0601 C.2       1 RES1    0.0000
     31 C12       -3.3996    4.0178    6.9702 C.3       1 RES1    0.0000
     32 C13       -2.6055    4.0396    8.1629 C.3       1 RES1    0.0000
     33 H10       -2.6230    3.1727    8.5752 H         1 RES1    0.0000
     34 H11       -2.9606    4.6907    8.7733 H         1 RES1    0.0000
     35 H12       -1.7005    4.2696    7.9408 H         1 RES1    0.0000
     36 C14       -4.6970    3.2407    7.1333 C.3       1 RES1    0.0000
     37 H13       -5.0663    3.0488    6.2678 H         1 RES1    0.0000
     38 H14       -5.3228    3.7632    7.6386 H         1 RES1    0.0000
     39 H15       -4.5212    2.4175    7.5946 H         1 RES1    0.0000
     40 H16       -1.3718    4.9265    0.3002 H         1 RES1    0.0000
     41 H17       -1.2827    2.4574    4.2926 H         1 RES1    0.0000
     42 H18        3.3036    3.9688    3.6122 H         1 RES1    0.0000
     43 H19       -4.0795    4.8020    6.7441 H         1 RES1    0.0000
@<TRIPOS>BOND
     1    1    5 2
     2    2    3 1
     3    3   30 1
     4    4   11 1
     5    6    1 2
     6    7   20 2
     7    8   20 1
     8    9   30 2
     9   10   30 1
    10   11   12 1
    11   13   11 2
    12   14   13 1
    13   15   13 1
    14   16   15 1
    15   17    4 1
    16   18   17 1
    17   19    1 1
    18   20    2 1
    19   21    8 1
    20   22   21 1
    21   23   22 1
    22   24   22 1
    23   25   22 1
    24   26   21 1
    25   27   26 1
    26   28   26 1
    27   29   26 1
    28   31   10 1
    29   32   31 1
    30   33   32 1
    31   34   32 1
    32   35   32 1
    33   36   31 1
    34   37   36 1
    35   38   36 1
    36   39   36 1
    37   40   18 1
    38   41    3 1
    39   42   21 1
    40   43   31 1
    41    2   19 1
    42   15   17 2
    43   18   19 2
@<TRIPOS>SUBSTRUCTURE
     1 RES1 1

@<TRIPOS>CRYSIN
   8.6000   10.0870   10.8430  67.3420  89.5630  89.4660   2 1

