# MOL2 file generated by ConQuest
# Please check atom types

@<TRIPOS>MOLECULE
MEJKOD
    40    42     1
SMALL
NO_CHARGES
****
Generated from CSD

@<TRIPOS>ATOM
      1 O1         2.6451    4.6968    6.3764 O.3       1 RES1    0.0000
      2 O2         2.8030    3.5163    3.6191 O.3       1 RES1    0.0000
      3 O3         4.7427    2.9010    2.6496 O.2       1 RES1    0.0000
      4 O4        -0.2750    6.3349    1.2113 O.2       1 RES1    0.0000
      5 O5        -0.1573    6.5200   -0.9435 O.2       1 RES1    0.0000
      6 O6         3.6693    4.7039   -3.2702 O.2       1 RES1    0.0000
      7 O7         5.2488    3.7641   -2.1176 O.2       1 RES1    0.0000
      8 N1         0.2660    6.1077    0.1369 N.pl3     1 RES1    0.0000
      9 N2         4.1369    4.2747   -2.2211 N.pl3     1 RES1    0.0000
     10 C1         2.3335    3.3311    5.9598 C.3       1 RES1    0.0000
     11 C2         2.9849    3.5815    7.2427 C.3       1 RES1    0.0000
     12 H1         3.9983    3.4078    7.3116 H         1 RES1    0.0000
     13 C3         2.2459    3.4398    8.5423 C.3       1 RES1    0.0000
     14 H2         2.8336    3.7961    9.2951 H         1 RES1    0.0000
     15 H3         1.4348    4.0097    8.5307 H         1 RES1    0.0000
     16 C4         1.8262    1.9835    8.7750 C.3       1 RES1    0.0000
     17 H4         2.5514    1.3495    8.4790 H         1 RES1    0.0000
     18 H5         1.6990    1.8544    9.7110 H         1 RES1    0.0000
     19 C5         0.5271    1.6126    8.0601 C.3       1 RES1    0.0000
     20 H6        -0.2882    2.2330    8.3395 H         1 RES1    0.0000
     21 H7         0.3302    0.8155    8.3757 H         1 RES1    0.0000
     22 C6         0.5409    1.6194    6.5273 C.3       1 RES1    0.0000
     23 H8        -0.4142    1.3689    6.1339 H         1 RES1    0.0000
     24 H9         1.2367    1.0000    6.2140 H         1 RES1    0.0000
     25 C7         0.8687    2.9796    5.8929 C.3       1 RES1    0.0000
     26 H10        0.5703    2.9514    4.9200 H         1 RES1    0.0000
     27 H11        0.4082    3.7184    6.2811 H         1 RES1    0.0000
     28 C8         3.2160    2.8612    4.8596 C.3       1 RES1    0.0000
     29 H12        4.1544    3.1262    5.0053 H         1 RES1    0.0000
     30 H13        3.1878    1.9223    4.7083 H         1 RES1    0.0000
     31 C9         3.6561    3.4087    2.6021 C.2       1 RES1    0.0000
     32 C10        3.1008    4.0301    1.3541 C.ar      1 RES1    0.0000
     33 C11        1.9187    4.7534    1.3386 C.ar      1 RES1    0.0000
     34 H14        1.4288    4.8738    2.1488 H         1 RES1    0.0000
     35 C12        1.4906    5.3029    0.1428 C.ar      1 RES1    0.0000
     36 C13        2.1732    5.1349   -1.0491 C.ar      1 RES1    0.0000
     37 H15        1.8250    5.4660   -1.8156 H         1 RES1    0.0000
     38 C14        3.3463    4.4145   -0.9938 C.ar      1 RES1    0.0000
     39 C15        3.8260    3.8631    0.1810 C.ar      1 RES1    0.0000
     40 H16        4.6526    3.3883    0.2195 H         1 RES1    0.0000
@<TRIPOS>BOND
     1    1   10 1
     2    2   28 1
     3    3   31 2
     4    4    8 2
     5    5    8 2
     6    6    9 2
     7    7    9 2
     8    8   35 1
     9    9   38 1
    10   10   11 1
    11   11    1 1
    12   12   11 1
    13   13   11 1
    14   14   13 1
    15   15   13 1
    16   16   13 1
    17   17   16 1
    18   18   16 1
    19   19   16 1
    20   20   19 1
    21   21   19 1
    22   22   19 1
    23   23   22 1
    24   24   22 1
    25   25   10 1
    26   26   25 1
    27   27   25 1
    28   28   10 1
    29   29   28 1
    30   30   28 1
    31   31    2 1
    32   32   31 1
    33   33   32 ar
    34   34   33 1
    35   35   33 ar
    36   36   35 ar
    37   37   36 1
    38   38   36 ar
    39   39   32 ar
    40   40   39 1
    41   22   25 1
    42   38   39 ar
@<TRIPOS>SUBSTRUCTURE
     1 RES1 1

@<TRIPOS>CRYSIN
   6.0034    9.7087   25.8270  90.0000  90.0000  90.0000  19 1

