# MOL2 file generated by ConQuest
# Please check atom types

@<TRIPOS>MOLECULE
MEJLAQ
    80    84     2
SMALL
NO_CHARGES
****
Generated from CSD

@<TRIPOS>ATOM
      1 O1         0.2017    3.3084    4.9546 O.2       1 RES1    0.0000
      2 O2        -4.7603    0.9623    1.9723 O.3       1 RES1    0.0000
      3 O3         0.8346   -1.6881    1.4012 O.2       1 RES1    0.0000
      4 O4        -1.1108   -1.8305    0.4475 O.2       1 RES1    0.0000
      5 O5         1.7590    1.8886    4.4465 O.2       1 RES1    0.0000
      6 N1        -0.3191   -1.3113    1.2416 N.pl3     1 RES1    0.0000
      7 O6        -7.4161   -0.7330    1.5107 O.3       1 RES1    0.0000
      8 N2         0.6073    2.2973    4.3938 N.pl3     1 RES1    0.0000
      9 C1        -1.6691    1.9421    3.5605 C.ar      1 RES1    0.0000
     10 C2        -3.9751    1.7550    2.6985 C.2       1 RES1    0.0000
     11 O7        -4.3121    2.7620    3.2497 O.2       1 RES1    0.0000
     12 C3         0.1092    0.4616    2.8421 C.ar      1 RES1    0.0000
     13 C4        -2.1359    0.1763    1.9734 C.ar      1 RES1    0.0000
     14 C5        -2.5684    1.2522    2.7448 C.ar      1 RES1    0.0000
     15 C6        -0.3511    1.5360    3.5881 C.ar      1 RES1    0.0000
     16 C7        -0.7995   -0.1784    2.0381 C.ar      1 RES1    0.0000
     17 C8        -6.1543    1.3977    1.7714 C.3       1 RES1    0.0000
     18 C9        -7.0824    0.3927    2.3761 C.3       1 RES1    0.0000
     19 C10       -8.4383    0.2730    1.7924 C.3       1 RES1    0.0000
     20 C11       -9.2443   -0.3758    4.1342 C.3       1 RES1    0.0000
     21 C12       -6.8121   -0.0139    3.8096 C.3       1 RES1    0.0000
     22 C13       -9.5830   -0.2344    2.6644 C.3       1 RES1    0.0000
     23 C14       -8.8967    1.0733    0.6198 C.3       1 RES1    0.0000
     24 C15       -7.8855   -0.9320    4.3713 C.3       1 RES1    0.0000
     25 H1        -7.8068   -1.9118    3.9004 H         1 RES1    0.0000
     26 H2        -7.7289   -1.0605    5.4432 H         1 RES1    0.0000
     27 O8        -0.9278    4.2764    7.9493 O.3       2 RES2    0.0000
     28 O9         4.3871    2.1667   10.2068 O.2       2 RES2    0.0000
     29 O10        4.4637    7.2759    6.7356 O.2       2 RES2    0.0000
     30 N3         4.7651    6.2020    7.2763 N.pl3     2 RES2    0.0000
     31 O11       -0.3088    5.9306    6.5604 O.2       2 RES2    0.0000
     32 N4         3.2468    2.6196   10.1896 N.pl3     2 RES2    0.0000
     33 O12       -3.2008    2.2654    8.3469 O.3       2 RES2    0.0000
     34 O13        2.3488    2.2449   10.9385 O.2       2 RES2    0.0000
     35 O14        5.9014    5.7718    7.3872 O.2       2 RES2    0.0000
     36 C16        2.3743    5.6324    7.3981 C.ar      2 RES2    0.0000
     37 C17        3.6595    5.3831    7.8200 C.ar      2 RES2    0.0000
     38 C18        3.9763    4.4018    8.7114 C.ar      2 RES2    0.0000
     39 C19        1.6201    3.8780    8.8467 C.ar      2 RES2    0.0000
     40 C20       -0.0535    5.0994    7.3872 C.2       2 RES2    0.0000
     41 C21       -2.2981    4.3802    7.4302 C.3       2 RES2    0.0000
     42 C22        2.9295    3.6667    9.2165 C.ar      2 RES2    0.0000
     43 C23        1.3329    4.8542    7.9148 C.ar      2 RES2    0.0000
     44 C24       -3.1855    3.7094    8.4322 C.3       2 RES2    0.0000
     45 C25       -5.1142    2.9018   10.4076 C.3       2 RES2    0.0000
     46 C26       -3.0730    4.2563    9.8305 C.3       2 RES2    0.0000
     47 C27       -5.5306    2.8057    8.9705 C.3       2 RES2    0.0000
     48 C28       -4.4104    2.9799    7.9883 C.3       2 RES2    0.0000
     49 C29       -4.3649    4.1921   10.6445 C.3       2 RES2    0.0000
     50 C30       -4.8150    2.9296    6.5528 C.3       2 RES2    0.0000
     51 H3        -2.2369    3.9479    6.6076 H         2 RES2    0.0000
     52 H4         1.0820    0.1696    2.9164 H         1 RES1    0.0000
     53 H5         4.8845    4.2923    9.0720 H         2 RES2    0.0000
     54 H6        -5.8649    2.9918   11.0089 H         2 RES2    0.0000
     55 H7        -6.2756    2.2927    2.1461 H         1 RES1    0.0000
     56 H8         0.8609    3.3105    9.2680 H         2 RES2    0.0000
     57 H9        -9.6296    0.8019    0.0601 H         1 RES1    0.0000
     58 H10       -2.5199    5.3101    7.3333 H         2 RES2    0.0000
     59 H11       -4.9680    4.8166   10.4523 H         2 RES2    0.0000
     60 H12       -2.0046    2.6885    4.0808 H         1 RES1    0.0000
     61 H13       -6.1975    3.5264    8.7626 H         2 RES2    0.0000
     62 H14       -8.2540    1.2594   -0.1158 H         1 RES1    0.0000
     63 H15       -2.2873    3.7423   10.2898 H         2 RES2    0.0000
     64 H16       -4.5599    2.1436   10.6126 H         2 RES2    0.0000
     65 H17       -9.9081   -1.0846    2.2663 H         1 RES1    0.0000
     66 H18       -9.1806    0.5603    4.5549 H         1 RES1    0.0000
     67 H19       -6.2482    1.4805    0.7792 H         1 RES1    0.0000
     68 H20       -2.6996   -0.2776    1.3580 H         1 RES1    0.0000
     69 H21       -6.7527    0.9047    4.3190 H         1 RES1    0.0000
     70 H22       -2.7373    5.1868    9.8423 H         2 RES2    0.0000
     71 H23       -5.8935   -0.5192    3.8670 H         1 RES1    0.0000
     72 H24       -5.9976    1.9328    8.8316 H         2 RES2    0.0000
     73 H25        2.1173    6.3691    6.7389 H         2 RES2    0.0000
     74 H26      -10.0665   -0.9150    4.5950 H         1 RES1    0.0000
     75 H27       -5.3773    2.3029    6.4295 H         2 RES2    0.0000
     76 H28       -4.1733    4.2101   11.7458 H         2 RES2    0.0000
     77 H29      -10.3420    0.4678    2.5691 H         1 RES1    0.0000
     78 H30       -4.0469    2.8633    6.0399 H         2 RES2    0.0000
     79 H31       -9.1867    2.0202    0.9484 H         1 RES1    0.0000
     80 H32       -5.3476    3.8245    6.3003 H         2 RES2    0.0000
@<TRIPOS>BOND
     1    1    8 2
     2    2   10 1
     3    3    6 2
     4    4    6 2
     5    5    8 2
     6    6   16 1
     7    7   18 1
     8    8   15 1
     9    9   14 ar
    10   10   11 2
    11   12   15 ar
    12   13   14 ar
    13   14   10 1
    14   15    9 ar
    15   16   12 ar
    16   17    2 1
    17   18   17 1
    18   19    7 1
    19   20   22 1
    20   21   18 1
    21   22   19 1
    22   23   19 1
    23   24   20 1
    24   25   24 1
    25   26   24 1
    26   27   40 1
    27   28   32 2
    28   29   30 2
    29   30   35 2
    30   31   40 2
    31   32   34 2
    32   33   44 1
    33   36   37 ar
    34   37   30 1
    35   38   37 ar
    36   39   42 ar
    37   40   43 1
    38   41   27 1
    39   42   32 1
    40   43   36 ar
    41   44   41 1
    42   45   47 1
    43   46   44 1
    44   47   48 1
    45   48   33 1
    46   49   45 1
    47   50   48 1
    48   51   41 1
    49   52   12 1
    50   53   38 1
    51   54   45 1
    52   55   17 1
    53   56   39 1
    54   57   23 1
    55   58   41 1
    56   59   49 1
    57   60    9 1
    58   61   47 1
    59   62   23 1
    60   63   46 1
    61   64   45 1
    62   65   22 1
    63   66   20 1
    64   67   17 1
    65   68   13 1
    66   69   21 1
    67   70   46 1
    68   71   21 1
    69   72   47 1
    70   73   36 1
    71   74   20 1
    72   75   50 1
    73   76   49 1
    74   77   22 1
    75   78   50 1
    76   79   23 1
    77   80   50 1
    78   13   16 ar
    79   18   19 1
    80   21   24 1
    81   38   42 ar
    82   39   43 ar
    83   44   48 1
    84   46   49 1
@<TRIPOS>SUBSTRUCTURE
     1 RES1 1
     2 RES2 27

@<TRIPOS>CRYSIN
  13.4864    5.1405   22.8447  90.0000 102.9610  90.0000   4 1

