# MOL2 file generated by ConQuest
# Please check atom types

@<TRIPOS>MOLECULE
MEJLOF
    40    42     1
SMALL
NO_CHARGES
****
Generated from CSD

@<TRIPOS>ATOM
      1 O1         1.8997    4.4422    4.9599 O.3       1 RES1    0.0000
      2 C1         2.9639    3.8843    4.3687 C.2       1 RES1    0.0000
      3 O2         3.5546    4.3858    3.4461 O.2       1 RES1    0.0000
      4 C2         3.3447    2.5963    5.0046 C.ar      1 RES1    0.0000
      5 C3         2.7707    2.1400    6.1843 C.ar      1 RES1    0.0000
      6 H1         2.1727    2.6675    6.6023 H         1 RES1    0.0000
      7 C4         3.1402    0.9267    6.7112 C.ar      1 RES1    0.0000
      8 H2         2.7484    0.6401    7.5651 H         1 RES1    0.0000
      9 C5         4.0846    0.1746    6.0510 C.ar      1 RES1    0.0000
     10 C6         4.6781    0.5979    4.8903 C.ar      1 RES1    0.0000
     11 H3         5.4050    0.0352    4.5391 H         1 RES1    0.0000
     12 C7         4.3143    1.8129    4.3761 C.ar      1 RES1    0.0000
     13 H4         4.6197    2.1452    3.5762 H         1 RES1    0.0000
     14 N1         4.4796   -1.1366    6.6160 N.pl3     1 RES1    0.0000
     15 O3         3.8827   -1.5683    7.5640 O.2       1 RES1    0.0000
     16 O4         5.3903   -1.7241    6.0616 O.2       1 RES1    0.0000
     17 C8         0.3310    6.1562    5.4522 C.3       1 RES1    0.0000
     18 H5         0.6077    6.1808    6.3917 H         1 RES1    0.0000
     19 C9         1.4735    5.7684    4.4883 C.3       1 RES1    0.0000
     20 C10        0.9382    5.7254    3.0557 C.3       1 RES1    0.0000
     21 H6         1.4964    6.2810    2.4896 H         1 RES1    0.0000
     22 H7         0.9879    4.8163    2.7224 H         1 RES1    0.0000
     23 C11       -0.4727    6.2036    2.9752 C.3       1 RES1    0.0000
     24 H8        -0.7793    6.2810    2.0473 H         1 RES1    0.0000
     25 C12       -0.5728    7.5049    3.7074 C.2       1 RES1    0.0000
     26 H9        -0.8892    8.2821    3.3043 H         1 RES1    0.0000
     27 C13       -0.1852    7.4697    4.9496 C.2       1 RES1    0.0000
     28 H10       -0.2264    8.2205    5.4976 H         1 RES1    0.0000
     29 C14       -0.8660    5.1205    5.1665 C.3       1 RES1    0.0000
     30 H11       -0.5627    4.2184    5.3580 H         1 RES1    0.0000
     31 H12       -1.6094    5.3174    5.7590 H         1 RES1    0.0000
     32 C15       -1.3213    5.1926    3.7794 C.3       1 RES1    0.0000
     33 H13       -2.2523    5.4633    3.7571 H         1 RES1    0.0000
     34 H14       -1.2530    4.3151    3.3699 H         1 RES1    0.0000
     35 C16        2.6498    6.7399    4.6755 C.2       1 RES1    0.0000
     36 O5         2.8505    7.6199    3.8704 O.2       1 RES1    0.0000
     37 C17        3.4829    6.6169    5.9198 C.3       1 RES1    0.0000
     38 H15        4.4014    6.4779    5.6775 H         1 RES1    0.0000
     39 H16        3.1735    5.8731    6.4404 H         1 RES1    0.0000
     40 H17        3.4081    7.4240    6.4361 H         1 RES1    0.0000
@<TRIPOS>BOND
     1    1    2 1
     2    2    3 2
     3    4    2 1
     4    5    4 ar
     5    6    5 1
     6    7    5 ar
     7    8    7 1
     8    9    7 ar
     9   10    9 ar
    10   11   10 1
    11   12    4 ar
    12   13   12 1
    13   14    9 1
    14   15   14 2
    15   16   14 2
    16   17   18 1
    17   19    1 1
    18   20   19 1
    19   21   20 1
    20   22   20 1
    21   23   20 1
    22   24   23 1
    23   25   23 1
    24   26   25 1
    25   27   17 1
    26   28   27 1
    27   29   17 1
    28   30   29 1
    29   31   29 1
    30   32   23 1
    31   33   32 1
    32   34   32 1
    33   35   19 1
    34   36   35 2
    35   37   35 1
    36   38   37 1
    37   39   37 1
    38   40   37 1
    39   10   12 ar
    40   17   19 1
    41   25   27 2
    42   29   32 1
@<TRIPOS>SUBSTRUCTURE
     1 RES1 1

@<TRIPOS>CRYSIN
   8.3876   17.5840   11.1855  90.0000 108.9300  90.0000  14 1

