# MOL2 file generated by ConQuest
# Please check atom types

@<TRIPOS>MOLECULE
MEJLUL
    40    42     1
SMALL
NO_CHARGES
****
Generated from CSD

@<TRIPOS>ATOM
      1 O1        -0.2619   15.6774    5.3747 O.3       1 RES1    0.0000
      2 C1        -0.8320   17.8298    6.1167 C.ar      1 RES1    0.0000
      3 N1        -3.6107   20.9271    6.6828 N.pl3     1 RES1    0.0000
      4 C2        -1.3387   20.0600    6.8162 C.ar      1 RES1    0.0000
      5 H1        -1.0696   20.8834    7.1565 H         1 RES1    0.0000
      6 C3         0.6515   14.5454    5.2923 C.3       1 RES1    0.0000
      7 O2         1.3434   16.9055    6.3352 O.2       1 RES1    0.0000
      8 C4        -2.6393   19.8481    6.4696 C.ar      1 RES1    0.0000
      9 C5        -3.0701   18.6607    5.9403 C.ar      1 RES1    0.0000
     10 H2        -3.9635   18.5399    5.7092 H         1 RES1    0.0000
     11 O3        -4.7976   20.6570    6.6933 O.2       1 RES1    0.0000
     12 O4        -3.1822   22.0556    6.8403 O.2       1 RES1    0.0000
     13 C6         0.1985   16.7866    5.9728 C.2       1 RES1    0.0000
     14 C7        -2.1562   17.6502    5.7575 C.ar      1 RES1    0.0000
     15 H3        -2.4294   16.8411    5.3910 H         1 RES1    0.0000
     16 C8        -0.4353   19.0465    6.6576 C.ar      1 RES1    0.0000
     17 H4         0.4496   19.1721    6.9128 H         1 RES1    0.0000
     18 C9        -0.1264   13.4735    4.5088 C.3       1 RES1    0.0000
     19 H5        -0.3428   13.7885    3.6055 H         1 RES1    0.0000
     20 C10        0.9119   13.9777    6.7028 C.3       1 RES1    0.0000
     21 H6         1.8675   13.8883    6.8466 H         1 RES1    0.0000
     22 H7         0.5615   14.5870    7.3697 H         1 RES1    0.0000
     23 C11        1.8637   14.9821    4.4825 C.2       1 RES1    0.0000
     24 C12        0.7376   12.2069    4.4531 C.3       1 RES1    0.0000
     25 H8         0.2874   11.5324    3.9227 H         1 RES1    0.0000
     26 H9         1.5837   12.4119    4.0235 H         1 RES1    0.0000
     27 C13        1.6592   15.8949    3.3167 C.3       1 RES1    0.0000
     28 H10        1.6962   16.8057    3.6129 H         1 RES1    0.0000
     29 H11        0.8017   15.7203    2.9208 H         1 RES1    0.0000
     30 H12        2.3486   15.7411    2.6656 H         1 RES1    0.0000
     31 C14        0.2363   12.5991    6.8582 C.3       1 RES1    0.0000
     32 H13        0.3131   12.2643    7.7761 H         1 RES1    0.0000
     33 C15       -1.3627   13.1516    5.2692 C.2       1 RES1    0.0000
     34 H14       -2.2148   13.2790    4.9184 H         1 RES1    0.0000
     35 C16       -1.1656   12.6885    6.4391 C.2       1 RES1    0.0000
     36 H15       -1.8656   12.4244    6.9916 H         1 RES1    0.0000
     37 C17        0.9962   11.6654    5.8436 C.3       1 RES1    0.0000
     38 H16        1.9479   11.6675    6.0327 H         1 RES1    0.0000
     39 H17        0.6701   10.7547    5.9151 H         1 RES1    0.0000
     40 O5         2.9457   14.5267    4.7503 O.2       1 RES1    0.0000
@<TRIPOS>BOND
     1    1    6 1
     2    2   13 1
     3    3    8 1
     4    4    5 1
     5    6   18 1
     6    7   13 2
     7    8    4 ar
     8    9    8 ar
     9   10    9 1
    10   11    3 2
    11   12    3 2
    12   13    1 1
    13   14    2 ar
    14   15   14 1
    15   16    2 ar
    16   17   16 1
    17   18   19 1
    18   20    6 1
    19   21   20 1
    20   22   20 1
    21   23    6 1
    22   24   18 1
    23   25   24 1
    24   26   24 1
    25   27   23 1
    26   28   27 1
    27   29   27 1
    28   30   27 1
    29   31   20 1
    30   32   31 1
    31   33   18 1
    32   34   33 1
    33   35   31 1
    34   36   35 1
    35   37   24 1
    36   38   37 1
    37   39   37 1
    38   40   23 2
    39    4   16 ar
    40    9   14 ar
    41   31   37 1
    42   33   35 2
@<TRIPOS>SUBSTRUCTURE
     1 RES1 1

@<TRIPOS>CRYSIN
   7.2332   20.7940   10.7106  90.0000 101.3100  90.0000 231 1

