# MOL2 file generated by ConQuest
# Please check atom types

@<TRIPOS>MOLECULE
MEJNAS
    44    46     1
SMALL
NO_CHARGES
****
Generated from CSD

@<TRIPOS>ATOM
      1 O1         2.0401    3.2309    2.0617 O.3       1 RES1    0.0000
      2 O2        -0.5003    9.6697    3.6439 O.2       1 RES1    0.0000
      3 O3        -1.5542   10.0895    1.8336 O.2       1 RES1    0.0000
      4 O4         4.0475    7.3858    0.7881 O.3       1 RES1    0.0000
      5 O5         3.3673    8.4084    2.6568 O.2       1 RES1    0.0000
      6 N1         1.8151    4.4155    1.3089 N.2       1 RES1    0.0000
      7 N2        -0.6427    9.5833    2.4451 N.pl3     1 RES1    0.0000
      8 C1         2.4656    3.6098    3.3059 C.ar      1 RES1    0.0000
      9 C2         2.7797    2.7578    4.3561 C.ar      1 RES1    0.0000
     10 H1         2.7144    1.8132    4.2787 H         1 RES1    0.0000
     11 C3         3.1916    3.3731    5.5165 C.ar      1 RES1    0.0000
     12 H2         3.4148    2.8341    6.2664 H         1 RES1    0.0000
     13 C4         3.2933    4.7682    5.6314 C.ar      1 RES1    0.0000
     14 H3         3.5909    5.1493    6.4491 H         1 RES1    0.0000
     15 C5         2.9665    5.5991    4.5726 C.ar      1 RES1    0.0000
     16 H4         3.0291    6.5443    4.6483 H         1 RES1    0.0000
     17 C6         2.5382    4.9889    3.3814 C.ar      1 RES1    0.0000
     18 C7         2.1080    5.4214    2.0784 C.2       1 RES1    0.0000
     19 C8         1.8895    6.8233    1.5788 C.3       1 RES1    0.0000
     20 H5         1.6626    6.7873    0.6058 H         1 RES1    0.0000
     21 C9         0.7077    7.4895    2.3456 C.3       1 RES1    0.0000
     22 H6         1.0173    7.6922    3.2749 H         1 RES1    0.0000
     23 C10        0.3781    8.8103    1.6612 C.3       1 RES1    0.0000
     24 H7         1.2035    9.3505    1.5729 H         1 RES1    0.0000
     25 H8         0.0295    8.6318    0.7518 H         1 RES1    0.0000
     26 C11        3.1677    7.6408    1.7565 C.2       1 RES1    0.0000
     27 C12        5.2853    8.1493    0.8693 C.3       1 RES1    0.0000
     28 H9         5.8797    7.8877    0.1344 H         1 RES1    0.0000
     29 H10        5.7253    7.9682    1.7262 H         1 RES1    0.0000
     30 H11        5.0842    9.1059    0.8022 H         1 RES1    0.0000
     31 C13       -0.4828    6.5561    2.4419 C.ar      1 RES1    0.0000
     32 C14       -0.7239    5.8618    3.6243 C.ar      1 RES1    0.0000
     33 H12       -0.1663    6.0076    4.3795 H         1 RES1    0.0000
     34 C15       -1.7747    4.9572    3.7054 C.ar      1 RES1    0.0000
     35 H13       -1.9111    4.4763    4.5129 H         1 RES1    0.0000
     36 C16       -2.6327    4.7384    2.6330 C.ar      1 RES1    0.0000
     37 C17       -2.3828    5.4372    1.4537 C.ar      1 RES1    0.0000
     38 H14       -2.9471    5.2991    0.7024 H         1 RES1    0.0000
     39 C18       -1.3236    6.3319    1.3562 C.ar      1 RES1    0.0000
     40 H15       -1.1723    6.7949    0.5407 H         1 RES1    0.0000
     41 C19       -3.7999    3.7932    2.7444 C.3       1 RES1    0.0000
     42 H16       -4.1075    3.7627    3.6739 H         1 RES1    0.0000
     43 H17       -3.5218    2.8967    2.4622 H         1 RES1    0.0000
     44 H18       -4.5291    4.1047    2.1682 H         1 RES1    0.0000
@<TRIPOS>BOND
     1    1    6 1
     2    2    7 2
     3    3    7 2
     4    4   26 1
     5    5   26 2
     6    6   18 2
     7    7   23 1
     8    8    1 1
     9    9    8 ar
    10   10    9 1
    11   11    9 ar
    12   12   11 1
    13   13   11 ar
    14   14   13 1
    15   15   13 ar
    16   16   15 1
    17   17    8 ar
    18   18   17 1
    19   19   18 1
    20   20   19 1
    21   21   19 1
    22   22   21 1
    23   23   21 1
    24   24   23 1
    25   25   23 1
    26   26   19 1
    27   27    4 1
    28   28   27 1
    29   29   27 1
    30   30   27 1
    31   31   21 1
    32   32   31 ar
    33   33   32 1
    34   34   32 ar
    35   35   34 1
    36   36   34 ar
    37   37   36 ar
    38   38   37 1
    39   39   31 ar
    40   40   39 1
    41   41   36 1
    42   42   41 1
    43   43   41 1
    44   44   41 1
    45   15   17 ar
    46   37   39 ar
@<TRIPOS>SUBSTRUCTURE
     1 RES1 1

@<TRIPOS>CRYSIN
   9.7751    8.4651   10.5178  90.0000  93.3355  90.0000   4 1

