# MOL2 file generated by ConQuest
# Please check atom types

@<TRIPOS>MOLECULE
MEKRAV
    68    70     2
SMALL
NO_CHARGES
****
Generated from CSD

@<TRIPOS>ATOM
      1 O1         7.6542   -2.5153   -1.1238 O.2       1 RES1    0.0000
      2 O2         6.1866   -0.9636   -0.9352 O.2       1 RES1    0.0000
      3 O3         5.0054   -0.6392    6.0522 O.2       1 RES1    0.0000
      4 O4         0.7921   -4.6614    3.6653 O.2       1 RES1    0.0000
      5 N1         3.5845   -2.3757    5.9108 N.am      1 RES1    0.0000
      6 N2         6.7292   -1.9821   -0.5359 N.pl3     1 RES1    0.0000
      7 C1         4.6615   -2.6494    2.4955 C.ar      1 RES1    0.0000
      8 C2         4.1860   -1.2761    5.3903 C.2       1 RES1    0.0000
      9 C3         3.7087   -0.8869    4.0260 C.3       1 RES1    0.0000
     10 C4         3.4001   -2.0855    3.1249 C.3       1 RES1    0.0000
     11 C5         2.5747   -3.1091    3.8820 C.2       1 RES1    0.0000
     12 C6         5.1516   -2.0590    1.3301 C.ar      1 RES1    0.0000
     13 C7         2.6925   -3.2024    5.2211 C.2       1 RES1    0.0000
     14 C8         6.2634   -2.5954    0.7244 C.ar      1 RES1    0.0000
     15 C9         2.0017   -4.1708    6.1236 C.3       1 RES1    0.0000
     16 C10        6.9544   -3.6665    1.2455 C.ar      1 RES1    0.0000
     17 C11        1.6875   -4.0370    3.1279 C.2       1 RES1    0.0000
     18 C12        6.5126   -4.2108    2.4213 C.ar      1 RES1    0.0000
     19 C13        1.9057   -4.2095    1.6760 C.3       1 RES1    0.0000
     20 C14        5.3693   -3.7183    3.0344 C.ar      1 RES1    0.0000
     21 O5         3.1507    0.7723    8.4573 O.2       2 RES2    0.0000
     22 O6         1.6498   -0.7912    8.3875 O.2       2 RES2    0.0000
     23 O7         0.4349   -1.2371    1.3667 O.2       2 RES2    0.0000
     24 O8        -4.0768    2.3796    3.8123 O.2       2 RES2    0.0000
     25 N3        -1.0461    0.4534    1.5276 N.am      2 RES2    0.0000
     26 N4         2.2009    0.2019    7.9259 N.pl3     2 RES2    0.0000
     27 C15        0.5716    0.2065    6.0969 C.ar      2 RES2    0.0000
     28 C16        0.0623    0.7365    4.9093 C.ar      2 RES2    0.0000
     29 C17        1.7104    0.7434    6.6432 C.ar      2 RES2    0.0000
     30 C18       -0.4030   -0.6331    2.0338 C.2       2 RES2    0.0000
     31 C19        2.4143    1.7729    6.0450 C.ar      2 RES2    0.0000
     32 C20       -0.8584   -1.0447    3.4040 C.3       2 RES2    0.0000
     33 C21        1.9301    2.2724    4.8648 C.ar      2 RES2    0.0000
     34 C22       -1.2017    0.1331    4.3155 C.3       2 RES2    0.0000
     35 C23        0.7600    1.7799    4.3125 C.ar      2 RES2    0.0000
     36 C24       -2.0865    1.1168    3.5688 C.2       2 RES2    0.0000
     37 C25       -1.9827    1.2263    2.2298 C.2       2 RES2    0.0000
     38 C26       -2.7264    2.1733    1.3479 C.3       2 RES2    0.0000
     39 C27       -3.0385    1.9719    4.3125 C.2       2 RES2    0.0000
     40 C28       -2.7061    2.3793    5.7154 C.3       2 RES2    0.0000
     41 H1         3.7658   -2.5785    6.7264 H         1 RES1    0.0000
     42 H2         2.8397   -1.7543    2.3929 H         1 RES1    0.0000
     43 H3         4.7319   -1.3125    0.9681 H         1 RES1    0.0000
     44 H4         7.7011   -4.0112    0.8113 H         1 RES1    0.0000
     45 H5         6.9806   -4.9130    2.8109 H         1 RES1    0.0000
     46 H6         5.0698   -4.1121    3.8215 H         1 RES1    0.0000
     47 H7         4.3873   -0.3402    3.5998 H         1 RES1    0.0000
     48 H8         2.9079   -0.3466    4.1155 H         1 RES1    0.0000
     49 H9         1.0698   -3.9474    6.1783 H         1 RES1    0.0000
     50 H10        2.3938   -4.1282    6.9982 H         1 RES1    0.0000
     51 H11        2.0980   -5.0588    5.7718 H         1 RES1    0.0000
     52 H12        1.6453   -5.0960    1.4156 H         1 RES1    0.0000
     53 H13        2.8344   -4.0759    1.4735 H         1 RES1    0.0000
     54 H14        1.3779   -3.5672    1.1949 H         1 RES1    0.0000
     55 H15       -0.8657    0.6826    0.7191 H         2 RES2    0.0000
     56 H16       -1.7297   -0.2221    5.0601 H         2 RES2    0.0000
     57 H17        0.1416   -0.5048    6.5145 H         2 RES2    0.0000
     58 H18        3.1890    2.1138    6.4311 H         2 RES2    0.0000
     59 H19        2.3931    2.9512    4.4300 H         2 RES2    0.0000
     60 H20        0.4339    2.1553    3.5262 H         2 RES2    0.0000
     61 H21       -0.1590   -1.5704    3.8218 H         2 RES2    0.0000
     62 H22       -1.6413   -1.6108    3.3167 H         2 RES2    0.0000
     63 H23       -2.8136    3.0207    1.7897 H         2 RES2    0.0000
     64 H24       -3.5981    1.8182    1.1602 H         2 RES2    0.0000
     65 H25       -2.2443    2.2893    0.5254 H         2 RES2    0.0000
     66 H26       -3.3348    1.9823    6.3215 H         2 RES2    0.0000
     67 H27       -2.7496    3.3357    5.7892 H         2 RES2    0.0000
     68 H28       -1.8194    2.0820    5.9327 H         2 RES2    0.0000
@<TRIPOS>BOND
     1    1    6 2
     2    2    6 2
     3    3    8 2
     4    4   17 2
     5    5    8 1
     6    6   14 1
     7    7   10 1
     8    8    9 1
     9    9   10 1
    10   10   11 1
    11   11   13 2
    12   12    7 ar
    13   13    5 1
    14   14   12 ar
    15   15   13 1
    16   16   14 ar
    17   17   11 1
    18   18   16 ar
    19   19   17 1
    20   20    7 ar
    21   21   26 2
    22   22   26 2
    23   23   30 2
    24   24   39 2
    25   25   30 1
    26   26   29 1
    27   27   28 ar
    28   28   34 1
    29   29   27 ar
    30   30   32 1
    31   31   29 ar
    32   32   34 1
    33   33   31 ar
    34   34   36 1
    35   35   28 ar
    36   36   37 2
    37   37   25 1
    38   38   37 1
    39   39   36 1
    40   40   39 1
    41   41    5 1
    42   42   10 1
    43   43   12 1
    44   44   16 1
    45   45   18 1
    46   46   20 1
    47   47    9 1
    48   48    9 1
    49   49   15 1
    50   50   15 1
    51   51   15 1
    52   52   19 1
    53   53   19 1
    54   54   19 1
    55   55   25 1
    56   56   34 1
    57   57   27 1
    58   58   31 1
    59   59   33 1
    60   60   35 1
    61   61   32 1
    62   62   32 1
    63   63   38 1
    64   64   38 1
    65   65   38 1
    66   66   40 1
    67   67   40 1
    68   68   40 1
    69   18   20 ar
    70   33   35 ar
@<TRIPOS>SUBSTRUCTURE
     1 RES1 1
     2 RES2 21

@<TRIPOS>CRYSIN
   9.2020    9.8120   15.3080 103.7090  90.1470 103.1910   2 1

