# MOL2 file generated by ConQuest
# Please check atom types

@<TRIPOS>MOLECULE
MELCUE
    54    55     1
SMALL
NO_CHARGES
****
Generated from CSD

@<TRIPOS>ATOM
      1 C1         1.8274   15.5662    2.6290 C.ar      1 RES1    0.0000
      2 C2         1.7318   16.2891    3.8288 C.ar      1 RES1    0.0000
      3 H1         2.1399   15.9570    4.5967 H         1 RES1    0.0000
      4 C3         1.0501   17.4735    3.8879 C.ar      1 RES1    0.0000
      5 H2         0.9907   17.9420    4.6881 H         1 RES1    0.0000
      6 C4         0.4501   17.9664    2.7421 C.ar      1 RES1    0.0000
      7 C5         0.5294   17.2779    1.5498 C.ar      1 RES1    0.0000
      8 H3         0.1237   17.6218    0.7867 H         1 RES1    0.0000
      9 C6         1.2051   16.0873    1.4869 C.ar      1 RES1    0.0000
     10 H4         1.2513   15.6231    0.6828 H         1 RES1    0.0000
     11 C7         2.6958   13.6036    1.4021 C.3       1 RES1    0.0000
     12 H5         3.0636   14.1565    0.6953 H         1 RES1    0.0000
     13 H6         1.8314   13.2780    1.1075 H         1 RES1    0.0000
     14 C8         3.6114   12.4344    1.6453 C.ar      1 RES1    0.0000
     15 C9         3.2066   11.1565    1.3353 C.ar      1 RES1    0.0000
     16 H7         2.3504   11.0314    0.9946 H         1 RES1    0.0000
     17 C10        4.0223   10.0456    1.5089 C.ar      1 RES1    0.0000
     18 C11        5.2912   10.2755    2.0462 C.ar      1 RES1    0.0000
     19 C12        5.7481   11.5572    2.3951 C.ar      1 RES1    0.0000
     20 C13        4.8823   12.6172    2.1670 C.ar      1 RES1    0.0000
     21 H8         5.1640   13.4799    2.3709 H         1 RES1    0.0000
     22 C14        7.1364   11.7840    3.0347 C.3       1 RES1    0.0000
     23 C15        3.5500    8.6396    1.0908 C.3       1 RES1    0.0000
     24 C16        7.2288   11.0712    4.3797 C.3       1 RES1    0.0000
     25 H9         7.1508   10.1242    4.2455 H         1 RES1    0.0000
     26 H10        6.5186   11.3740    4.9515 H         1 RES1    0.0000
     27 H11        8.0743   11.2681    4.7885 H         1 RES1    0.0000
     28 C17        7.3819   13.2855    3.2881 C.3       1 RES1    0.0000
     29 H12        6.7343   13.6145    3.9157 H         1 RES1    0.0000
     30 H13        7.2991   13.7677    2.4623 H         1 RES1    0.0000
     31 H14        8.2646   13.4101    3.6451 H         1 RES1    0.0000
     32 C18        8.2584   11.2856    2.0996 C.3       1 RES1    0.0000
     33 H15        9.1052   11.3641    2.5448 H         1 RES1    0.0000
     34 H16        8.2669   11.8164    1.2993 H         1 RES1    0.0000
     35 H17        8.1006   10.3672    1.8727 H         1 RES1    0.0000
     36 C19        2.0939    8.6589    0.6487 C.3       1 RES1    0.0000
     37 H18        2.0001    9.2308   -0.1165 H         1 RES1    0.0000
     38 H19        1.5470    8.9903    1.3638 H         1 RES1    0.0000
     39 H20        1.8175    7.7692    0.4193 H         1 RES1    0.0000
     40 C20        3.6258    7.6332    2.2482 C.3       1 RES1    0.0000
     41 H21        3.1416    7.9760    3.0017 H         1 RES1    0.0000
     42 H22        4.5444    7.4963    2.4928 H         1 RES1    0.0000
     43 H23        3.2407    6.7985    1.9731 H         1 RES1    0.0000
     44 C21        4.3947    8.1537   -0.1029 C.3       1 RES1    0.0000
     45 H24        4.0598    7.3081   -0.4086 H         1 RES1    0.0000
     46 H25        5.3096    8.0558    0.1720 H         1 RES1    0.0000
     47 H26        4.3413    8.7959   -0.8154 H         1 RES1    0.0000
     48 N1         2.5248   14.4030    2.5937 N.3       1 RES1    0.0000
     49 H27        2.8861   14.1253    3.3225 H         1 RES1    0.0000
     50 N2        -0.2371   19.2250    2.7774 N.pl3     1 RES1    0.0000
     51 O1        -0.1564   19.9372    3.7738 O.2       1 RES1    0.0000
     52 O2        -0.8880   19.5666    1.7982 O.2       1 RES1    0.0000
     53 O3         6.0927    9.1726    2.2211 O.3       1 RES1    0.0000
     54 H28        6.8759    9.3816    2.0985 H         1 RES1    0.0000
@<TRIPOS>BOND
     1    1    2 ar
     2    2    3 1
     3    4    2 ar
     4    5    4 1
     5    6    4 ar
     6    7    6 ar
     7    8    7 1
     8    9    1 ar
     9   10    9 1
    10   11   12 1
    11   13   11 1
    12   14   11 1
    13   15   14 ar
    14   16   15 1
    15   17   15 ar
    16   18   17 ar
    17   19   18 ar
    18   20   14 ar
    19   21   20 1
    20   22   19 1
    21   23   17 1
    22   24   22 1
    23   25   24 1
    24   26   24 1
    25   27   24 1
    26   28   22 1
    27   29   28 1
    28   30   28 1
    29   31   28 1
    30   32   22 1
    31   33   32 1
    32   34   32 1
    33   35   32 1
    34   36   23 1
    35   37   36 1
    36   38   36 1
    37   39   36 1
    38   40   23 1
    39   41   40 1
    40   42   40 1
    41   43   40 1
    42   44   23 1
    43   45   44 1
    44   46   44 1
    45   47   44 1
    46   48    1 1
    47   49   48 1
    48   50    6 1
    49   51   50 2
    50   52   50 2
    51   53   18 1
    52   54   53 1
    53    7    9 ar
    54   11   48 1
    55   19   20 ar
@<TRIPOS>SUBSTRUCTURE
     1 RES1 1

@<TRIPOS>CRYSIN
   8.9317   12.4606   17.9577  90.0000  93.6710  90.0000 231 1

