# MOL2 file generated by ConQuest
# Please check atom types

@<TRIPOS>MOLECULE
MELRUR
   116   120     2
SMALL
NO_CHARGES
****
Generated from CSD

@<TRIPOS>ATOM
      1 O1        -0.6557   -1.7285  -16.7838 O.3       1 RES1    0.0000
      2 O2        -0.2137   -1.5213  -12.1149 O.2       1 RES1    0.0000
      3 O3         3.4338    2.7318  -15.6656 O.3       1 RES1    0.0000
      4 O4        -0.5826    0.9055  -10.8130 O.3       2 RES2    0.0000
      5 O5        -1.7721    1.5481   -6.3160 O.2       2 RES2    0.0000
      6 O6        -5.1512    5.0185  -10.9010 O.3       2 RES2    0.0000
      7 N1        -0.9290   -2.1582  -15.4548 N.3       1 RES1    0.0000
      8 N2         0.1190   -3.1155  -13.6922 N.am      1 RES1    0.0000
      9 N3        -0.4479    0.6964   -9.4001 N.3       2 RES2    0.0000
     10 N4         0.1356    1.7918   -7.5221 N.am      2 RES2    0.0000
     11 C1        -0.0995   -3.3591  -15.1333 C.3       1 RES1    0.0000
     12 C2        -0.2566   -1.9069  -13.2856 C.2       1 RES1    0.0000
     13 C3        -0.6440   -1.0705  -14.4815 C.3       1 RES1    0.0000
     14 C4        -0.9631   -4.6483  -15.3725 C.3       1 RES1    0.0000
     15 C5        -2.0716   -4.7519  -14.3338 C.3       1 RES1    0.0000
     16 C6         1.2207   -3.3687  -15.8626 C.3       1 RES1    0.0000
     17 C7         0.7758   -4.0363  -12.7792 C.3       1 RES1    0.0000
     18 C8         0.5103   -0.1228  -14.8332 C.ar      1 RES1    0.0000
     19 C9         1.6676   -0.0518  -14.0500 C.ar      1 RES1    0.0000
     20 C10        2.6512    0.8786  -14.3127 C.ar      1 RES1    0.0000
     21 C11        2.5283    1.7707  -15.3444 C.ar      1 RES1    0.0000
     22 C12        1.4100    1.6767  -16.1533 C.ar      1 RES1    0.0000
     23 C13        0.4137    0.7750  -15.8977 C.ar      1 RES1    0.0000
     24 C14       -1.9135   -0.2379  -14.2493 C.3       1 RES1    0.0000
     25 C15       -3.1265   -1.0148  -13.8038 C.ar      1 RES1    0.0000
     26 C16       -4.0408   -1.4810  -14.7230 C.ar      1 RES1    0.0000
     27 C17       -5.1552   -2.1946  -14.2798 C.ar      1 RES1    0.0000
     28 C18       -5.3708   -2.4210  -12.9621 C.ar      1 RES1    0.0000
     29 C19       -4.4711   -1.9664  -12.0570 C.ar      1 RES1    0.0000
     30 C20       -3.3636   -1.2700  -12.4603 C.ar      1 RES1    0.0000
     31 C21       -1.6276   -4.5735  -16.7466 C.3       1 RES1    0.0000
     32 C22       -0.1054   -5.9259  -15.3444 C.3       1 RES1    0.0000
     33 C23        4.4340    3.0292  -14.7207 C.3       1 RES1    0.0000
     34 C24        0.6704    1.5270   -8.8680 C.3       2 RES2    0.0000
     35 C25       -1.1456    1.4580   -7.3697 C.2       2 RES2    0.0000
     36 C26       -1.6989    1.0302   -8.7062 C.3       2 RES2    0.0000
     37 C27        1.9633    0.6331   -8.7907 C.3       2 RES2    0.0000
     38 C28        1.7701   -0.5065   -7.7871 C.3       2 RES2    0.0000
     39 C29        0.8675    2.8239   -9.5996 C.3       2 RES2    0.0000
     40 C30        0.8519    2.4517   -6.4388 C.3       2 RES2    0.0000
     41 C31       -2.5527    2.1620   -9.2924 C.ar      2 RES2    0.0000
     42 C32       -3.2621    1.9798  -10.4672 C.ar      2 RES2    0.0000
     43 C33       -4.0935    2.9352  -10.9690 C.ar      2 RES2    0.0000
     44 C34       -4.2633    4.1457  -10.3148 C.ar      2 RES2    0.0000
     45 C35       -3.5734    4.3624   -9.1729 C.ar      2 RES2    0.0000
     46 C36       -2.7176    3.3898   -8.6734 C.ar      2 RES2    0.0000
     47 C37       -2.5947   -0.2225   -8.5609 C.3       2 RES2    0.0000
     48 C38       -1.9194   -1.4733   -8.1013 C.ar      2 RES2    0.0000
     49 C39       -1.4022   -2.3731   -9.0158 C.ar      2 RES2    0.0000
     50 C40       -0.7748   -3.5107   -8.6453 C.ar      2 RES2    0.0000
     51 C41       -0.6265   -3.8080   -7.3463 C.ar      2 RES2    0.0000
     52 C42       -1.1534   -2.9563   -6.3825 C.ar      2 RES2    0.0000
     53 C43       -1.8013   -1.7745   -6.7624 C.ar      2 RES2    0.0000
     54 C44        3.2172    1.4330   -8.3827 C.3       2 RES2    0.0000
     55 C45        2.2473    0.0269  -10.1577 C.3       2 RES2    0.0000
     56 C46       -5.4235    6.2233  -10.2444 C.3       2 RES2    0.0000
     57 H1        -1.5525   -1.8282  -17.2976 H         1 RES1    0.0000
     58 H2        -2.6112   -5.5116  -14.5213 H         1 RES1    0.0000
     59 H3        -1.6881   -4.8420  -13.4685 H         1 RES1    0.0000
     60 H4        -2.6073   -3.9692  -14.3619 H         1 RES1    0.0000
     61 H5         1.6520   -2.5304  -15.7453 H         1 RES1    0.0000
     62 H6         1.0714   -3.5222  -16.7864 H         1 RES1    0.0000
     63 H7         1.7711   -4.0593  -15.5109 H         1 RES1    0.0000
     64 H8         1.5798   -3.6450  -12.4579 H         1 RES1    0.0000
     65 H9         0.9758   -4.8459  -13.2341 H         1 RES1    0.0000
     66 H10        0.1991   -4.2205  -12.0452 H         1 RES1    0.0000
     67 H11        1.7769   -0.6561  -13.3255 H         1 RES1    0.0000
     68 H12        3.4299    0.8997  -13.7663 H         1 RES1    0.0000
     69 H13        1.3329    2.2522  -16.9037 H         1 RES1    0.0000
     70 H14       -0.3562    0.7597  -16.4535 H         1 RES1    0.0000
     71 H15       -2.1302    0.1995  -15.0630 H         1 RES1    0.0000
     72 H16       -1.7203    0.4105  -13.5811 H         1 RES1    0.0000
     73 H17       -3.9149   -1.3179  -15.6515 H         1 RES1    0.0000
     74 H18       -5.7758   -2.5304  -14.9153 H         1 RES1    0.0000
     75 H19       -6.1436   -2.8929  -12.6760 H         1 RES1    0.0000
     76 H20       -4.6107   -2.1333  -11.1331 H         1 RES1    0.0000
     77 H21       -2.7459   -0.9573  -11.8108 H         1 RES1    0.0000
     78 H22       -2.1536   -3.7831  -16.8005 H         1 RES1    0.0000
     79 H23       -0.9592   -4.5543  -17.4195 H         1 RES1    0.0000
     80 H24       -2.1829   -5.3332  -16.8708 H         1 RES1    0.0000
     81 H25        0.5562   -5.8780  -16.0244 H         1 RES1    0.0000
     82 H26       -0.6596   -6.6818  -15.4944 H         1 RES1    0.0000
     83 H27        0.3171   -6.0046  -14.4979 H         1 RES1    0.0000
     84 H28        4.9844    3.7294  -15.0489 H         1 RES1    0.0000
     85 H29        4.9639    2.2560  -14.5636 H         1 RES1    0.0000
     86 H30        4.0281    3.3035  -13.9047 H         1 RES1    0.0000
     87 H31       -0.5835   -0.1650  -11.3113 H         2 RES2    0.0000
     88 H32        2.5459   -1.0551   -7.7777 H         2 RES2    0.0000
     89 H33        1.0168   -1.0283   -8.0403 H         2 RES2    0.0000
     90 H34        1.6267   -0.1458   -6.9195 H         2 RES2    0.0000
     91 H35        1.2090    2.6474  -10.4695 H         2 RES2    0.0000
     92 H36        0.0351    3.2766   -9.6723 H         2 RES2    0.0000
     93 H37        1.4822    3.3668   -9.1213 H         2 RES2    0.0000
     94 H38        1.7525    2.6014   -6.6991 H         2 RES2    0.0000
     95 H39        0.8333    1.9011   -5.6650 H         2 RES2    0.0000
     96 H40        0.4362    3.2843   -6.2442 H         2 RES2    0.0000
     97 H41       -3.1655    1.1626  -10.9408 H         2 RES2    0.0000
     98 H42       -4.5648    2.7683  -11.7756 H         2 RES2    0.0000
     99 H43       -3.6758    5.1835   -8.7062 H         2 RES2    0.0000
    100 H44       -2.2278    3.5721   -7.8809 H         2 RES2    0.0000
    101 H45       -3.2787   -0.0173   -7.9325 H         2 RES2    0.0000
    102 H46       -2.9850   -0.3990   -9.4073 H         2 RES2    0.0000
    103 H47       -1.4920   -2.1831   -9.9420 H         2 RES2    0.0000
    104 H48       -0.4381   -4.1035   -9.3089 H         2 RES2    0.0000
    105 H49       -0.1639   -4.5965   -7.0860 H         2 RES2    0.0000
    106 H50       -1.0724   -3.1750   -5.4610 H         2 RES2    0.0000
    107 H51       -2.1546   -1.1875   -6.1035 H         2 RES2    0.0000
    108 H52        3.9715    0.8556   -8.3733 H         2 RES2    0.0000
    109 H53        3.3626    2.1333   -9.0064 H         2 RES2    0.0000
    110 H54        3.0913    1.8014   -7.5151 H         2 RES2    0.0000
    111 H55        3.0425   -0.4911  -10.1155 H         2 RES2    0.0000
    112 H56        1.5213   -0.5295  -10.4156 H         2 RES2    0.0000
    113 H57        2.3566    0.7213  -10.7978 H         2 RES2    0.0000
    114 H58       -4.6233    6.7278  -10.1647 H         2 RES2    0.0000
    115 H59       -5.7709    6.0410   -9.3792 H         2 RES2    0.0000
    116 H60       -6.0626    6.7182  -10.7439 H         2 RES2    0.0000
@<TRIPOS>BOND
     1    1    7 1
     2    2   12 2
     3    3   21 1
     4    4    9 1
     5    5   35 2
     6    6   44 1
     7    7   11 1
     8    8   11 1
     9    9   34 1
    10   10   34 1
    11   11   14 1
    12   12    8 1
    13   13    7 1
    14   14   15 1
    15   15   58 1
    16   16   11 1
    17   17    8 1
    18   18   13 1
    19   19   18 ar
    20   20   19 ar
    21   21   20 ar
    22   22   21 ar
    23   23   18 ar
    24   24   13 1
    25   25   24 1
    26   26   25 ar
    27   27   26 ar
    28   28   27 ar
    29   29   28 ar
    30   30   25 ar
    31   31   14 1
    32   32   14 1
    33   33    3 1
    34   34   37 1
    35   35   10 1
    36   36    9 1
    37   37   38 1
    38   38   88 1
    39   39   34 1
    40   40   10 1
    41   41   36 1
    42   42   41 ar
    43   43   42 ar
    44   44   43 ar
    45   45   44 ar
    46   46   41 ar
    47   47   36 1
    48   48   47 1
    49   49   48 ar
    50   50   49 ar
    51   51   50 ar
    52   52   51 ar
    53   53   48 ar
    54   54   37 1
    55   55   37 1
    56   56    6 1
    57   57    1 1
    58   59   15 1
    59   60   15 1
    60   61   16 1
    61   62   16 1
    62   63   16 1
    63   64   17 1
    64   65   17 1
    65   66   17 1
    66   67   19 1
    67   68   20 1
    68   69   22 1
    69   70   23 1
    70   71   24 1
    71   72   24 1
    72   73   26 1
    73   74   27 1
    74   75   28 1
    75   76   29 1
    76   77   30 1
    77   78   31 1
    78   79   31 1
    79   80   31 1
    80   81   32 1
    81   82   32 1
    82   83   32 1
    83   84   33 1
    84   85   33 1
    85   86   33 1
    86   87    4 1
    87   89   38 1
    88   90   38 1
    89   91   39 1
    90   92   39 1
    91   93   39 1
    92   94   40 1
    93   95   40 1
    94   96   40 1
    95   97   42 1
    96   98   43 1
    97   99   45 1
    98  100   46 1
    99  101   47 1
   100  102   47 1
   101  103   49 1
   102  104   50 1
   103  105   51 1
   104  106   52 1
   105  107   53 1
   106  108   54 1
   107  109   54 1
   108  110   54 1
   109  111   55 1
   110  112   55 1
   111  113   55 1
   112  114   56 1
   113  115   56 1
   114  116   56 1
   115   12   13 1
   116   22   23 ar
   117   29   30 ar
   118   35   36 1
   119   45   46 ar
   120   52   53 ar
@<TRIPOS>SUBSTRUCTURE
     1 RES1 1
     2 RES2 4

@<TRIPOS>CRYSIN
   9.7580   19.1840   23.4480  90.0000  90.0000  90.0000  19 1

