# MOL2 file generated by ConQuest
# Please check atom types

@<TRIPOS>MOLECULE
MEMQIH
    62    64     2
SMALL
NO_CHARGES
****
Generated from CSD

@<TRIPOS>ATOM
      1 O1         2.5710   12.8379    0.7336 O.2       1 RES1    0.0000
      2 O2         4.3547   12.4262    1.8862 O.2       1 RES1    0.0000
      3 N1         4.1381    2.3084    1.7481 N.ar      1 RES1    0.0000
      4 N2         3.4044    4.3555    1.0123 N.pl3     1 RES1    0.0000
      5 H1         2.6633    3.9508    0.8384 H         1 RES1    0.0000
      6 N3         3.5059    5.6992    1.0562 N.2       1 RES1    0.0000
      7 N4         3.3691   12.0635    1.2477 N.pl3     1 RES1    0.0000
      8 C1         4.3382    3.6310    1.7403 C.ar      1 RES1    0.0000
      9 C2         5.4043    4.2495    2.4094 C.ar      1 RES1    0.0000
     10 H2         5.5392    5.1678    2.3505 H         1 RES1    0.0000
     11 C3         6.2494    3.4515    3.1600 C.ar      1 RES1    0.0000
     12 H3         6.9569    3.8318    3.6287 H         1 RES1    0.0000
     13 C4         6.0360    2.0743    3.2108 C.ar      1 RES1    0.0000
     14 H4         6.5838    1.5210    3.7194 H         1 RES1    0.0000
     15 C5         4.9792    1.5584    2.4770 C.ar      1 RES1    0.0000
     16 H5         4.8452    0.6382    2.4906 H         1 RES1    0.0000
     17 C6         2.6204    6.4489    0.4869 C.2       1 RES1    0.0000
     18 C7         1.4206    5.9664   -0.2704 C.3       1 RES1    0.0000
     19 H6         1.3805    6.4087   -1.1216 H         1 RES1    0.0000
     20 H7         0.6256    6.1637    0.2303 H         1 RES1    0.0000
     21 H8         1.4870    5.0184   -0.4052 H         1 RES1    0.0000
     22 C8         2.8270    7.9028    0.6568 C.ar      1 RES1    0.0000
     23 C9         1.9064    8.8264    0.1392 C.ar      1 RES1    0.0000
     24 H9         1.1780    8.5201   -0.3511 H         1 RES1    0.0000
     25 C10        2.0652   10.1926    0.3475 C.ar      1 RES1    0.0000
     26 H10        1.4468   10.8000    0.0105 H         1 RES1    0.0000
     27 C11        3.1645   10.6276    1.0677 C.ar      1 RES1    0.0000
     28 C12        4.0965    9.7433    1.5989 C.ar      1 RES1    0.0000
     29 H11        4.8249   10.0582    2.0838 H         1 RES1    0.0000
     30 C13        3.9215    8.3880    1.3936 C.ar      1 RES1    0.0000
     31 H12        4.5371    7.7881    1.7482 H         1 RES1    0.0000
     32 H13        8.1462   -1.1661    6.7144 H         2 RES2    0.0000
     33 O3         7.4942    7.7148    6.5164 O.2       2 RES2    0.0000
     34 O4         9.3597    7.3756    5.4695 O.2       2 RES2    0.0000
     35 N5         9.8048   -2.7428    6.4723 N.ar      2 RES2    0.0000
     36 N6         8.7845   -0.6972    6.5953 N.pl3     2 RES2    0.0000
     37 N7         8.7775    0.6289    6.3527 N.2       2 RES2    0.0000
     38 N8         8.3496    6.9682    6.0441 N.pl3     2 RES2    0.0000
     39 C14        9.8635   -1.4415    6.1591 C.ar      2 RES2    0.0000
     40 C15       10.9318   -0.8635    5.4537 C.ar      2 RES2    0.0000
     41 H14       10.9449    0.0474    5.2661 H         2 RES2    0.0000
     42 C16       11.9631   -1.6888    5.0468 C.ar      2 RES2    0.0000
     43 H15       12.6762   -1.3422    4.5609 H         2 RES2    0.0000
     44 C17       11.9271   -3.0463    5.3702 C.ar      2 RES2    0.0000
     45 H16       12.6119   -3.6203    5.1120 H         2 RES2    0.0000
     46 C18       10.8394   -3.5094    6.0871 C.ar      2 RES2    0.0000
     47 H17       10.8225   -4.4101    6.3179 H         2 RES2    0.0000
     48 C19        7.7773    1.3364    6.7730 C.2       2 RES2    0.0000
     49 C20        6.6056    0.8011    7.5396 C.3       2 RES2    0.0000
     50 H18        5.7917    1.1286    7.1498 H         2 RES2    0.0000
     51 H19        6.6619    1.0906    8.4533 H         2 RES2    0.0000
     52 H20        6.6129   -0.1582    7.5068 H         2 RES2    0.0000
     53 C21        7.8894    2.7858    6.5290 C.ar      2 RES2    0.0000
     54 C22        6.9572    3.6788    7.0756 C.ar      2 RES2    0.0000
     55 H21        6.2349    3.3460    7.5578 H         2 RES2    0.0000
     56 C23        7.0921    5.0504    6.9103 C.ar      2 RES2    0.0000
     57 H22        6.4724    5.6365    7.2812 H         2 RES2    0.0000
     58 C24        8.1704    5.5289    6.1804 C.ar      2 RES2    0.0000
     59 C25        9.1058    4.6733    5.6042 C.ar      2 RES2    0.0000
     60 H23        9.8153    5.0129    5.1081 H         2 RES2    0.0000
     61 C26        8.9608    3.3096    5.7826 C.ar      2 RES2    0.0000
     62 H24        9.5812    2.7299    5.4034 H         2 RES2    0.0000
@<TRIPOS>BOND
     1    1    7 2
     2    2    7 2
     3    3    8 ar
     4    4    5 1
     5    6    4 1
     6    7   27 1
     7    8    4 1
     8    9    8 ar
     9   10    9 1
    10   11    9 ar
    11   12   11 1
    12   13   11 ar
    13   14   13 1
    14   15    3 ar
    15   16   15 1
    16   17    6 2
    17   18   17 1
    18   19   18 1
    19   20   18 1
    20   21   18 1
    21   22   17 1
    22   23   22 ar
    23   24   23 1
    24   25   23 ar
    25   26   25 1
    26   27   25 ar
    27   28   27 ar
    28   29   28 1
    29   30   22 ar
    30   31   30 1
    31   32   36 1
    32   33   38 2
    33   34   38 2
    34   35   39 ar
    35   36   37 1
    36   37   48 2
    37   38   58 1
    38   39   36 1
    39   40   39 ar
    40   41   40 1
    41   42   40 ar
    42   43   42 1
    43   44   42 ar
    44   45   44 1
    45   46   35 ar
    46   47   46 1
    47   48   49 1
    48   49   50 1
    49   51   49 1
    50   52   49 1
    51   53   48 1
    52   54   53 ar
    53   55   54 1
    54   56   54 ar
    55   57   56 1
    56   58   56 ar
    57   59   58 ar
    58   60   59 1
    59   61   53 ar
    60   62   61 1
    61   13   15 ar
    62   28   30 ar
    63   44   46 ar
    64   59   61 ar
@<TRIPOS>SUBSTRUCTURE
     1 RES1 1
     2 RES2 32

@<TRIPOS>CRYSIN
  11.2966   28.0997    7.6344  90.0000  96.3340  90.0000  14 1

