# MOL2 file generated by ConQuest
# Please check atom types

@<TRIPOS>MOLECULE
MENBAJ
    28    30     1
SMALL
USER_CHARGES
****
Generated from CSD

@<TRIPOS>ATOM
      1 O1         0.0946   -2.1432    1.7359 O.2       1 RES1   -1.0000
      2 N1        -0.1411   -1.2699    2.6709 N.pl3     1 RES1    1.0000
      3 C1        -0.6831   -1.6315    3.8555 C.ar      1 RES1    0.0000
      4 C2        -0.8816   -0.6482    4.8440 C.ar      1 RES1    0.0000
      5 H1        -1.2453   -0.8982    5.6627 H         1 RES1    0.0000
      6 C3        -0.5575    0.6562    4.6366 C.ar      1 RES1    0.0000
      7 H2        -0.7103    1.2862    5.3029 H         1 RES1    0.0000
      8 C4         0.3644    2.3790    3.1173 C.ar      1 RES1    0.0000
      9 H3         0.2287    3.0461    3.7512 H         1 RES1    0.0000
     10 C5         0.9072    2.6992    1.9083 C.ar      1 RES1    0.0000
     11 H4         1.1274    3.5820    1.7188 H         1 RES1    0.0000
     12 C6         1.1360    1.7027    0.9489 C.ar      1 RES1    0.0000
     13 H5         1.5175    1.9314    0.1321 H         1 RES1    0.0000
     14 C7         0.8064    0.3983    1.1978 C.ar      1 RES1    0.0000
     15 H6         0.9630   -0.2594    0.5586 H         1 RES1    0.0000
     16 C8         0.2295    0.0695    2.4292 C.ar      1 RES1    0.0000
     17 C9         0.0047    1.0433    3.4184 C.ar      1 RES1    0.0000
     18 C10       -1.0956   -3.0319    4.1077 C.ar      1 RES1    0.0000
     19 C11       -1.7741   -3.7914    3.1714 C.ar      1 RES1    0.0000
     20 H7        -1.8881   -3.4662    2.3071 H         1 RES1    0.0000
     21 C12       -2.2867   -5.0372    3.5128 C.ar      1 RES1    0.0000
     22 H8        -2.7589   -5.5326    2.8829 H         1 RES1    0.0000
     23 C13       -2.1006   -5.5395    4.7733 C.ar      1 RES1    0.0000
     24 H9        -2.4464   -6.3729    4.9991 H         1 RES1    0.0000
     25 C14       -1.4035   -4.8109    5.6990 C.ar      1 RES1    0.0000
     26 H10       -1.2577   -5.1639    6.5469 H         1 RES1    0.0000
     27 C15       -0.9126   -3.5524    5.3867 C.ar      1 RES1    0.0000
     28 H11       -0.4606   -3.0568    6.0305 H         1 RES1    0.0000
@<TRIPOS>BOND
     1    1    2 1
     2    2    3 ar
     3    3    4 ar
     4    4    5 1
     5    6    4 ar
     6    7    6 1
     7    8    9 1
     8   10    8 ar
     9   11   10 1
    10   12   10 ar
    11   13   12 1
    12   14   12 ar
    13   15   14 1
    14   16    2 ar
    15   17    6 ar
    16   18    3 1
    17   19   18 ar
    18   20   19 1
    19   21   19 ar
    20   22   21 1
    21   23   21 ar
    22   24   23 1
    23   25   23 ar
    24   26   25 1
    25   27   18 ar
    26   28   27 1
    27    8   17 ar
    28   14   16 ar
    29   16   17 ar
    30   25   27 ar
@<TRIPOS>SUBSTRUCTURE
     1 RES1 1

@<TRIPOS>CRYSIN
   7.7540   21.4360    6.6030  90.0000  90.0000  90.0000  19 1

