# MOL2 file generated by ConQuest
# Please check atom types

@<TRIPOS>MOLECULE
MENBEN
    27    28     1
SMALL
NO_CHARGES
****
Generated from CSD

@<TRIPOS>ATOM
      1 O1        -0.0273    1.0651    1.2829 O.2       1 RES1    0.0000
      2 O2         1.8069   -0.0239    1.2538 O.2       1 RES1    0.0000
      3 N1         1.1195    0.9169    0.9103 N.pl3     1 RES1    0.0000
      4 N2         5.1957    1.8333    0.9151 N.2       1 RES1    0.0000
      5 C1         2.6295    3.6197   -1.9248 C.ar      1 RES1    0.0000
      6 C2         3.4754    3.1227   -0.9558 C.ar      1 RES1    0.0000
      7 C3         3.0265    2.2344    0.0167 C.ar      1 RES1    0.0000
      8 C4         1.6750    1.8994   -0.0291 C.ar      1 RES1    0.0000
      9 C5         0.8065    2.4042   -0.9822 C.ar      1 RES1    0.0000
     10 C6         1.2970    3.2632   -1.9395 C.ar      1 RES1    0.0000
     11 C7         3.9472    1.7728    1.0761 C.2       1 RES1    0.0000
     12 C8         6.0403    1.4788    1.9985 C.ar      1 RES1    0.0000
     13 C9         7.2145    0.8065    1.7081 C.ar      1 RES1    0.0000
     14 C10        8.0887    0.4631    2.7198 C.ar      1 RES1    0.0000
     15 C11        7.8127    0.8158    4.0268 C.ar      1 RES1    0.0000
     16 C12        6.6605    1.4965    4.3216 C.ar      1 RES1    0.0000
     17 C13        5.7713    1.8353    3.3180 C.ar      1 RES1    0.0000
     18 H1         2.9595    4.1994   -2.5735 H         1 RES1    0.0000
     19 H2         4.3667    3.3874   -0.9519 H         1 RES1    0.0000
     20 H3        -0.0928    2.1664   -0.9756 H         1 RES1    0.0000
     21 H4         0.7309    3.6028   -2.5946 H         1 RES1    0.0000
     22 H5         3.6017    1.4340    1.8708 H         1 RES1    0.0000
     23 H6         7.4159    0.5850    0.8279 H         1 RES1    0.0000
     24 H7         8.8661   -0.0069    2.5207 H         1 RES1    0.0000
     25 H8         8.4080    0.5920    4.7053 H         1 RES1    0.0000
     26 H9         6.4758    1.7327    5.2023 H         1 RES1    0.0000
     27 H10        4.9932    2.3007    3.5240 H         1 RES1    0.0000
@<TRIPOS>BOND
     1    1    3 2
     2    2    3 2
     3    3    8 1
     4    4   11 2
     5    5    6 ar
     6    6    7 ar
     7    7    8 ar
     8    8    9 ar
     9    9   10 ar
    10   10    5 ar
    11   11    7 1
    12   12    4 1
    13   13   12 ar
    14   14   13 ar
    15   15   14 ar
    16   16   15 ar
    17   17   12 ar
    18   18    5 1
    19   19    6 1
    20   20    9 1
    21   21   10 1
    22   22   11 1
    23   23   13 1
    24   24   14 1
    25   25   15 1
    26   26   16 1
    27   27   17 1
    28   16   17 ar
@<TRIPOS>SUBSTRUCTURE
     1 RES1 1

@<TRIPOS>CRYSIN
  11.1780    7.7180   13.2170  90.0000  94.0640  90.0000  14 1

