# MOL2 file generated by ConQuest
# Please check atom types

@<TRIPOS>MOLECULE
MENKUM
    36    36     1
SMALL
NO_CHARGES
****
Generated from CSD

@<TRIPOS>ATOM
      1 O1        -1.1301    6.1369    3.3978 O.3       1 RES1    0.0000
      2 O2        -0.6083    4.1584    2.4682 O.2       1 RES1    0.0000
      3 O3        -1.2550   10.7890    0.8876 O.2       1 RES1    0.0000
      4 N1        -1.3785    6.6633    2.0775 N.3       1 RES1    0.0000
      5 N2         0.0969    9.9417   -0.6729 N.am      1 RES1    0.0000
      6 H1         0.3823   10.7215   -0.8957 H         1 RES1    0.0000
      7 H2         0.3964    9.2431   -1.0753 H         1 RES1    0.0000
      8 C1        -0.4647    7.7939    1.8170 C.3       1 RES1    0.0000
      9 C2        -1.2355    8.4126    0.6317 C.3       1 RES1    0.0000
     10 H3        -1.1126    7.8442   -0.1573 H         1 RES1    0.0000
     11 C3        -2.6937    8.3289    1.0788 C.3       1 RES1    0.0000
     12 H4        -3.2792    8.2422    0.3099 H         1 RES1    0.0000
     13 H5        -2.9433    9.1272    1.5706 H         1 RES1    0.0000
     14 C4        -2.8030    7.0906    1.9767 C.3       1 RES1    0.0000
     15 C5        -0.7552    4.8410    3.4228 C.2       1 RES1    0.0000
     16 C6        -0.5555    4.4252    4.8426 C.3       1 RES1    0.0000
     17 H6        -0.2958    3.5013    4.8716 H         1 RES1    0.0000
     18 H7        -1.3751    4.5431    5.3282 H         1 RES1    0.0000
     19 H8         0.1321    4.9645    5.2402 H         1 RES1    0.0000
     20 C7         0.8884    7.2149    1.4028 C.3       1 RES1    0.0000
     21 H9         0.7649    6.6057    0.6703 H         1 RES1    0.0000
     22 H10        1.2775    6.7473    2.1459 H         1 RES1    0.0000
     23 H11        1.4715    7.9273    1.1316 H         1 RES1    0.0000
     24 C8        -0.2727    8.7583    2.9933 C.3       1 RES1    0.0000
     25 H12       -1.1232    9.1190    3.2540 H         1 RES1    0.0000
     26 H13        0.3101    9.4737    2.7293 H         1 RES1    0.0000
     27 H14        0.1151    8.2867    3.7341 H         1 RES1    0.0000
     28 C9        -0.8048    9.8168    0.2914 C.2       1 RES1    0.0000
     29 C10       -3.4824    7.4251    3.2921 C.3       1 RES1    0.0000
     30 H15       -3.5434    6.6326    3.8315 H         1 RES1    0.0000
     31 H16       -4.3644    7.7622    3.1202 H         1 RES1    0.0000
     32 H17       -2.9702    8.0900    3.7576 H         1 RES1    0.0000
     33 C11       -3.5396    5.9349    1.3194 C.3       1 RES1    0.0000
     34 H18       -3.5681    5.1893    1.9228 H         1 RES1    0.0000
     35 H19       -3.0801    5.6798    0.5153 H         1 RES1    0.0000
     36 H20       -4.4341    6.2065    1.1034 H         1 RES1    0.0000
@<TRIPOS>BOND
     1    1    4 1
     2    2   15 2
     3    3   28 2
     4    4    8 1
     5    5    6 1
     6    7    5 1
     7    8    9 1
     8    9   10 1
     9   11    9 1
    10   12   11 1
    11   13   11 1
    12   14    4 1
    13   15    1 1
    14   16   15 1
    15   17   16 1
    16   18   16 1
    17   19   16 1
    18   20    8 1
    19   21   20 1
    20   22   20 1
    21   23   20 1
    22   24    8 1
    23   25   24 1
    24   26   24 1
    25   27   24 1
    26   28    5 1
    27   29   14 1
    28   30   29 1
    29   31   29 1
    30   32   29 1
    31   33   14 1
    32   34   33 1
    33   35   33 1
    34   36   33 1
    35    9   28 1
    36   11   14 1
@<TRIPOS>SUBSTRUCTURE
     1 RES1 1

@<TRIPOS>CRYSIN
   9.7037   11.7060   12.2930  90.0000 107.2700  90.0000 231 1

