# MOL2 file generated by ConQuest
# Please check atom types

@<TRIPOS>MOLECULE
MENOIM
    14    14     1
SMALL
NO_CHARGES
****
Generated from CSD

@<TRIPOS>ATOM
      1 O1         3.7377    1.0429    3.1054 O.2       1 RES1    0.0000
      2 O2         2.8078    0.0121    1.4633 O.2       1 RES1    0.0000
      3 N1         3.1028    3.6670   -0.3286 N.3       1 RES1    0.0000
      4 N2         3.7518    3.3805    1.7491 N.2       1 RES1    0.0000
      5 N3         3.2733    1.0172    1.9737 N.pl3     1 RES1    0.0000
      6 C1         3.6291    4.2491    0.7788 C.2       1 RES1    0.0000
      7 C2         3.2829    2.2193    1.2192 C.2       1 RES1    0.0000
      8 C3         2.8756    2.3694   -0.0603 C.2       1 RES1    0.0000
      9 C4         4.0087    5.6740    0.8517 C.3       1 RES1    0.0000
     10 H1         2.9706    3.9868   -1.0792 H         1 RES1    0.0000
     11 H2         2.5179    1.7584   -0.6514 H         1 RES1    0.0000
     12 H3         4.6424    5.8211    1.6431 H         1 RES1    0.0000
     13 H4         4.4957    5.9120    0.0194 H         1 RES1    0.0000
     14 H5         3.4148    6.1546    1.0889 H         1 RES1    0.0000
@<TRIPOS>BOND
     1    1    5 2
     2    2    5 2
     3    3    6 1
     4    4    6 2
     5    5    7 1
     6    6    9 1
     7    7    4 1
     8    8    3 1
     9    9   12 1
    10   10    3 1
    11   11    8 1
    12   13    9 1
    13   14    9 1
    14    7    8 2
@<TRIPOS>SUBSTRUCTURE
     1 RES1 1

@<TRIPOS>CRYSIN
   3.7700   15.1590    9.7690  90.0000  95.5800  90.0000 231 1

