# MOL2 file generated by ConQuest
# Please check atom types

@<TRIPOS>MOLECULE
MENOGU
    14    13     1
SMALL
NO_CHARGES
****
Generated from CSD

@<TRIPOS>ATOM
      1 C1         2.0826    8.9843    4.3549 C.2       1 RES1    0.0000
      2 C2         2.5671    6.8349    5.4177 C.3       1 RES1    0.0000
      3 N1         2.7724    8.2595    5.2308 N.3       1 RES1    0.0000
      4 N2         2.4817   10.3023    4.3409 N.2       1 RES1    0.0000
      5 N3         1.1159    8.4435    3.6348 N.3       1 RES1    0.0000
      6 N4         1.9385   11.1427    3.4718 N.pl3     1 RES1    0.0000
      7 O1         2.3431   12.3193    3.5413 O.2       1 RES1    0.0000
      8 O2         1.0823   10.8170    2.5993 O.2       1 RES1    0.0000
      9 H1         3.4325    8.6379    5.6313 H         1 RES1    0.0000
     10 H2         0.9468    7.6050    3.6841 H         1 RES1    0.0000
     11 H3         0.6337    8.9316    3.1310 H         1 RES1    0.0000
     12 H4         2.7859    6.3493    4.6135 H         1 RES1    0.0000
     13 H5         3.2016    6.5417    6.0407 H         1 RES1    0.0000
     14 H6         1.6690    6.6531    5.6756 H         1 RES1    0.0000
@<TRIPOS>BOND
     1    1    3 1
     2    2    3 1
     3    3    9 1
     4    4    1 2
     5    5    1 1
     6    6    4 1
     7    7    6 2
     8    8    6 2
     9   10    5 1
    10   11    5 1
    11   12    2 1
    12   13    2 1
    13   14    2 1
@<TRIPOS>SUBSTRUCTURE
     1 RES1 1

@<TRIPOS>CRYSIN
   4.6320   10.1265   11.2399  90.0000 100.1640  90.0000 231 1

