# MOL2 file generated by ConQuest
# Please check atom types

@<TRIPOS>MOLECULE
MENPED
    81    88     1
SMALL
NO_CHARGES
****
Generated from CSD

@<TRIPOS>ATOM
      1 C1         5.9829    8.0207    7.7816 C.ar      1 RES1    0.0000
      2 H1         5.4171    7.7884    7.0810 H         1 RES1    0.0000
      3 C2         6.1019    7.1776    8.8724 C.ar      1 RES1    0.0000
      4 H2         5.6271    6.3777    8.8943 H         1 RES1    0.0000
      5 C3         6.9026    7.5096    9.9036 C.ar      1 RES1    0.0000
      6 H3         6.9814    6.9403   10.6362 H         1 RES1    0.0000
      7 C4         7.6027    8.6812    9.8706 C.ar      1 RES1    0.0000
      8 H4         8.1519    8.9136   10.5840 H         1 RES1    0.0000
      9 C5         7.4977    9.5210    8.7835 C.ar      1 RES1    0.0000
     10 H5         7.9791   10.3159    8.7707 H         1 RES1    0.0000
     11 C6         6.6913    9.2040    7.7203 C.ar      1 RES1    0.0000
     12 C7         6.5193   10.1250    6.5517 C.3       1 RES1    0.0000
     13 H6         6.1785    9.6139    5.8026 H         1 RES1    0.0000
     14 H7         5.8503   10.7905    6.7788 H         1 RES1    0.0000
     15 C8         7.8950   12.1696    6.2266 C.2       1 RES1    0.0000
     16 C9         9.2618   12.5397    5.5700 C.3       1 RES1    0.0000
     17 C10        9.7632   11.1838    5.1230 C.ar      1 RES1    0.0000
     18 C11       10.9105   10.8221    4.4627 C.ar      1 RES1    0.0000
     19 H8        11.5430   11.4643    4.2347 H         1 RES1    0.0000
     20 C12       11.1142    9.4961    4.1404 C.ar      1 RES1    0.0000
     21 H9        11.8865    9.2438    3.6880 H         1 RES1    0.0000
     22 C13       10.1778    8.5435    4.4856 C.ar      1 RES1    0.0000
     23 H10       10.3222    7.6539    4.2567 H         1 RES1    0.0000
     24 C14        9.0227    8.8936    5.1697 C.ar      1 RES1    0.0000
     25 H11        8.3926    8.2514    5.4088 H         1 RES1    0.0000
     26 C15        8.8358   10.2163    5.4820 C.ar      1 RES1    0.0000
     27 C16       10.2721   13.2012    6.5535 C.3       1 RES1    0.0000
     28 H12       11.1186   13.3297    6.0755 H         1 RES1    0.0000
     29 C17       10.5574   12.3538    7.7908 C.2       1 RES1    0.0000
     30 C18       11.9625   12.1378    8.2267 C.ar      1 RES1    0.0000
     31 C19       13.0540   12.2841    7.3851 C.ar      1 RES1    0.0000
     32 H13       12.9192   12.5447    6.5032 H         1 RES1    0.0000
     33 C20       14.3398   12.0485    7.8357 C.ar      1 RES1    0.0000
     34 H14       15.0567   12.1331    7.2486 H         1 RES1    0.0000
     35 C21       14.5697   11.6884    9.1380 C.ar      1 RES1    0.0000
     36 C22       15.9822   11.4643    9.6343 C.3       1 RES1    0.0000
     37 H15       16.3366   10.6644    9.2396 H         1 RES1    0.0000
     38 H16       15.9756   11.3730   10.5895 H         1 RES1    0.0000
     39 H17       16.5313   12.2128    9.3880 H         1 RES1    0.0000
     40 C23       13.4764   11.5158    9.9658 C.ar      1 RES1    0.0000
     41 H18       13.6127   11.2403   10.8432 H         1 RES1    0.0000
     42 C24       12.1983   11.7365    9.5272 C.ar      1 RES1    0.0000
     43 H19       11.4840   11.6170   10.1105 H         1 RES1    0.0000
     44 C25        9.6350   17.8271    6.9977 C.ar      1 RES1    0.0000
     45 H20       10.5651   17.8238    7.0005 H         1 RES1    0.0000
     46 C26        8.9579   18.8594    7.6113 C.ar      1 RES1    0.0000
     47 H21        9.4230   19.5365    8.0481 H         1 RES1    0.0000
     48 C27        7.5837   18.8710    7.5655 C.ar      1 RES1    0.0000
     49 C28        6.8849   17.8885    6.9025 C.ar      1 RES1    0.0000
     50 H22        5.9575   17.9283    6.8512 H         1 RES1    0.0000
     51 C29        7.5680   16.8496    6.3154 C.ar      1 RES1    0.0000
     52 H23        7.0974   16.1808    5.8731 H         1 RES1    0.0000
     53 C30        8.9494   16.7924    6.3759 C.ar      1 RES1    0.0000
     54 C31        9.7241   15.5905    5.8914 C.3       1 RES1    0.0000
     55 H24       10.6373   15.8804    5.6872 H         1 RES1    0.0000
     56 C32        9.7917   14.5709    7.0371 C.3       1 RES1    0.0000
     57 H25       10.3966   14.8980    7.7212 H         1 RES1    0.0000
     58 H26        8.9111   14.4781    7.4355 H         1 RES1    0.0000
     59 C33        8.2768   12.0402    2.5743 C.3       1 RES1    0.0000
     60 H27        9.0861   11.6220    2.2730 H         1 RES1    0.0000
     61 H28        7.6946   12.1879    1.8243 H         1 RES1    0.0000
     62 H29        7.8390   11.4709    3.2117 H         1 RES1    0.0000
     63 C34        9.0279   13.5819    4.4920 C.2       1 RES1    0.0000
     64 C35        9.1596   14.9260    4.6670 C.2       1 RES1    0.0000
     65 C36        8.7929   15.5601    3.4389 C.ar      1 RES1    0.0000
     66 C37        8.7061   16.8944    3.0094 C.ar      1 RES1    0.0000
     67 H30        8.9023   17.5948    3.5900 H         1 RES1    0.0000
     68 C38        8.3245   17.1417    1.7135 C.ar      1 RES1    0.0000
     69 H31        8.2525   18.0213    1.4186 H         1 RES1    0.0000
     70 C39        8.0438   16.1045    0.8380 C.ar      1 RES1    0.0000
     71 H32        7.8040   16.3053   -0.0385 H         1 RES1    0.0000
     72 C40        8.1110   14.7917    1.2254 C.ar      1 RES1    0.0000
     73 H33        7.9309   14.1014    0.6282 H         1 RES1    0.0000
     74 C41        8.4602   14.5279    2.5505 C.ar      1 RES1    0.0000
     75 N1         7.7384   10.8164    6.1277 N.am      1 RES1    0.0000
     76 N2         6.8654   19.9165    8.2872 N.pl3     1 RES1    0.0000
     77 N3         8.5925   13.3132    3.1980 N.pl3     1 RES1    0.0000
     78 O1         7.0877   12.9473    6.7074 O.2       1 RES1    0.0000
     79 O2         9.6285   11.9353    8.4493 O.2       1 RES1    0.0000
     80 O3         5.6494   19.9281    8.2496 O.2       1 RES1    0.0000
     81 O4         7.5170   20.7363    8.9072 O.2       1 RES1    0.0000
@<TRIPOS>BOND
     1    1    2 1
     2    3    1 ar
     3    4    3 1
     4    5    3 ar
     5    6    5 1
     6    7    5 ar
     7    8    7 1
     8    9    7 ar
     9   10    9 1
    10   11    1 ar
    11   12   11 1
    12   13   12 1
    13   14   12 1
    14   15   16 1
    15   16   17 1
    16   17   18 ar
    17   18   19 1
    18   20   18 ar
    19   21   20 1
    20   22   20 ar
    21   23   22 1
    22   24   22 ar
    23   25   24 1
    24   26   17 ar
    25   27   16 1
    26   28   27 1
    27   29   27 1
    28   30   29 1
    29   31   30 ar
    30   32   31 1
    31   33   31 ar
    32   34   33 1
    33   35   33 ar
    34   36   35 1
    35   37   36 1
    36   38   36 1
    37   39   36 1
    38   40   35 ar
    39   41   40 1
    40   42   30 ar
    41   43   42 1
    42   44   45 1
    43   46   44 ar
    44   47   46 1
    45   48   46 ar
    46   49   48 ar
    47   50   49 1
    48   51   49 ar
    49   52   51 1
    50   53   44 ar
    51   54   53 1
    52   55   54 1
    53   56   27 1
    54   57   56 1
    55   58   56 1
    56   59   60 1
    57   61   59 1
    58   62   59 1
    59   63   16 1
    60   64   54 1
    61   65   64 1
    62   66   65 ar
    63   67   66 1
    64   68   66 ar
    65   69   68 1
    66   70   68 ar
    67   71   70 1
    68   72   70 ar
    69   73   72 1
    70   74   65 ar
    71   75   12 1
    72   76   48 1
    73   77   59 1
    74   78   15 2
    75   79   29 2
    76   80   76 2
    77   81   76 2
    78    9   11 ar
    79   15   75 1
    80   24   26 ar
    81   26   75 1
    82   40   42 ar
    83   51   53 ar
    84   54   56 1
    85   63   64 2
    86   63   77 1
    87   72   74 ar
    88   74   77 1
@<TRIPOS>SUBSTRUCTURE
     1 RES1 1

@<TRIPOS>CRYSIN
  21.8784   16.5957    9.1581  90.0000  90.0000  90.0000  33 1

