# MOL2 file generated by ConQuest
# Please check atom types

@<TRIPOS>MOLECULE
MENPDL
    18    17     1
SMALL
NO_CHARGES
****
Generated from CSD

@<TRIPOS>ATOM
      1 N1         1.4714    2.1818   -0.4254 N.pl3     1 RES1    0.0000
      2 C1         2.3043    2.2377   -1.6794 C.3       1 RES1    0.0000
      3 C2         1.8634    1.1350   -2.6073 C.3       1 RES1    0.0000
      4 C3         2.0668    3.6242   -2.2669 C.3       1 RES1    0.0000
      5 C4         3.7272    2.0973   -1.2441 C.3       1 RES1    0.0000
      6 O1         1.7117    2.9941    0.4398 O.2       1 RES1    0.0000
      7 O2         0.6143    1.3504   -0.3054 O.2       1 RES1    0.0000
      8 O3         0.6911    3.8937   -2.4049 O.3       1 RES1    0.0000
      9 O4         3.9813    0.9139   -0.5311 O.3       1 RES1    0.0000
     10 H1         2.3410    0.3321   -2.2571 H         1 RES1    0.0000
     11 H2         2.4772    1.3760   -3.4214 H         1 RES1    0.0000
     12 H3         1.1223    1.3001   -2.8840 H         1 RES1    0.0000
     13 H4         2.5090    3.5682   -3.1169 H         1 RES1    0.0000
     14 H5         2.5813    4.1376   -1.6570 H         1 RES1    0.0000
     15 H6         3.8794    2.6382   -0.7076 H         1 RES1    0.0000
     16 H7         4.2834    2.0309   -1.9794 H         1 RES1    0.0000
     17 H8         0.5821    3.9099   -3.3767 H         1 RES1    0.0000
     18 H9         4.2139    0.3227   -1.2002 H         1 RES1    0.0000
@<TRIPOS>BOND
     1    1    2 1
     2    2    3 1
     3    3   10 1
     4    4    2 1
     5    5    2 1
     6    6    1 2
     7    7    1 2
     8    8    4 1
     9    9    5 1
    10   11    3 1
    11   12    3 1
    12   13    4 1
    13   14    4 1
    14   15    5 1
    15   16    5 1
    16   17    8 1
    17   18    9 1
@<TRIPOS>SUBSTRUCTURE
     1 RES1 1

@<TRIPOS>CRYSIN
   8.0250    9.4900    8.9600  90.0000  91.5700  90.0000   9 1

