# MOL2 file generated by ConQuest
# Please check atom types

@<TRIPOS>MOLECULE
MENRON
    81    86     1
SMALL
NO_CHARGES
****
Generated from CSD

@<TRIPOS>ATOM
      1 O1         7.5111    7.5666    4.8736 O.2       1 RES1    0.0000
      2 O2         6.1570    8.2438    3.3768 O.2       1 RES1    0.0000
      3 O3        11.3453    7.3033    0.5997 O.2       1 RES1    0.0000
      4 O4        11.2781    8.3849   -1.2790 O.2       1 RES1    0.0000
      5 O5        10.2704    4.9294    0.4466 O.2       1 RES1    0.0000
      6 O6         9.5375    4.4817   -1.5273 O.2       1 RES1    0.0000
      7 O7        10.7987    6.3477   -2.9765 O.2       1 RES1    0.0000
      8 O8         8.8215    7.2365   -3.0733 O.2       1 RES1    0.0000
      9 N1        10.9199    7.5234   -0.5060 N.pl3     1 RES1    0.0000
     10 N2         9.8906    5.2322   -0.6590 N.pl3     1 RES1    0.0000
     11 N3         9.7670    6.7757   -2.4924 N.pl3     1 RES1    0.0000
     12 N4         7.2120    7.7595    3.7230 N.pl3     1 RES1    0.0000
     13 C1         8.6593    9.8127    2.4518 C.ar      1 RES1    0.0000
     14 H1         8.6222    9.8475    3.3810 H         1 RES1    0.0000
     15 C2         8.8798   10.9686    1.7522 C.ar      1 RES1    0.0000
     16 H2         8.9830   11.7746    2.2051 H         1 RES1    0.0000
     17 C3         8.9496   10.9375    0.3857 C.ar      1 RES1    0.0000
     18 H3         9.0965   11.7191   -0.0937 H         1 RES1    0.0000
     19 C4         8.7978    9.7336   -0.2717 C.ar      1 RES1    0.0000
     20 H4         8.8509    9.7111   -1.1994 H         1 RES1    0.0000
     21 C5         8.5689    8.5617    0.4248 C.ar      1 RES1    0.0000
     22 C6         6.8872    5.2651   -0.2873 C.ar      1 RES1    0.0000
     23 H5         6.9178    5.2633   -1.2181 H         1 RES1    0.0000
     24 C7         6.1735    4.2945    0.3576 C.ar      1 RES1    0.0000
     25 H6         5.7303    3.6380   -0.1296 H         1 RES1    0.0000
     26 C8         6.1180    4.2964    1.7256 C.ar      1 RES1    0.0000
     27 H7         5.6486    3.6295    2.1723 H         1 RES1    0.0000
     28 C9         6.7520    5.2802    2.4362 C.ar      1 RES1    0.0000
     29 H8         6.6956    5.2821    3.3638 H         1 RES1    0.0000
     30 C10        7.4757    6.2706    1.7990 C.ar      1 RES1    0.0000
     31 C11        8.2075    7.3315    2.5986 C.3       1 RES1    0.0000
     32 C12        8.4889    8.5956    1.8193 C.ar      1 RES1    0.0000
     33 C13        8.3651    7.2854   -0.3436 C.3       1 RES1    0.0000
     34 H9         7.8088    7.5300   -1.1119 H         1 RES1    0.0000
     35 C14        7.5699    6.2565    0.4123 C.ar      1 RES1    0.0000
     36 C15        9.4487    6.6929    3.2545 C.3       1 RES1    0.0000
     37 H10        9.1317    6.0712    3.9276 H         1 RES1    0.0000
     38 H11        9.8982    6.1681    2.5736 H         1 RES1    0.0000
     39 C16       10.4884    7.5685    3.9041 C.3       1 RES1    0.0000
     40 H12       10.9048    8.1366    3.2373 H         1 RES1    0.0000
     41 H13       10.0720    8.1366    4.5710 H         1 RES1    0.0000
     42 C17        9.6964    6.7239   -0.9557 C.3       1 RES1    0.0000
     43 O1B       13.4657    7.5666    2.9347 O.2       1 RES1    0.0000
     44 O2B       14.8198    8.2438    4.4315 O.2       1 RES1    0.0000
     45 O3B        9.6314    7.3033    7.2086 O.2       1 RES1    0.0000
     46 O4B        9.6987    8.3849    9.0873 O.2       1 RES1    0.0000
     47 O5B       10.7063    4.9294    7.3616 O.2       1 RES1    0.0000
     48 O6B       11.4392    4.4817    9.3356 O.2       1 RES1    0.0000
     49 O7B       10.1780    6.3477   10.7848 O.2       1 RES1    0.0000
     50 O8B       12.1553    7.2365   10.8816 O.2       1 RES1    0.0000
     51 N1B       10.0569    7.5234    8.3142 N.pl3     1 RES1    0.0000
     52 N2B       11.0862    5.2322    8.4673 N.pl3     1 RES1    0.0000
     53 N3B       11.2097    6.7757   10.3007 N.pl3     1 RES1    0.0000
     54 N4B       13.7648    7.7595    4.0853 N.pl3     1 RES1    0.0000
     55 C1B       12.3174    9.8127    5.3565 C.ar      1 RES1    0.0000
     56 H1B       12.3546    9.8475    4.4273 H         1 RES1    0.0000
     57 C2B       12.0969   10.9686    6.0561 C.ar      1 RES1    0.0000
     58 H2B       11.9938   11.7746    5.6032 H         1 RES1    0.0000
     59 C3B       12.0272   10.9375    7.4225 C.ar      1 RES1    0.0000
     60 H3B       11.8803   11.7191    7.9020 H         1 RES1    0.0000
     61 C4B       12.1789    9.7336    8.0800 C.ar      1 RES1    0.0000
     62 H4B       12.1259    9.7111    9.0076 H         1 RES1    0.0000
     63 C5B       12.4078    8.5617    7.3835 C.ar      1 RES1    0.0000
     64 C6B       14.0896    5.2651    8.0956 C.ar      1 RES1    0.0000
     65 H5B       14.0590    5.2633    9.0264 H         1 RES1    0.0000
     66 C7B       14.8033    4.2945    7.4507 C.ar      1 RES1    0.0000
     67 H6B       15.2464    3.6380    7.9379 H         1 RES1    0.0000
     68 C8B       14.8588    4.2964    6.0826 C.ar      1 RES1    0.0000
     69 H7B       15.3281    3.6295    5.6360 H         1 RES1    0.0000
     70 C9B       14.2248    5.2802    5.3721 C.ar      1 RES1    0.0000
     71 H8B       14.2811    5.2821    4.4445 H         1 RES1    0.0000
     72 C10B      13.5011    6.2706    6.0092 C.ar      1 RES1    0.0000
     73 C11B      12.7692    7.3315    5.2097 C.3       1 RES1    0.0000
     74 C12B      12.4879    8.5956    5.9889 C.ar      1 RES1    0.0000
     75 C13B      12.6117    7.2854    8.1518 C.3       1 RES1    0.0000
     76 H9B       13.1679    7.5300    8.9202 H         1 RES1    0.0000
     77 C14B      13.4068    6.2565    7.3960 C.ar      1 RES1    0.0000
     78 C15B      11.5280    6.6929    4.5538 C.3       1 RES1    0.0000
     79 H10B      11.8451    6.0712    3.8807 H         1 RES1    0.0000
     80 H11B      11.0785    6.1681    5.2347 H         1 RES1    0.0000
     81 C17B      11.2803    6.7239    8.7640 C.3       1 RES1    0.0000
@<TRIPOS>BOND
     1    1   12 2
     2    2   12 2
     3    3    9 2
     4    4    9 2
     5    5   10 2
     6    6   10 2
     7    7   11 2
     8    8   11 2
     9    9   42 1
    10   10   42 1
    11   11   42 1
    12   12   31 1
    13   13   14 1
    14   15   13 ar
    15   16   15 1
    16   17   15 ar
    17   18   17 1
    18   19   17 ar
    19   20   19 1
    20   21   19 ar
    21   22   23 1
    22   24   22 ar
    23   25   24 1
    24   26   24 ar
    25   27   26 1
    26   28   26 ar
    27   29   28 1
    28   30   28 ar
    29   31   30 1
    30   32   13 ar
    31   33   21 1
    32   34   33 1
    33   35   22 ar
    34   36   31 1
    35   37   36 1
    36   38   36 1
    37   39   36 1
    38   40   39 1
    39   41   39 1
    40   42   33 1
    41   43   54 2
    42   44   54 2
    43   45   51 2
    44   46   51 2
    45   47   52 2
    46   48   52 2
    47   49   53 2
    48   50   53 2
    49   51   81 1
    50   52   81 1
    51   53   81 1
    52   54   73 1
    53   55   56 1
    54   57   55 ar
    55   58   57 1
    56   59   57 ar
    57   60   59 1
    58   61   59 ar
    59   62   61 1
    60   63   61 ar
    61   64   65 1
    62   66   64 ar
    63   67   66 1
    64   68   66 ar
    65   69   68 1
    66   70   68 ar
    67   71   70 1
    68   72   70 ar
    69   73   72 1
    70   74   55 ar
    71   75   63 1
    72   76   75 1
    73   77   64 ar
    74   78   39 1
    75   79   78 1
    76   80   78 1
    77   81   75 1
    78   21   32 ar
    79   30   35 ar
    80   31   32 1
    81   33   35 1
    82   63   74 ar
    83   72   77 ar
    84   73   74 1
    85   73   78 1
    86   75   77 1
@<TRIPOS>SUBSTRUCTURE
     1 RES1 1

@<TRIPOS>CRYSIN
  23.3880    9.4054   16.3442  90.0000 107.1610  90.0000  15 1

