# MOL2 file generated by ConQuest
# Please check atom types

@<TRIPOS>MOLECULE
MENTCN
    53    56     1
SMALL
NO_CHARGES
****
Generated from CSD

@<TRIPOS>ATOM
      1 C1        -2.3120   -3.3650    8.2977 C.3       1 RES1    0.0000
      2 C2         2.7222    0.3074    9.7000 C.3       1 RES1    0.0000
      3 C3        -2.5739   -0.0118   10.3849 C.3       1 RES1    0.0000
      4 C4        -1.5357    0.5809   11.2856 C.3       1 RES1    0.0000
      5 C5        -1.3021   -0.7927   10.6905 C.3       1 RES1    0.0000
      6 C6        -0.6720   -1.0721    9.3182 C.3       1 RES1    0.0000
      7 C7        -1.8573   -0.8736    8.3463 C.3       1 RES1    0.0000
      8 C8        -2.9584   -1.9840    8.4037 C.3       1 RES1    0.0000
      9 C9        -3.8454   -1.9634    9.6887 C.3       1 RES1    0.0000
     10 C10       -3.8837   -0.7089   10.5795 C.3       1 RES1    0.0000
     11 C11       -2.3733    0.4147    8.9364 C.3       1 RES1    0.0000
     12 C12       -1.2434   -1.9163   11.6923 C.3       1 RES1    0.0000
     13 C13        0.5243   -0.2191    8.9938 C.2       1 RES1    0.0000
     14 C14       -3.8377   -1.8413    7.1511 C.3       1 RES1    0.0000
     15 C15       -3.8647    2.1913    8.4299 C.2       1 RES1    0.0000
     16 C16       -5.0337    2.5943    7.5928 C.ar      1 RES1    0.0000
     17 C17       -5.8274    1.6751    6.9378 C.ar      1 RES1    0.0000
     18 C18       -6.8670    2.0855    6.1406 C.ar      1 RES1    0.0000
     19 C19       -7.0829    3.4194    5.9847 C.ar      1 RES1    0.0000
     20 C20       -6.3258    4.3606    6.6309 C.ar      1 RES1    0.0000
     21 C21       -5.2983    3.9400    7.4343 C.ar      1 RES1    0.0000
     22 N1        -8.1607    3.8621    5.0777 N.pl3     1 RES1    0.0000
     23 O1         1.5000   -0.4368    9.8871 O.3       1 RES1    0.0000
     24 O2         0.6402    0.5456    8.0893 O.2       1 RES1    0.0000
     25 O3        -3.5851    0.8927    8.2902 O.3       1 RES1    0.0000
     26 O4        -3.2388    2.9473    9.1148 O.2       1 RES1    0.0000
     27 O5        -8.4031    5.0430    5.0041 O.2       1 RES1    0.0000
     28 O6        -8.7272    3.0135    4.4127 O.2       1 RES1    0.0000
     29 H1         3.1964    0.1324   10.4834 H         1 RES1    0.0000
     30 H2         2.6009    1.1942    9.4068 H         1 RES1    0.0000
     31 H3         3.1233    0.0324    8.9115 H         1 RES1    0.0000
     32 H4        -1.0906    1.3001   10.9188 H         1 RES1    0.0000
     33 H5        -1.6397    0.5309   12.2126 H         1 RES1    0.0000
     34 H6        -0.3130   -1.9296    9.3145 H         1 RES1    0.0000
     35 H7        -1.5525   -0.8015    7.4630 H         1 RES1    0.0000
     36 H8        -3.5497   -2.7208   10.3000 H         1 RES1    0.0000
     37 H9        -4.6628   -2.1825    9.4916 H         1 RES1    0.0000
     38 H10       -4.0540   -0.9280   11.6237 H         1 RES1    0.0000
     39 H11       -4.6657   -0.0912   10.3861 H         1 RES1    0.0000
     40 H12       -1.6537    1.1824    8.8117 H         1 RES1    0.0000
     41 H13       -1.4725   -2.8487   11.2707 H         1 RES1    0.0000
     42 H14       -1.8710   -1.7060   12.4222 H         1 RES1    0.0000
     43 H15       -0.3677   -1.9634   11.9918 H         1 RES1    0.0000
     44 H16       -1.8798   -3.6238    9.0986 H         1 RES1    0.0000
     45 H17       -1.7441   -3.4517    7.3919 H         1 RES1    0.0000
     46 H18       -2.9809   -4.0165    8.2815 H         1 RES1    0.0000
     47 H19       -4.3148   -1.0001    7.1312 H         1 RES1    0.0000
     48 H20       -4.4207   -2.5296    7.1187 H         1 RES1    0.0000
     49 H21       -3.2598   -1.9325    6.2953 H         1 RES1    0.0000
     50 H22       -5.6650    0.7589    7.0875 H         1 RES1    0.0000
     51 H23       -7.4514    1.4633    5.7039 H         1 RES1    0.0000
     52 H24       -6.4832    5.2828    6.4612 H         1 RES1    0.0000
     53 H25       -4.7907    4.5665    7.8984 H         1 RES1    0.0000
@<TRIPOS>BOND
     1    1    8 1
     2    2   23 1
     3    3    4 1
     4    4    5 1
     5    5    3 1
     6    6    5 1
     7    7    6 1
     8    8    7 1
     9    9    8 1
    10   10    3 1
    11   11    3 1
    12   12    5 1
    13   13    6 1
    14   14    8 1
    15   15   16 1
    16   16   17 ar
    17   17   18 ar
    18   18   19 ar
    19   19   20 ar
    20   20   21 ar
    21   21   16 ar
    22   22   19 1
    23   23   13 1
    24   24   13 2
    25   25   11 1
    26   26   15 2
    27   27   22 2
    28   28   22 2
    29   29    2 1
    30   30    2 1
    31   31    2 1
    32   32    4 1
    33   33    4 1
    34   34    6 1
    35   35    7 1
    36   36    9 1
    37   37    9 1
    38   38   10 1
    39   39   10 1
    40   40   11 1
    41   41   12 1
    42   42   12 1
    43   43   12 1
    44   44    1 1
    45   45    1 1
    46   46    1 1
    47   47   14 1
    48   48   14 1
    49   49   14 1
    50   50   17 1
    51   51   18 1
    52   52   20 1
    53   53   21 1
    54    7   11 1
    55    9   10 1
    56   15   25 1
@<TRIPOS>SUBSTRUCTURE
     1 RES1 1

@<TRIPOS>CRYSIN
  10.5730   14.7070   13.4940  90.0000 112.4000  90.0000 231 1

