# MOL2 file generated by ConQuest
# Please check atom types

@<TRIPOS>MOLECULE
MENXIP
    35    39     1
SMALL
NO_CHARGES
****
Generated from CSD

@<TRIPOS>ATOM
      1 N1         7.0903    1.7053    7.3276 N.ar      1 RES1    0.0000
      2 C1         4.2363    5.4281    3.2459 C.ar      1 RES1    0.0000
      3 H1         3.6059    6.1367    3.1947 H         1 RES1    0.0000
      4 N2         9.8404    1.6731    9.6131 N.2       1 RES1    0.0000
      5 O1        10.1044    2.8362    8.7989 O.3       1 RES1    0.0000
      6 C2         5.3260    5.5284    4.1047 C.ar      1 RES1    0.0000
      7 H2         5.4320    6.3049    4.6416 H         1 RES1    0.0000
      8 C3         6.0886    3.3656    3.3839 C.ar      1 RES1    0.0000
      9 H3         6.7233    2.6593    3.4204 H         1 RES1    0.0000
     10 C4         4.9943    3.2628    2.5359 C.ar      1 RES1    0.0000
     11 H4         4.8774    2.4857    2.0024 H         1 RES1    0.0000
     12 C5         4.0693    4.2989    2.4675 C.ar      1 RES1    0.0000
     13 H5         3.3219    4.2305    1.8850 H         1 RES1    0.0000
     14 C6         6.2657    4.4978    4.1846 C.ar      1 RES1    0.0000
     15 C7         7.4587    4.6548    5.0595 C.ar      1 RES1    0.0000
     16 C8         8.2650    5.7396    4.8836 C.ar      1 RES1    0.0000
     17 H6         8.0231    6.3828    4.2276 H         1 RES1    0.0000
     18 C9         9.4552    5.9531    5.6394 C.ar      1 RES1    0.0000
     19 C10        8.7444    1.1389    9.1624 C.2       1 RES1    0.0000
     20 H7         8.3456    0.3528    9.5169 H         1 RES1    0.0000
     21 C11        9.1113    2.9227    7.8846 C.ar      1 RES1    0.0000
     22 C12        8.2170    1.8860    8.0641 C.ar      1 RES1    0.0000
     23 C13        6.9127    2.6045    6.3823 C.ar      1 RES1    0.0000
     24 H8         6.1370    2.5156    5.8412 H         1 RES1    0.0000
     25 C14        7.7820    3.7033    6.0968 C.ar      1 RES1    0.0000
     26 C15        8.9463    3.9046    6.8823 C.ar      1 RES1    0.0000
     27 C16        9.8238    5.0235    6.6439 C.ar      1 RES1    0.0000
     28 C17       11.0164    5.2431    7.3690 C.ar      1 RES1    0.0000
     29 H9        11.2832    4.6246    8.0391 H         1 RES1    0.0000
     30 C18       11.7925    6.3473    7.1090 C.ar      1 RES1    0.0000
     31 H10       12.5903    6.4865    7.6055 H         1 RES1    0.0000
     32 C19       11.4248    7.2697    6.1242 C.ar      1 RES1    0.0000
     33 H11       11.9655    8.0341    5.9631 H         1 RES1    0.0000
     34 C20       10.2794    7.0695    5.3889 C.ar      1 RES1    0.0000
     35 H12       10.0422    7.6877    4.7075 H         1 RES1    0.0000
@<TRIPOS>BOND
     1    1   22 ar
     2    2    3 1
     3    4    5 1
     4    5   21 1
     5    6    2 ar
     6    7    6 1
     7    8    9 1
     8   10    8 ar
     9   11   10 1
    10   12    2 ar
    11   13   12 1
    12   14    6 ar
    13   15   14 1
    14   16   15 ar
    15   17   16 1
    16   18   16 ar
    17   19    4 2
    18   20   19 1
    19   21   22 ar
    20   22   19 1
    21   23    1 ar
    22   24   23 1
    23   25   15 ar
    24   26   21 ar
    25   27   18 ar
    26   28   27 ar
    27   29   28 1
    28   30   28 ar
    29   31   30 1
    30   32   30 ar
    31   33   32 1
    32   34   18 ar
    33   35   34 1
    34    8   14 ar
    35   10   12 ar
    36   23   25 ar
    37   25   26 ar
    38   26   27 ar
    39   32   34 ar
@<TRIPOS>SUBSTRUCTURE
     1 RES1 1

@<TRIPOS>CRYSIN
  14.6271    6.0839   17.5340  90.0000  90.8030  90.0000 231 1

