# MOL2 file generated by ConQuest
# Please check atom types

@<TRIPOS>MOLECULE
MEOBZC
    46    48     1
SMALL
NO_CHARGES
****
Generated from CSD

@<TRIPOS>ATOM
      1 C1         4.0653    6.3091    3.7657 C.3       1 RES1    0.0000
      2 H1         4.9120    6.3252    4.3095 H         1 RES1    0.0000
      3 C2         2.9920    7.0180    4.5810 C.ar      1 RES1    0.0000
      4 C3         3.2683    8.2549    5.1201 C.ar      1 RES1    0.0000
      5 H2         4.1527    8.6143    5.0041 H         1 RES1    0.0000
      6 C4         2.3468    8.9256    5.9046 C.ar      1 RES1    0.0000
      7 H3         2.5641    9.8392    6.2748 H         1 RES1    0.0000
      8 C5         1.1263    8.3392    6.1627 C.ar      1 RES1    0.0000
      9 H4         0.4453    8.8352    6.6773 H         1 RES1    0.0000
     10 C6         0.8360    7.1224    5.6371 C.ar      1 RES1    0.0000
     11 H5        -0.0063    6.7469    5.7854 H         1 RES1    0.0000
     12 C7         1.7592    6.4537    4.8430 C.ar      1 RES1    0.0000
     13 H6         1.5607    5.5220    4.5068 H         1 RES1    0.0000
     14 C8         3.7520    4.8754    3.4160 C.ar      1 RES1    0.0000
     15 C9         4.1268    3.9176    4.3734 C.ar      1 RES1    0.0000
     16 H7         4.5937    4.2570    5.1777 H         1 RES1    0.0000
     17 C10        3.8622    2.5783    4.2148 C.ar      1 RES1    0.0000
     18 O1         4.1957    1.5923    5.0917 O.3       1 RES1    0.0000
     19 C11        4.8862    1.9578    6.2716 C.3       1 RES1    0.0000
     20 H8         5.7045    2.3895    6.1012 H         1 RES1    0.0000
     21 H9         4.2274    2.5502    6.8194 H         1 RES1    0.0000
     22 H10        5.0152    1.1044    6.7326 H         1 RES1    0.0000
     23 C12        3.1929    2.1646    3.0664 C.ar      1 RES1    0.0000
     24 O2         2.9703    0.8092    2.9780 O.3       1 RES1    0.0000
     25 C13        2.3749    0.3193    1.7925 C.3       1 RES1    0.0000
     26 H11        1.4463    0.6225    1.9101 H         1 RES1    0.0000
     27 H12        3.0053    0.4618    0.9392 H         1 RES1    0.0000
     28 H13        2.3475   -0.6024    1.9495 H         1 RES1    0.0000
     29 C14        2.8337    3.0843    2.1247 C.ar      1 RES1    0.0000
     30 H14        2.3416    2.8112    1.3339 H         1 RES1    0.0000
     31 C15        3.0990    4.4658    2.2708 C.ar      1 RES1    0.0000
     32 C16        2.7554    5.3594    1.0947 C.3       1 RES1    0.0000
     33 H15        1.9919    4.9397    0.5762 H         1 RES1    0.0000
     34 H16        2.4163    6.1846    1.3734 H         1 RES1    0.0000
     35 C17        3.9589    5.5742    0.1508 C.3       1 RES1    0.0000
     36 H17        4.5233    4.7188    0.0947 H         1 RES1    0.0000
     37 H18        3.5790    5.6425   -0.6709 H         1 RES1    0.0000
     38 C18        4.8877    6.7248    0.4744 C.3       1 RES1    0.0000
     39 H19        5.6822    6.7268   -0.1105 H         1 RES1    0.0000
     40 H20        4.4114    7.6304    0.2999 H         1 RES1    0.0000
     41 N1         5.3934    6.6806    1.8438 N.3       1 RES1    0.0000
     42 C19        6.4350    7.6866    2.0363 C.3       1 RES1    0.0000
     43 H21        6.1225    8.5742    1.6733 H         1 RES1    0.0000
     44 H22        6.6419    7.6906    3.0703 H         1 RES1    0.0000
     45 H23        7.1912    7.3894    1.4996 H         1 RES1    0.0000
     46 O3         4.2603    7.1625    2.6291 O.3       1 RES1    0.0000
@<TRIPOS>BOND
     1    1    2 1
     2    3    1 1
     3    4    3 ar
     4    5    4 1
     5    6    4 ar
     6    7    6 1
     7    8    6 ar
     8    9    8 1
     9   10    8 ar
    10   11   10 1
    11   12    3 ar
    12   13   12 1
    13   14    1 1
    14   15   14 ar
    15   16   15 1
    16   17   15 ar
    17   18   17 1
    18   19   18 1
    19   20   19 1
    20   21   19 1
    21   22   19 1
    22   23   17 ar
    23   24   23 1
    24   25   24 1
    25   26   25 1
    26   27   25 1
    27   28   25 1
    28   29   23 ar
    29   30   29 1
    30   31   14 ar
    31   32   31 1
    32   33   32 1
    33   34   32 1
    34   35   32 1
    35   36   35 1
    36   37   35 1
    37   38   35 1
    38   39   38 1
    39   40   38 1
    40   41   38 1
    41   42   41 1
    42   43   42 1
    43   44   42 1
    44   45   42 1
    45   46    1 1
    46   10   12 ar
    47   29   31 ar
    48   41   46 1
@<TRIPOS>SUBSTRUCTURE
     1 RES1 1

@<TRIPOS>CRYSIN
  11.0200   20.0800    7.9080  90.0000  93.5500  90.0000 231 1

