# MOL2 file generated by ConQuest
# Please check atom types

@<TRIPOS>MOLECULE
MEPFOD
    76    76     2
SMALL
USER_CHARGES
****
Generated from CSD

@<TRIPOS>ATOM
      1 O1         8.5205   21.0494    8.6687 O.2       1 RES1   -1.0000
      2 O2        14.6423   22.0250    9.1750 O.2       1 RES1    0.0000
      3 O3        13.9414   24.0406    8.8981 O.2       1 RES1    0.0000
      4 O4         6.6123   -1.8964    8.9004 O.2       2 RES2   -1.0000
      5 O5         1.2112   -4.9332    9.1573 O.2       2 RES2    0.0000
      6 O6         0.4813   -2.8974    9.0014 O.2       2 RES2    0.0000
      7 N1         9.4792   18.5493    8.9663 N.pl3     1 RES1    1.0000
      8 N2        10.2538   17.1337    6.5790 N.3       1 RES1    0.0000
      9 N3        13.7375   22.8451    8.9856 N.pl3     1 RES1    0.0000
     10 N4         5.6365    0.6001    8.9688 N.pl3     2 RES2    1.0000
     11 N5         4.9185    1.9492    6.5263 N.3       2 RES2    0.0000
     12 N6         1.4058   -3.7179    9.0496 N.pl3     2 RES2    0.0000
     13 C1        10.8193   20.5632    8.8689 C.ar      1 RES1    0.0000
     14 C2         9.7081   21.4560    8.7136 C.ar      1 RES1    0.0000
     15 C3        10.0434   22.8471    8.6292 C.ar      1 RES1    0.0000
     16 H1         9.3622   23.4695    8.5139 H         1 RES1    0.0000
     17 C4        11.3243   23.2840    8.7134 C.ar      1 RES1    0.0000
     18 H2        11.5084   24.1929    8.6546 H         1 RES1    0.0000
     19 C5        12.3725   22.3669    8.8880 C.ar      1 RES1    0.0000
     20 C6        12.1371   21.0267    8.9522 C.ar      1 RES1    0.0000
     21 H3        12.8420   20.4276    9.0513 H         1 RES1    0.0000
     22 C7        10.6221   19.1499    8.9424 C.2       1 RES1    0.0000
     23 H4        11.3835   18.6161    8.9758 H         1 RES1    0.0000
     24 C8         9.3648   17.1065    8.8645 C.3       1 RES1    0.0000
     25 H5         8.6205   16.7963    9.4040 H         1 RES1    0.0000
     26 H6        10.1749   16.6871    9.1941 H         1 RES1    0.0000
     27 C9         9.1413   16.7252    7.4161 C.3       1 RES1    0.0000
     28 H7         9.0282   15.7638    7.3531 H         1 RES1    0.0000
     29 H8         8.3285   17.1446    7.0971 H         1 RES1    0.0000
     30 C10        9.7975   17.5403    5.2498 C.3       1 RES1    0.0000
     31 H9         9.1939   16.8643    4.9014 H         1 RES1    0.0000
     32 H10       10.5603   17.5918    4.6537 H         1 RES1    0.0000
     33 C11        9.0952   18.8634    5.2708 C.3       1 RES1    0.0000
     34 H11        8.3220   18.8078    5.8376 H         1 RES1    0.0000
     35 H12        8.8230   19.0942    4.3787 H         1 RES1    0.0000
     36 H13        9.6910   19.5373    5.6088 H         1 RES1    0.0000
     37 C12       11.2901   16.0977    6.5303 C.3       1 RES1    0.0000
     38 H14       10.9495   15.3372    6.0328 H         1 RES1    0.0000
     39 H15       11.4782   15.7989    7.4329 H         1 RES1    0.0000
     40 C13       12.5802   16.5635    5.8880 C.3       1 RES1    0.0000
     41 H16       12.4251   16.7613    4.9623 H         1 RES1    0.0000
     42 H17       13.2417   15.8710    5.9614 H         1 RES1    0.0000
     43 H18       12.8932   17.3528    6.3372 H         1 RES1    0.0000
     44 C14        4.3030   -1.4094    8.9247 C.ar      2 RES2    0.0000
     45 C15        5.4195   -2.3103    8.9184 C.ar      2 RES2    0.0000
     46 C16        5.1026   -3.7076    8.9590 C.ar      2 RES2    0.0000
     47 H19        5.7943   -4.3300    8.9632 H         2 RES2    0.0000
     48 C17        3.8217   -4.1424    8.9957 C.ar      2 RES2    0.0000
     49 H20        3.6441   -5.0533    9.0345 H         2 RES2    0.0000
     50 C18        2.7630   -3.2274    8.9755 C.ar      2 RES2    0.0000
     51 C19        3.0024   -1.8837    8.9438 C.ar      2 RES2    0.0000
     52 H21        2.2896   -1.2860    8.9359 H         2 RES2    0.0000
     53 C20        4.4990   -0.0021    8.9241 C.2       2 RES2    0.0000
     54 H22        3.7375    0.5317    8.8876 H         2 RES2    0.0000
     55 C21        5.7680    2.0419    8.8204 C.3       2 RES2    0.0000
     56 H23        6.5058    2.3618    9.3641 H         2 RES2    0.0000
     57 H24        4.9566    2.4772    9.1248 H         2 RES2    0.0000
     58 C22        6.0192    2.3832    7.3800 C.3       2 RES2    0.0000
     59 H25        6.1336    3.3428    7.2923 H         2 RES2    0.0000
     60 H26        6.8385    1.9558    7.0866 H         2 RES2    0.0000
     61 C23        3.8782    2.9801    6.4421 C.3       2 RES2    0.0000
     62 H27        4.1689    3.6746    5.8313 H         2 RES2    0.0000
     63 H28        3.7572    3.3819    7.3154 H         2 RES2    0.0000
     64 C24        2.5644    2.4236    5.9677 C.3       2 RES2    0.0000
     65 H29        2.6420    2.1578    5.0483 H         2 RES2    0.0000
     66 H30        1.8832    3.0955    6.0496 H         2 RES2    0.0000
     67 H31        2.3264    1.6611    6.5009 H         2 RES2    0.0000
     68 C25        5.3735    1.4900    5.2184 C.3       2 RES2    0.0000
     69 H32        5.9732    2.1516    4.8384 H         2 RES2    0.0000
     70 H33        4.6081    1.4076    4.6264 H         2 RES2    0.0000
     71 C26        6.0810    0.1690    5.2918 C.3       2 RES2    0.0000
     72 H34        6.9069    0.2762    5.7683 H         2 RES2    0.0000
     73 H35        6.2612   -0.1463    4.4018 H         2 RES2    0.0000
     74 H36        5.5261   -0.4658    5.7494 H         2 RES2    0.0000
     75 H37        6.4243    0.1566    8.9485 H         2 RES2    0.0000
     76 H38        8.7507   19.0798    8.9086 H         1 RES1    0.0000
@<TRIPOS>BOND
     1    1   14 1
     2    2    9 2
     3    3    9 2
     4    4   45 1
     5    5   12 2
     6    6   12 2
     7    7   22 2
     8    8   27 1
     9    9   19 1
    10   10   53 2
    11   11   58 1
    12   12   50 1
    13   13   14 ar
    14   14   15 ar
    15   15   16 1
    16   17   15 ar
    17   18   17 1
    18   19   17 ar
    19   20   13 ar
    20   21   20 1
    21   22   13 1
    22   23   22 1
    23   24    7 1
    24   25   24 1
    25   26   24 1
    26   27   24 1
    27   28   27 1
    28   29   27 1
    29   30    8 1
    30   31   30 1
    31   32   30 1
    32   33   30 1
    33   34   33 1
    34   35   33 1
    35   36   33 1
    36   37    8 1
    37   38   37 1
    38   39   37 1
    39   40   37 1
    40   41   40 1
    41   42   40 1
    42   43   40 1
    43   44   45 ar
    44   45   46 ar
    45   46   47 1
    46   48   46 ar
    47   49   48 1
    48   50   48 ar
    49   51   44 ar
    50   52   51 1
    51   53   44 1
    52   54   53 1
    53   55   10 1
    54   56   55 1
    55   57   55 1
    56   58   55 1
    57   59   58 1
    58   60   58 1
    59   61   11 1
    60   62   61 1
    61   63   61 1
    62   64   61 1
    63   65   64 1
    64   66   64 1
    65   67   64 1
    66   68   11 1
    67   69   68 1
    68   70   68 1
    69   71   68 1
    70   72   71 1
    71   73   71 1
    72   74   71 1
    73   75   10 1
    74   76    7 1
    75   19   20 ar
    76   50   51 ar
@<TRIPOS>SUBSTRUCTURE
     1 RES1 1
     2 RES2 4

@<TRIPOS>CRYSIN
  13.1510   20.6090   20.9910  90.0000  90.0000  90.0000  61 1

