# MOL2 file generated by ConQuest
# Please check atom types

@<TRIPOS>MOLECULE
MEPHOX
    28    28     1
SMALL
NO_CHARGES
****
Generated from CSD

@<TRIPOS>ATOM
      1 C1         6.6323    2.9726    1.9440 C.ar      1 RES1    0.0000
      2 C2         5.2475    2.7603    1.8680 C.ar      1 RES1    0.0000
      3 C3         4.3964    3.8472    2.0106 C.ar      1 RES1    0.0000
      4 C4         4.8675    5.1298    2.2166 C.ar      1 RES1    0.0000
      5 C5         6.2301    5.3161    2.2793 C.ar      1 RES1    0.0000
      6 C6         7.1340    4.2709    2.1351 C.ar      1 RES1    0.0000
      7 C7         7.5690    1.8196    1.8187 C.2       1 RES1    0.0000
      8 C8         8.3879    1.6682    0.5718 C.3       1 RES1    0.0000
      9 C9         4.6686    1.3845    1.6284 C.3       1 RES1    0.0000
     10 C10        3.9115    6.2881    2.3740 C.3       1 RES1    0.0000
     11 C11        8.6069    4.5511    2.1947 C.3       1 RES1    0.0000
     12 N1         7.5764    1.0007    2.7907 N.2       1 RES1    0.0000
     13 O1         8.4553   -0.0879    2.6059 O.3       1 RES1    0.0000
     14 H1         8.2987   -0.5569    3.3288 H         1 RES1    0.0000
     15 H2         3.4598    3.6809    1.9816 H         1 RES1    0.0000
     16 H3         6.5796    6.1958    2.4046 H         1 RES1    0.0000
     17 H4         7.7951    1.4793   -0.0862 H         1 RES1    0.0000
     18 H5         8.9417    0.9485    0.5953 H         1 RES1    0.0000
     19 H6         8.6857    2.5410    0.2663 H         1 RES1    0.0000
     20 H7         5.2285    0.8354    1.1044 H         1 RES1    0.0000
     21 H8         3.7517    1.3923    1.3629 H         1 RES1    0.0000
     22 H9         4.7909    0.7832    2.4672 H         1 RES1    0.0000
     23 H10        3.0159    5.9783    2.3341 H         1 RES1    0.0000
     24 H11        4.1025    6.9007    1.6683 H         1 RES1    0.0000
     25 H12        4.2274    6.8572    2.9763 H         1 RES1    0.0000
     26 H13        9.0982    3.8985    2.5534 H         1 RES1    0.0000
     27 H14        8.8034    5.3517    2.7727 H         1 RES1    0.0000
     28 H15        8.9690    4.6817    1.3080 H         1 RES1    0.0000
@<TRIPOS>BOND
     1    1    2 ar
     2    2    3 ar
     3    3    4 ar
     4    4    5 ar
     5    5    6 ar
     6    6    1 ar
     7    7    1 1
     8    8    7 1
     9    9    2 1
    10   10    4 1
    11   11    6 1
    12   12    7 2
    13   13   12 1
    14   14   13 1
    15   15    3 1
    16   16    5 1
    17   17    8 1
    18   18    8 1
    19   19    8 1
    20   20    9 1
    21   21    9 1
    22   22    9 1
    23   23   10 1
    24   24   10 1
    25   25   10 1
    26   26   11 1
    27   27   11 1
    28   28   11 1
@<TRIPOS>SUBSTRUCTURE
     1 RES1 1

@<TRIPOS>CRYSIN
  15.5160    8.7020    7.8520  90.0000  94.0400  90.0000  14 2

