# MOL2 file generated by ConQuest
# Please check atom types

@<TRIPOS>MOLECULE
MEPPUV
    52    55     1
SMALL
NO_CHARGES
****
Generated from CSD

@<TRIPOS>ATOM
      1 H1         6.6575    6.1665    3.7836 H         1 RES1    0.0000
      2 N1         6.9638    6.8259    3.3431 N.pl3     1 RES1    0.0000
      3 C1         6.6914    8.0969    1.3085 C.ar      1 RES1    0.0000
      4 C2         9.4864    8.1147    2.7761 C.2       1 RES1    0.0000
      5 H2         9.8734    8.3372    1.9605 H         1 RES1    0.0000
      6 C3         7.4270    9.1891    1.9257 C.2       1 RES1    0.0000
      7 O1         9.9720    5.8729    5.4627 O.2       1 RES1    0.0000
      8 C4         7.3810    7.9974    4.1229 C.3       1 RES1    0.0000
      9 C5         6.1995    8.1683    0.0167 C.ar      1 RES1    0.0000
     10 H3         6.2608    8.9632   -0.4618 H         1 RES1    0.0000
     11 C6         8.2377    8.8685    3.1712 C.3       1 RES1    0.0000
     12 C7         8.2622    7.4894    5.2556 C.3       1 RES1    0.0000
     13 H4         8.5380    8.2433    5.8001 H         1 RES1    0.0000
     14 H5         7.7401    6.8949    5.8170 H         1 RES1    0.0000
     15 C8        10.0838    7.1614    3.4884 C.2       1 RES1    0.0000
     16 C9         6.5314    6.9127    2.0612 C.ar      1 RES1    0.0000
     17 N2         7.4896   10.3817    1.4926 N.2       1 RES1    0.0000
     18 C10        9.4855    6.7594    4.7816 C.2       1 RES1    0.0000
     19 C11        5.6214    7.0656   -0.5558 C.ar      1 RES1    0.0000
     20 C12       11.3604    6.4640    3.0656 C.3       1 RES1    0.0000
     21 H6        11.2842    5.5312    3.3576 H         1 RES1    0.0000
     22 C13        5.9303    5.8066    1.4381 C.ar      1 RES1    0.0000
     23 H7         5.8246    5.0141    1.9129 H         1 RES1    0.0000
     24 C14        8.5785   10.2943    3.6412 C.3       1 RES1    0.0000
     25 H8         9.4990   10.3483    3.9421 H         1 RES1    0.0000
     26 H9         7.9951   10.5678    4.3659 H         1 RES1    0.0000
     27 C15        5.4993    5.8799    0.1450 C.ar      1 RES1    0.0000
     28 H10        5.1245    5.1340   -0.2642 H         1 RES1    0.0000
     29 C16        6.1498    8.7136    4.6705 C.3       1 RES1    0.0000
     30 H11        5.6386    9.0741    3.9421 H         1 RES1    0.0000
     31 H12        6.4265    9.4267    5.2505 H         1 RES1    0.0000
     32 H13        5.6103    8.0913    5.1628 H         1 RES1    0.0000
     33 N3         5.1921    7.1306   -1.9434 N.pl3     1 RES1    0.0000
     34 C17        8.3546   11.1794    2.3904 C.3       1 RES1    0.0000
     35 O2         4.7931    6.1047   -2.4785 O.2       1 RES1    0.0000
     36 C18       11.5725    6.4386    1.5640 C.3       1 RES1    0.0000
     37 H14       11.7270    7.3313    1.2471 H         1 RES1    0.0000
     38 H15       10.7912    6.0780    1.1372 H         1 RES1    0.0000
     39 H16       12.3321    5.8886    1.3570 H         1 RES1    0.0000
     40 O3         5.2647    8.1922   -2.5360 O.2       1 RES1    0.0000
     41 C19        9.6521   11.4705    1.6519 C.3       1 RES1    0.0000
     42 H17       10.0835   10.6432    1.4246 H         1 RES1    0.0000
     43 H18       10.2312   11.9895    2.2141 H         1 RES1    0.0000
     44 H19        9.4603   11.9616    0.8497 H         1 RES1    0.0000
     45 C20        7.6411   12.4781    2.7299 C.3       1 RES1    0.0000
     46 H20        7.4797   12.9746    1.9235 H         1 RES1    0.0000
     47 H21        8.1887   12.9987    3.3217 H         1 RES1    0.0000
     48 H22        6.8047   12.2814    3.1579 H         1 RES1    0.0000
     49 C21       12.5497    7.0499    3.7836 C.3       1 RES1    0.0000
     50 H23       12.7072    7.9427    3.4676 H         1 RES1    0.0000
     51 H24       13.3249    6.5098    3.6134 H         1 RES1    0.0000
     52 H25       12.3761    7.0707    4.7273 H         1 RES1    0.0000
@<TRIPOS>BOND
     1    1    2 1
     2    2    8 1
     3    3    6 1
     4    4    5 1
     5    6   11 1
     6    7   18 2
     7    8   11 1
     8    9    3 ar
     9   10    9 1
    10   11    4 1
    11   12    8 1
    12   13   12 1
    13   14   12 1
    14   15    4 2
    15   16    2 1
    16   17    6 2
    17   18   12 1
    18   19    9 ar
    19   20   15 1
    20   21   20 1
    21   22   16 ar
    22   23   22 1
    23   24   11 1
    24   25   24 1
    25   26   24 1
    26   27   19 ar
    27   28   27 1
    28   29    8 1
    29   30   29 1
    30   31   29 1
    31   32   29 1
    32   33   19 1
    33   34   17 1
    34   35   33 2
    35   36   20 1
    36   37   36 1
    37   38   36 1
    38   39   36 1
    39   40   33 2
    40   41   34 1
    41   42   41 1
    42   43   41 1
    43   44   41 1
    44   45   34 1
    45   46   45 1
    46   47   45 1
    47   48   45 1
    48   49   20 1
    49   50   49 1
    50   51   49 1
    51   52   49 1
    52    3   16 ar
    53   15   18 1
    54   22   27 ar
    55   24   34 1
@<TRIPOS>SUBSTRUCTURE
     1 RES1 1

@<TRIPOS>CRYSIN
   9.6761   10.5309   10.7363  80.8860  82.1000  64.5540   2 1

