# MOL2 file generated by ConQuest
# Please check atom types

@<TRIPOS>MOLECULE
MEPZUD
    31    33     1
SMALL
NO_CHARGES
****
Generated from CSD

@<TRIPOS>ATOM
      1 O1         1.5135    5.6721    4.8257 O.3       1 RES1    0.0000
      2 O2         5.0620    6.3745    6.9060 O.3       1 RES1    0.0000
      3 H1         4.9017    5.8164    6.3281 H         1 RES1    0.0000
      4 N1         1.7560    4.6269    3.9013 N.2       1 RES1    0.0000
      5 N2         3.6315    5.1187    5.0443 N.2       1 RES1    0.0000
      6 C1         5.7646    0.2684    1.0818 C.3       1 RES1    0.0000
      7 H2         5.1829   -0.0905    0.4075 H         1 RES1    0.0000
      8 H3         6.0368   -0.4334    1.6765 H         1 RES1    0.0000
      9 H4         6.5397    0.6517    0.6632 H         1 RES1    0.0000
     10 C2         5.0416    1.3251    1.8525 C.ar      1 RES1    0.0000
     11 C3         5.6723    2.0010    2.8862 C.ar      1 RES1    0.0000
     12 H5         6.5534    1.7900    3.0955 H         1 RES1    0.0000
     13 C4         5.0190    2.9858    3.6160 C.ar      1 RES1    0.0000
     14 H6         5.4596    3.4275    4.3052 H         1 RES1    0.0000
     15 C5         3.7132    3.3028    3.3104 C.ar      1 RES1    0.0000
     16 C6         3.0805    2.6341    2.2934 C.ar      1 RES1    0.0000
     17 H7         2.1972    2.8399    2.0896 H         1 RES1    0.0000
     18 C7         3.7394    1.6592    1.5653 C.ar      1 RES1    0.0000
     19 H8         3.2955    1.2247    0.8725 H         1 RES1    0.0000
     20 C8         3.0150    4.3512    4.0847 C.2       1 RES1    0.0000
     21 C9         2.6678    5.9018    5.4574 C.2       1 RES1    0.0000
     22 C10        2.7603    6.9346    6.4448 C.ar      1 RES1    0.0000
     23 C11        1.6733    7.7575    6.7263 C.ar      1 RES1    0.0000
     24 H9         0.8721    7.6318    6.2706 H         1 RES1    0.0000
     25 C12        1.7646    8.7427    7.6600 C.ar      1 RES1    0.0000
     26 H10        1.0388    9.2998    7.8286 H         1 RES1    0.0000
     27 C13        2.9463    8.9077    8.3565 C.ar      1 RES1    0.0000
     28 H11        3.0016    9.5651    9.0123 H         1 RES1    0.0000
     29 C14        4.0286    8.1293    8.1046 C.ar      1 RES1    0.0000
     30 H12        4.8226    8.2664    8.5677 H         1 RES1    0.0000
     31 C15        3.9426    7.1208    7.1413 C.ar      1 RES1    0.0000
@<TRIPOS>BOND
     1    1    4 1
     2    2    3 1
     3    4   20 2
     4    5   20 1
     5    6    7 1
     6    8    6 1
     7    9    6 1
     8   10    6 1
     9   11   10 ar
    10   12   11 1
    11   13   11 ar
    12   14   13 1
    13   15   13 ar
    14   16   15 ar
    15   17   16 1
    16   18   10 ar
    17   19   18 1
    18   20   15 1
    19   21    1 1
    20   22   21 1
    21   23   22 ar
    22   24   23 1
    23   25   23 ar
    24   26   25 1
    25   27   25 ar
    26   28   27 1
    27   29   27 ar
    28   30   29 1
    29   31    2 1
    30    5   21 2
    31   16   18 ar
    32   22   31 ar
    33   29   31 ar
@<TRIPOS>SUBSTRUCTURE
     1 RES1 1

@<TRIPOS>CRYSIN
   6.5110    5.1720   18.7630  90.0000  99.1400  90.0000   4 1

