# MOL2 file generated by ConQuest
# Please check atom types

@<TRIPOS>MOLECULE
MEQCUH
    27    27     1
SMALL
NO_CHARGES
****
Generated from CSD

@<TRIPOS>ATOM
      1 O1         7.7639    2.9138   -0.1463 O.2       1 RES1    0.0000
      2 O2         8.5586    4.7609    2.2126 O.2       1 RES1    0.0000
      3 O3         8.0509    6.4372    0.7805 O.3       1 RES1    0.0000
      4 O4        10.7458    6.3652   -0.0417 O.3       1 RES1    0.0000
      5 N1        10.3808    5.1420   -0.6053 N.2       1 RES1    0.0000
      6 C1         9.6290    2.6317   -1.6271 C.3       1 RES1    0.0000
      7 H1         9.1581    1.8208   -1.9116 H         1 RES1    0.0000
      8 H2        10.5048    2.3882   -1.2613 H         1 RES1    0.0000
      9 H3         9.7504    3.2264   -2.3954 H         1 RES1    0.0000
     10 C2         8.8271    3.3312   -0.5762 C.2       1 RES1    0.0000
     11 C3         9.3387    4.6459   -0.0512 C.2       1 RES1    0.0000
     12 C4         8.6117    5.2769    1.1158 C.2       1 RES1    0.0000
     13 C5         7.3867    7.1547    1.8741 C.3       1 RES1    0.0000
     14 H4         7.9997    7.2417    2.6460 H         1 RES1    0.0000
     15 H5         6.5819    6.6586    2.1668 H         1 RES1    0.0000
     16 C6         6.9978    8.5199    1.3637 C.ar      1 RES1    0.0000
     17 C7         5.8034    9.0958    1.8000 C.ar      1 RES1    0.0000
     18 H6         5.2320    8.6137    2.3863 H         1 RES1    0.0000
     19 C8         5.4455   10.3779    1.3774 C.ar      1 RES1    0.0000
     20 H7         4.6387   10.7725    1.6875 H         1 RES1    0.0000
     21 C9         6.2732   11.0802    0.4994 C.ar      1 RES1    0.0000
     22 H8         6.0262   11.9486    0.2049 H         1 RES1    0.0000
     23 C10        7.4546   10.5073    0.0595 C.ar      1 RES1    0.0000
     24 H9         8.0154   10.9840   -0.5415 H         1 RES1    0.0000
     25 C11        7.8250    9.2327    0.4939 C.ar      1 RES1    0.0000
     26 H10        8.6422    8.8498    0.1966 H         1 RES1    0.0000
     27 H11       11.4581    6.6027   -0.5122 H         1 RES1    0.0000
@<TRIPOS>BOND
     1    1   10 2
     2    2   12 2
     3    3   12 1
     4    4    5 1
     5    5   11 2
     6    6    7 1
     7    8    6 1
     8    9    6 1
     9   10    6 1
    10   11   10 1
    11   12   11 1
    12   13    3 1
    13   14   13 1
    14   15   13 1
    15   16   13 1
    16   17   16 ar
    17   18   17 1
    18   19   17 ar
    19   20   19 1
    20   21   19 ar
    21   22   21 1
    22   23   21 ar
    23   24   23 1
    24   25   16 ar
    25   26   25 1
    26   27    4 1
    27   23   25 ar
@<TRIPOS>SUBSTRUCTURE
     1 RES1 1

@<TRIPOS>CRYSIN
  10.4640   11.1910    9.1463  90.0000  90.0000  90.0000  29 1

