# MOL2 file generated by ConQuest
# Please check atom types

@<TRIPOS>MOLECULE
MEQDOE
   165   168     3
SMALL
NO_CHARGES
****
Generated from CSD

@<TRIPOS>ATOM
      1 N1         0.9605    0.5987    0.8919 N.3       1 RES1    0.0000
      2 N2         2.6719    1.3063    3.0238 N.am      1 RES1    0.0000
      3 O1         0.2063    0.3076   -0.1071 O.2       1 RES1    0.0000
      4 O2         3.4317    3.0747    1.8301 O.2       1 RES1    0.0000
      5 C1         2.0667    1.5298    0.6255 C.3       1 RES1    0.0000
      6 C2         2.7651    2.0305    1.8977 C.2       1 RES1    0.0000
      7 C3         1.8620    0.1048    3.0809 C.3       1 RES1    0.0000
      8 H1         1.6223   -0.0703    4.0162 H         1 RES1    0.0000
      9 H2         2.3948   -0.6525    2.7633 H         1 RES1    0.0000
     10 C4         0.5806    0.1917    2.2521 C.3       1 RES1    0.0000
     11 C5         1.4940    2.7064   -0.1356 C.3       1 RES1    0.0000
     12 H3         1.1277    2.4002   -0.9798 H         1 RES1    0.0000
     13 H4         2.1965    3.3547   -0.3040 H         1 RES1    0.0000
     14 H5         0.7916    3.1202    0.3912 H         1 RES1    0.0000
     15 C6         3.1330    0.7973   -0.1975 C.3       1 RES1    0.0000
     16 H6         3.4094   -0.0041    0.2711 H         1 RES1    0.0000
     17 H7         3.8976    1.3794   -0.3253 H         1 RES1    0.0000
     18 H8         2.7627    0.5559   -1.0612 H         1 RES1    0.0000
     19 C7         3.3919    1.7725    4.2505 C.3       1 RES1    0.0000
     20 H9         4.1389    2.3546    3.9639 H         1 RES1    0.0000
     21 C8         3.9812    0.5973    5.0367 C.3       1 RES1    0.0000
     22 H10        4.5315    0.9352    5.7609 H         1 RES1    0.0000
     23 H11        4.5251    0.0524    4.4441 H         1 RES1    0.0000
     24 H12        3.2621    0.0579    5.4007 H         1 RES1    0.0000
     25 C9         2.4442    2.6057    5.0832 C.3       1 RES1    0.0000
     26 H13        2.0913    3.3299    4.5429 H         1 RES1    0.0000
     27 H14        2.9188    2.9726    5.8442 H         1 RES1    0.0000
     28 H15        1.7131    2.0484    5.3949 H         1 RES1    0.0000
     29 C10       -0.3130    1.2980    2.8543 C.3       1 RES1    0.0000
     30 H16       -0.3616    1.1587    3.8225 H         1 RES1    0.0000
     31 H17        0.1266    2.1615    2.7052 H         1 RES1    0.0000
     32 C11       -1.7107    1.3904    2.3276 C.3       1 RES1    0.0000
     33 H18       -1.6589    1.5601    1.3536 H         1 RES1    0.0000
     34 C12       -2.3788    0.0400    2.5329 C.3       1 RES1    0.0000
     35 H19       -2.4402   -0.1462    3.4933 H         1 RES1    0.0000
     36 H20       -3.2891    0.0717    2.1727 H         1 RES1    0.0000
     37 C13       -1.6191   -1.0801    1.8590 C.3       1 RES1    0.0000
     38 H21       -1.6693   -0.9545    0.8888 H         1 RES1    0.0000
     39 H22       -2.0587   -1.9298    2.0720 H         1 RES1    0.0000
     40 C14       -0.1179   -1.1753    2.2773 C.3       1 RES1    0.0000
     41 H23       -0.1434   -1.4208    3.2358 H         1 RES1    0.0000
     42 C15        0.6825   -2.3243    1.6072 C.3       1 RES1    0.0000
     43 H24        1.5777   -1.9574    1.3962 H         1 RES1    0.0000
     44 C16        0.1163   -2.8526    0.2963 C.3       1 RES1    0.0000
     45 H25        0.7630   -3.4402   -0.1220 H         1 RES1    0.0000
     46 H26       -0.0749   -2.1077   -0.2963 H         1 RES1    0.0000
     47 H27       -0.7024   -3.3437    0.4706 H         1 RES1    0.0000
     48 C17        0.9055   -3.4582    2.5580 C.3       1 RES1    0.0000
     49 H28        0.0557   -3.8789    2.7652 H         1 RES1    0.0000
     50 H29        1.3069   -3.1216    3.3733 H         1 RES1    0.0000
     51 H30        1.4972   -4.1106    2.1514 H         1 RES1    0.0000
     52 C18       -2.4840    2.5174    2.9531 C.3       1 RES1    0.0000
     53 H31       -2.0563    2.7809    3.7819 H         1 RES1    0.0000
     54 H32       -3.3903    2.2250    3.1332 H         1 RES1    0.0000
     55 H33       -2.5023    3.2719    2.3431 H         1 RES1    0.0000
     56 N3         7.0752    5.3024    2.7666 N.3       2 RES2    0.0000
     57 N4         5.4498    6.1508    0.6212 N.am      2 RES2    0.0000
     58 O3         7.8565    5.0224    3.7458 O.2       2 RES2    0.0000
     59 O4         4.7593    7.9316    1.8431 O.2       2 RES2    0.0000
     60 C19        5.9937    6.2791    3.0325 C.3       2 RES2    0.0000
     61 C20        5.3677    6.8639    1.7525 C.2       2 RES2    0.0000
     62 C21        6.1267    4.8596    0.6042 C.3       2 RES2    0.0000
     63 H34        6.3234    4.6155   -0.3234 H         2 RES2    0.0000
     64 H35        5.5222    4.1796    0.9702 H         2 RES2    0.0000
     65 C22        7.4121    4.8431    1.3966 C.3       2 RES2    0.0000
     66 C23        4.8859    5.5687    3.7954 C.3       2 RES2    0.0000
     67 H36        4.4718    4.9065    3.2203 H         2 RES2    0.0000
     68 H37        4.2209    6.2156    4.0743 H         2 RES2    0.0000
     69 H38        5.2594    5.1314    4.5758 H         2 RES2    0.0000
     70 C24        6.5886    7.4060    3.8729 C.3       2 RES2    0.0000
     71 H39        7.0012    7.0336    4.6668 H         2 RES2    0.0000
     72 H40        5.8846    8.0212    4.1304 H         2 RES2    0.0000
     73 H41        7.2568    7.8792    3.3520 H         2 RES2    0.0000
     74 C25        4.8103    6.6736   -0.5926 C.3       2 RES2    0.0000
     75 H42        4.0943    7.2984   -0.3118 H         2 RES2    0.0000
     76 C26        5.7954    7.4502   -1.4330 C.3       2 RES2    0.0000
     77 H43        6.1785    8.1661   -0.9024 H         2 RES2    0.0000
     78 H44        5.3399    7.8254   -2.2017 H         2 RES2    0.0000
     79 H45        6.5010    6.8570   -1.7331 H         2 RES2    0.0000
     80 C27        4.1548    5.5466   -1.4078 C.3       2 RES2    0.0000
     81 H46        4.8341    4.9162   -1.6924 H         2 RES2    0.0000
     82 H47        3.7160    5.9232   -2.1862 H         2 RES2    0.0000
     83 H48        3.5002    5.0886   -0.8578 H         2 RES2    0.0000
     84 C28        8.4283    5.8114    0.7784 C.3       2 RES2    0.0000
     85 H49        8.4371    5.6694   -0.1898 H         2 RES2    0.0000
     86 H50        8.1137    6.7260    0.9372 H         2 RES2    0.0000
     87 C29        9.8451    5.7080    1.2819 C.3       2 RES2    0.0000
     88 H51        9.8371    5.8928    2.2540 H         2 RES2    0.0000
     89 C30       10.3213    4.3010    1.0844 C.3       2 RES2    0.0000
     90 H52       11.2404    4.2237    1.4136 H         2 RES2    0.0000
     91 H53       10.3293    4.0968    0.1259 H         2 RES2    0.0000
     92 C31        9.4421    3.2775    1.8067 C.3       2 RES2    0.0000
     93 H54        9.7678    2.3740    1.6111 H         2 RES2    0.0000
     94 H55        9.5058    3.4209    2.7749 H         2 RES2    0.0000
     95 C32        7.9839    3.3947    1.3749 C.3       2 RES2    0.0000
     96 H56        7.9863    3.1395    0.4183 H         2 RES2    0.0000
     97 C33        7.0911    2.3257    2.0662 C.3       2 RES2    0.0000
     98 H57        6.1729    2.6940    2.1088 H         2 RES2    0.0000
     99 C34        7.4870    1.9436    3.4778 C.3       2 RES2    0.0000
    100 H58        6.8028    1.3739    3.8632 H         2 RES2    0.0000
    101 H59        7.5809    2.7464    4.0162 H         2 RES2    0.0000
    102 H60        8.3327    1.4663    3.4585 H         2 RES2    0.0000
    103 C35        7.0314    1.0690    1.2374 C.3       2 RES2    0.0000
    104 H61        7.9313    0.7932    1.0031 H         2 RES2    0.0000
    105 H62        6.5249    1.2401    0.4260 H         2 RES2    0.0000
    106 H63        6.5982    0.3655    1.7447 H         2 RES2    0.0000
    107 C36       10.7387    6.7260    0.6274 C.3       2 RES2    0.0000
    108 H64       11.6561    6.5770    0.9043 H         2 RES2    0.0000
    109 H65       10.4615    7.6171    0.8908 H         2 RES2    0.0000
    110 H66       10.6757    6.6391   -0.3369 H         2 RES2    0.0000
    111 O5         0.3409    9.0241    6.1408 O.2       3 RES3    0.0000
    112 O6         2.0029    5.1659    7.9987 O.2       3 RES3    0.0000
    113 N5         0.2947    8.1937    7.1093 N.3       3 RES3    0.0000
    114 N6         0.4747    6.3287    9.2163 N.am      3 RES3    0.0000
    115 C37        0.7287    6.8074    6.8085 C.3       3 RES3    0.0000
    116 C38        1.1293    6.0473    8.0730 C.2       3 RES3    0.0000
    117 C39       -0.4524    7.4515    9.2736 C.3       3 RES3    0.0000
    118 H67       -0.5885    7.7095   10.2089 H         3 RES3    0.0000
    119 H68       -1.3188    7.1729    8.9115 H         3 RES3    0.0000
    120 C40        0.0573    8.6682    8.4847 C.3       3 RES3    0.0000
    121 C41        1.9297    6.8736    5.8732 C.3       3 RES3    0.0000
    122 H69        1.6653    7.2819    5.0347 H         3 RES3    0.0000
    123 H70        2.2594    5.9770    5.7048 H         3 RES3    0.0000
    124 H71        2.6321    7.4033    6.2818 H         3 RES3    0.0000
    125 C42       -0.4388    6.0652    6.1618 C.3       3 RES3    0.0000
    126 H72       -1.1588    5.9687    6.8066 H         3 RES3    0.0000
    127 H73       -0.1449    5.1893    5.8713 H         3 RES3    0.0000
    128 H74       -0.7590    6.5701    5.3969 H         3 RES3    0.0000
    129 C43        0.7359    5.5287   10.4277 C.3       3 RES3    0.0000
    130 H75        1.1691    4.6845   10.1431 H         3 RES3    0.0000
    131 C44       -0.5877    5.1673   11.0997 C.3       3 RES3    0.0000
    132 H76       -1.0369    5.9783   11.3863 H         3 RES3    0.0000
    133 H77       -0.4181    4.6031   11.8684 H         3 RES3    0.0000
    134 H78       -1.1516    4.6927   10.4684 H         3 RES3    0.0000
    135 C45        1.6732    6.2308   11.3611 C.3       3 RES3    0.0000
    136 H79        2.4919    6.4515   10.8905 H         3 RES3    0.0000
    137 H80        1.8779    5.6500   12.1105 H         3 RES3    0.0000
    138 H81        1.2567    7.0432   11.6864 H         3 RES3    0.0000
    139 C46        1.4064    9.1261    9.0877 C.3       3 RES3    0.0000
    140 H82        1.3029    9.2062   10.0598 H         3 RES3    0.0000
    141 H83        2.0754    8.4309    8.9192 H         3 RES3    0.0000
    142 C47        1.9265   10.4269    8.5552 C.3       3 RES3    0.0000
    143 H84        2.0268   10.3469    7.5734 H         3 RES3    0.0000
    144 C48        0.8864   11.4973    8.8495 C.3       3 RES3    0.0000
    145 H85        0.7454   11.5594    9.8178 H         3 RES3    0.0000
    146 H86        1.2129   12.3664    8.5339 H         3 RES3    0.0000
    147 C49       -0.4364   11.1759    8.1660 C.3       3 RES3    0.0000
    148 H87       -0.3074   11.1925    7.1939 H         3 RES3    0.0000
    149 H88       -1.0919   11.8670    8.3945 H         3 RES3    0.0000
    150 C50       -0.9828    9.8103    8.5765 C.3       3 RES3    0.0000
    151 H89       -1.1667    9.9000    9.5447 H         3 RES3    0.0000
    152 C51       -2.3741    9.5000    7.9471 C.3       3 RES3    0.0000
    153 H90       -2.4911    8.5164    7.9491 H         3 RES3    0.0000
    154 C52       -2.5660    9.9786    6.5316 C.3       3 RES3    0.0000
    155 H91       -3.4389    9.7000    6.2121 H         3 RES3    0.0000
    156 H92       -1.8779    9.5979    5.9642 H         3 RES3    0.0000
    157 H93       -2.5063   10.9456    6.5064 H         3 RES3    0.0000
    158 C53        3.2828   10.7704    9.1536 C.3       3 RES3    0.0000
    159 H94        3.8809   10.0159    9.0509 H         3 RES3    0.0000
    160 H95        3.1768   10.9759   10.0947 H         3 RES3    0.0000
    161 H96        3.6515   11.5415    8.6946 H         3 RES3    0.0000
    162 C54       -3.4771   10.0862    8.7546 C.3       3 RES3    0.0000
    163 H97       -3.4197    9.7579    9.6667 H         3 RES3    0.0000
    164 H98       -4.3300    9.8310    8.3732 H         3 RES3    0.0000
    165 H99       -3.3982   11.0532    8.7546 H         3 RES3    0.0000
@<TRIPOS>BOND
     1    1    3 1
     2    2    6 1
     3    4    6 2
     4    5    1 1
     5    6    5 1
     6    7    2 1
     7    8    7 1
     8    9    7 1
     9   10    1 1
    10   11    5 1
    11   12   11 1
    12   13   11 1
    13   14   11 1
    14   15    5 1
    15   16   15 1
    16   17   15 1
    17   18   15 1
    18   19    2 1
    19   20   19 1
    20   21   19 1
    21   22   21 1
    22   23   21 1
    23   24   21 1
    24   25   19 1
    25   26   25 1
    26   27   25 1
    27   28   25 1
    28   29   10 1
    29   30   29 1
    30   31   29 1
    31   32   29 1
    32   33   32 1
    33   34   32 1
    34   35   34 1
    35   36   34 1
    36   37   34 1
    37   38   37 1
    38   39   37 1
    39   40   10 1
    40   41   40 1
    41   42   40 1
    42   43   42 1
    43   44   42 1
    44   45   44 1
    45   46   44 1
    46   47   44 1
    47   48   42 1
    48   49   48 1
    49   50   48 1
    50   51   48 1
    51   52   32 1
    52   53   52 1
    53   54   52 1
    54   55   52 1
    55   56   58 1
    56   57   61 1
    57   59   61 2
    58   60   56 1
    59   61   60 1
    60   62   57 1
    61   63   62 1
    62   64   62 1
    63   65   56 1
    64   66   60 1
    65   67   66 1
    66   68   66 1
    67   69   66 1
    68   70   60 1
    69   71   70 1
    70   72   70 1
    71   73   70 1
    72   74   57 1
    73   75   74 1
    74   76   74 1
    75   77   76 1
    76   78   76 1
    77   79   76 1
    78   80   74 1
    79   81   80 1
    80   82   80 1
    81   83   80 1
    82   84   65 1
    83   85   84 1
    84   86   84 1
    85   87   84 1
    86   88   87 1
    87   89   87 1
    88   90   89 1
    89   91   89 1
    90   92   89 1
    91   93   92 1
    92   94   92 1
    93   95   65 1
    94   96   95 1
    95   97   95 1
    96   98   97 1
    97   99   97 1
    98  100   99 1
    99  101   99 1
   100  102   99 1
   101  103   97 1
   102  104  103 1
   103  105  103 1
   104  106  103 1
   105  107   87 1
   106  108  107 1
   107  109  107 1
   108  110  107 1
   109  111  113 1
   110  112  116 2
   111  113  115 1
   112  114  116 1
   113  115  116 1
   114  117  114 1
   115  118  117 1
   116  119  117 1
   117  120  113 1
   118  121  115 1
   119  122  121 1
   120  123  121 1
   121  124  121 1
   122  125  115 1
   123  126  125 1
   124  127  125 1
   125  128  125 1
   126  129  114 1
   127  130  129 1
   128  131  129 1
   129  132  131 1
   130  133  131 1
   131  134  131 1
   132  135  129 1
   133  136  135 1
   134  137  135 1
   135  138  135 1
   136  139  120 1
   137  140  139 1
   138  141  139 1
   139  142  139 1
   140  143  142 1
   141  144  142 1
   142  145  144 1
   143  146  144 1
   144  147  144 1
   145  148  147 1
   146  149  147 1
   147  150  120 1
   148  151  150 1
   149  152  150 1
   150  153  152 1
   151  154  152 1
   152  155  154 1
   153  156  154 1
   154  157  154 1
   155  158  142 1
   156  159  158 1
   157  160  158 1
   158  161  158 1
   159  162  152 1
   160  163  162 1
   161  164  162 1
   162  165  162 1
   163    7   10 1
   164   37   40 1
   165   62   65 1
   166   92   95 1
   167  117  120 1
   168  147  150 1
@<TRIPOS>SUBSTRUCTURE
     1 RES1 1
     2 RES2 56
     3 RES3 111

@<TRIPOS>CRYSIN
  15.9280   15.9280   19.3644  90.0000  90.0000 120.0000 145 1

