# MOL2 file generated by ConQuest
# Please check atom types

@<TRIPOS>MOLECULE
MEQDIY
    93    64     2
SMALL
NO_CHARGES
****
Generated from CSD

@<TRIPOS>ATOM
      1 N1         3.8163    9.5428   16.9275 N.3       1 RES1    0.0000
      2 O1         4.4125   10.5589   16.4774 O.2       1 RES1    0.0000
      3 N2         2.5884    7.3953   18.2320 N.am      1 RES1    0.0000
      4 C1         1.9837    8.5925   18.3416 C.2       1 RES1    0.0000
      5 O2         0.8685    8.6390   18.9357 O.2       1 RES1    0.0000
      6 C2         3.8833    7.2550   17.5756 C.3       1 RES1    0.0000
      7 H1         3.9939    6.3296   17.2742 H         1 RES1    0.0000
      8 H2         4.5957    7.4494   18.2208 H         1 RES1    0.0000
      9 C3         4.0156    8.1939   16.3808 C.3       1 RES1    0.0000
     10 C4         2.7335    9.8412   17.8945 C.3       1 RES1    0.0000
     11 C5         3.5108   10.5091   19.0316 C.3       1 RES1    0.0000
     12 H3         3.9825    9.8286   19.5548 H         1 RES1    0.0000
     13 H4         4.1762   11.1255   18.6602 H         1 RES1    0.0000
     14 C6         2.5532   11.2649   19.9217 C.3       1 RES1    0.0000
     15 H5         1.8897   10.6452   20.2897 H         1 RES1    0.0000
     16 H6         3.0467   11.6610   20.6712 H         1 RES1    0.0000
     17 C7         1.8537   12.3493   19.1554 C.3       1 RES1    0.0000
     18 H7         2.5161   12.9779   18.7999 H         1 RES1    0.0000
     19 H8         1.2585   12.8429   19.7565 H         1 RES1    0.0000
     20 C8         1.0535   11.7750   18.0211 C.3       1 RES1    0.0000
     21 H9         0.6473   12.5065   17.5099 H         1 RES1    0.0000
     22 H10        0.3293   11.2228   18.3846 H         1 RES1    0.0000
     23 C9         1.9153   10.9230   17.0845 C.3       1 RES1    0.0000
     24 H11        2.5370   11.5028   16.5952 H         1 RES1    0.0000
     25 H12        1.3411   10.4737   16.4295 H         1 RES1    0.0000
     26 C10        1.9562    6.1935   18.7983 C.3       1 RES1    0.0000
     27 H13        1.1760    6.4934   19.3292 H         1 RES1    0.0000
     28 C11        2.9015    5.4897   19.7485 C.3       1 RES1    0.0000
     29 H14        2.4203    4.7992   20.2318 H         1 RES1    0.0000
     30 H15        3.2641    6.1315   20.3796 H         1 RES1    0.0000
     31 H16        3.6266    5.0869   19.2453 H         1 RES1    0.0000
     32 C12        1.4398    5.2706   17.7255 C.3       1 RES1    0.0000
     33 H17        2.1877    4.8899   17.2383 H         1 RES1    0.0000
     34 H18        0.8760    5.7685   17.1145 H         1 RES1    0.0000
     35 H19        0.9235    4.5569   18.1329 H         1 RES1    0.0000
     36 C13        5.4073    8.0279   15.7231 C.3       1 RES1    0.0000
     37 H20        5.4651    7.0643   15.5049 H         1 RES1    0.0000
     38 C14        5.5277    8.7408   14.3624 C.3       1 RES1    0.0000
     39 H21        5.5619    9.7090   14.5103 H         1 RES1    0.0000
     40 H22        6.3668    8.4719   13.9332 H         1 RES1    0.0000
     41 C15        4.3669    8.4188   13.4320 C.3       1 RES1    0.0000
     42 H23        4.4543    8.9533   12.6152 H         1 RES1    0.0000
     43 H24        4.4135    7.4738   13.1783 H         1 RES1    0.0000
     44 C16        3.0258    8.6954   14.0592 C.3       1 RES1    0.0000
     45 H25        2.9793    9.6581   14.2867 H         1 RES1    0.0000
     46 C17        1.8413    8.3568   13.1504 C.3       1 RES1    0.0000
     47 H26        1.8261    7.4007   12.9826 H         1 RES1    0.0000
     48 H27        1.9334    8.8315   12.3096 H         1 RES1    0.0000
     49 H28        1.0146    8.6213   13.5837 H         1 RES1    0.0000
     50 C18        2.9129    7.8915   15.3475 C.3       1 RES1    0.0000
     51 H29        2.9433    6.9371   15.1254 H         1 RES1    0.0000
     52 H30        2.0406    8.0735   15.7565 H         1 RES1    0.0000
     53 C19        6.6249    8.2893   16.6561 C.3       1 RES1    0.0000
     54 H31        6.2681    8.4874   17.5578 H         1 RES1    0.0000
     55 C20        7.5190    9.4811   16.2398 C.3       1 RES1    0.0000
     56 H32        7.8977    9.3107   15.3631 H         1 RES1    0.0000
     57 H33        8.2356    9.5895   16.8848 H         1 RES1    0.0000
     58 H34        6.9856   10.2911   16.2098 H         1 RES1    0.0000
     59 C21        7.4867    7.0699   16.7750 C.3       1 RES1    0.0000
     60 H35        8.2090    7.2447   17.3980 H         1 RES1    0.0000
     61 H36        7.8550    6.8497   15.9063 H         1 RES1    0.0000
     62 H37        6.9533    6.3274   17.0985 H         1 RES1    0.0000
     63 O3         4.6412   10.4438   16.2837 Du        2 SUP2    0.0000
     64 O4         0.8979    8.9289   18.6102 Du        2 SUP2    0.0000
     65 C22        3.1103   10.2612   19.4590 Du        2 SUP2    0.0000
     66 H38        2.3320   10.1362   20.0421 Du        2 SUP2    0.0000
     67 H39        3.8430    9.7024   19.7945 Du        2 SUP2    0.0000
     68 C23        3.5260   11.7175   19.4410 Du        2 SUP2    0.0000
     69 H40        3.8136   11.9819   20.3396 Du        2 SUP2    0.0000
     70 H41        4.2891   11.8270   18.8359 Du        2 SUP2    0.0000
     71 C24        2.4032   12.6260   18.9917 Du        2 SUP2    0.0000
     72 H42        2.7316   13.5466   18.9158 Du        2 SUP2    0.0000
     73 H43        1.6800   12.6116   19.6527 Du        2 SUP2    0.0000
     74 C25        1.8812   12.1524   17.6437 Du        2 SUP2    0.0000
     75 H44        1.1086   12.7023   17.3940 Du        2 SUP2    0.0000
     76 H45        2.5769   12.2951   16.9687 Du        2 SUP2    0.0000
     77 C26        1.4712   10.6994   17.6197 Du        2 SUP2    0.0000
     78 H46        1.0924   10.4715   16.7450 Du        2 SUP2    0.0000
     79 H47        0.7925   10.5290   18.3067 Du        2 SUP2    0.0000
     80 H48        3.0439    9.6471   14.3326 Du        2 SUP2    0.0000
     81 C27        2.1166    8.6312   12.8209 Du        2 SUP2    0.0000
     82 H49        1.9751    7.7017   12.5752 Du        2 SUP2    0.0000
     83 H50        2.5437    9.0960   12.0840 Du        2 SUP2    0.0000
     84 H51        1.2671    9.0462   13.0206 Du        2 SUP2    0.0000
     85 H52        6.3639    7.9175   17.5358 Du        2 SUP2    0.0000
     86 C28        7.0520    9.6947   16.9327 Du        2 SUP2    0.0000
     87 H53        7.1365   10.1782   16.0940 Du        2 SUP2    0.0000
     88 H54        7.9110    9.6880   17.3861 Du        2 SUP2    0.0000
     89 H55        6.3943   10.1306   17.4939 Du        2 SUP2    0.0000
     90 C29        7.7819    7.4063   16.1719 Du        2 SUP2    0.0000
     91 H56        7.4488    6.5188   15.9702 Du        2 SUP2    0.0000
     92 H57        8.4577    7.3487   16.8648 Du        2 SUP2    0.0000
     93 H58        8.1720    7.7947   15.3731 Du        2 SUP2    0.0000
@<TRIPOS>BOND
     1    1    2 1
     2    3    4 1
     3    4    5 2
     4    6    3 1
     5    7    6 1
     6    8    6 1
     7    9    1 1
     8   10    1 1
     9   11   10 1
    10   12   11 1
    11   13   11 1
    12   14   11 1
    13   15   14 1
    14   16   14 1
    15   17   14 1
    16   18   17 1
    17   19   17 1
    18   20   17 1
    19   21   20 1
    20   22   20 1
    21   23   10 1
    22   24   23 1
    23   25   23 1
    24   26    3 1
    25   27   26 1
    26   28   26 1
    27   29   28 1
    28   30   28 1
    29   31   28 1
    30   32   26 1
    31   33   32 1
    32   34   32 1
    33   35   32 1
    34   36    9 1
    35   37   36 1
    36   38   36 1
    37   39   38 1
    38   40   38 1
    39   41   38 1
    40   42   41 1
    41   43   41 1
    42   44   41 1
    43   45   44 1
    44   46   44 1
    45   47   46 1
    46   48   46 1
    47   49   46 1
    48   50    9 1
    49   51   50 1
    50   52   50 1
    51   53   36 1
    52   54   53 1
    53   55   53 1
    54   56   55 1
    55   57   55 1
    56   58   55 1
    57   59   53 1
    58   60   59 1
    59   61   59 1
    60   62   59 1
    61    4   10 1
    62    6    9 1
    63   20   23 1
    64   44   50 1
@<TRIPOS>SUBSTRUCTURE
     1 RES1 1
     2 SUP2 63

@<TRIPOS>CRYSIN
   9.4913   11.0657   19.9702  90.0000  90.0000  90.0000  19 1

