# MOL2 file generated by ConQuest
# Please check atom types

@<TRIPOS>MOLECULE
MEQDAO
    56    56     2
SMALL
NO_CHARGES
****
Generated from CSD

@<TRIPOS>ATOM
      1 O1         3.3164    5.6291    2.9355 O.3       1 RES1    0.0000
      2 O2        -0.4803    5.8127    5.9665 O.3       1 RES1    0.0000
      3 O3         0.6376    8.9378    9.3005 O.3       1 RES1    0.0000
      4 H1         1.1153    9.3283    9.8396 H         1 RES1    0.0000
      5 O4         4.4773    7.5089    4.2307 O.3       1 RES1    0.0000
      6 O5         7.5069   14.7573   12.2602 O.3       2 RES2    0.0000
      7 H2         8.1202   14.7529   11.7161 H         2 RES2    0.0000
      8 O6         3.3320   13.8652   14.2605 O.3       2 RES2    0.0000
      9 O7         1.3114   10.2810   11.6731 O.3       2 RES2    0.0000
     10 O8         3.3238   10.2404   10.1003 O.3       2 RES2    0.0000
     11 N1         1.4006    8.5685    8.1814 N.2       1 RES1    0.0000
     12 N2         6.5859   13.7600   11.9332 N.2       2 RES2    0.0000
     13 C1         1.3788    7.2055    6.2503 C.ar      1 RES1    0.0000
     14 C2         0.7494    6.2035    5.5118 C.ar      1 RES1    0.0000
     15 C3         1.3752    5.6556    4.3982 C.ar      1 RES1    0.0000
     16 H3         0.9508    4.9849    3.9129 H         1 RES1    0.0000
     17 C4         2.6190    6.0994    4.0073 C.ar      1 RES1    0.0000
     18 C5         3.2579    7.1234    4.7277 C.ar      1 RES1    0.0000
     19 C6         2.6378    7.6491    5.8229 C.ar      1 RES1    0.0000
     20 H4         3.0636    8.3233    6.3009 H         1 RES1    0.0000
     21 C7         2.7799    4.5591    2.1874 C.3       1 RES1    0.0000
     22 H5         3.3795    4.3372    1.4715 H         1 RES1    0.0000
     23 H6         1.9293    4.8175    1.8247 H         1 RES1    0.0000
     24 H7         2.6657    3.7955    2.7581 H         1 RES1    0.0000
     25 C8        -1.1703    4.7951    5.2585 C.3       1 RES1    0.0000
     26 H8        -2.0117    4.6217    5.6871 H         1 RES1    0.0000
     27 H9        -0.6422    3.9934    5.2540 H         1 RES1    0.0000
     28 H10       -1.3239    5.0819    4.3557 H         1 RES1    0.0000
     29 C9         5.1791    8.5089    4.9518 C.3       1 RES1    0.0000
     30 H11        6.0108    8.6974    4.5113 H         1 RES1    0.0000
     31 H12        5.3521    8.1978    5.8441 H         1 RES1    0.0000
     32 H13        4.6485    9.3077    4.9892 H         1 RES1    0.0000
     33 C10        0.7735    7.7452    7.4562 C.2       1 RES1    0.0000
     34 H14       -0.0844    7.4820    7.6968 H         1 RES1    0.0000
     35 C11        4.4216   12.9269   12.4125 C.ar      2 RES2    0.0000
     36 C12        3.3084   12.9441   13.2440 C.ar      2 RES2    0.0000
     37 C13        2.2514   12.0685   13.0285 C.ar      2 RES2    0.0000
     38 H15        1.5122   12.0843   13.5927 H         2 RES2    0.0000
     39 C14        2.2975   11.1765   11.9796 C.ar      2 RES2    0.0000
     40 C15        3.4079   11.1487   11.1249 C.ar      2 RES2    0.0000
     41 C16        4.4453   12.0099   11.3483 C.ar      2 RES2    0.0000
     42 H16        5.1837   11.9879   10.7828 H         2 RES2    0.0000
     43 C17        0.1436   10.2615   12.4668 C.3       2 RES2    0.0000
     44 H17       -0.4616    9.5954   12.1310 H         2 RES2    0.0000
     45 H18       -0.2794   11.1228   12.4351 H         2 RES2    0.0000
     46 H19        0.3766   10.0523   13.3741 H         2 RES2    0.0000
     47 C18        4.4113   10.1670    9.1997 C.3       2 RES2    0.0000
     48 H20        4.2299    9.5013    8.5320 H         2 RES2    0.0000
     49 H21        5.2088    9.9308    9.6798 H         2 RES2    0.0000
     50 H22        4.5336   11.0192    8.7759 H         2 RES2    0.0000
     51 C19        2.2092   13.9653   15.1093 C.3       2 RES2    0.0000
     52 H23        2.3636   14.6479   15.7663 H         2 RES2    0.0000
     53 H24        2.0650   13.1249   15.5505 H         2 RES2    0.0000
     54 H25        1.4342   14.1904   14.5891 H         2 RES2    0.0000
     55 C20        5.5259   13.8544   12.6155 C.2       2 RES2    0.0000
     56 H26        5.4499   14.5251   13.2549 H         2 RES2    0.0000
@<TRIPOS>BOND
     1    1   17 1
     2    2   14 1
     3    3    4 1
     4    5   18 1
     5    6    7 1
     6    8   36 1
     7    9   39 1
     8   10   40 1
     9   11    3 1
    10   12    6 1
    11   13   14 ar
    12   14   15 ar
    13   15   16 1
    14   17   15 ar
    15   18   17 ar
    16   19   13 ar
    17   20   19 1
    18   21    1 1
    19   22   21 1
    20   23   21 1
    21   24   21 1
    22   25    2 1
    23   26   25 1
    24   27   25 1
    25   28   25 1
    26   29    5 1
    27   30   29 1
    28   31   29 1
    29   32   29 1
    30   33   11 2
    31   34   33 1
    32   35   36 ar
    33   36   37 ar
    34   37   38 1
    35   39   37 ar
    36   40   39 ar
    37   41   35 ar
    38   42   41 1
    39   43    9 1
    40   44   43 1
    41   45   43 1
    42   46   43 1
    43   47   10 1
    44   48   47 1
    45   49   47 1
    46   50   47 1
    47   51    8 1
    48   52   51 1
    49   53   51 1
    50   54   51 1
    51   55   12 2
    52   56   55 1
    53   13   33 1
    54   18   19 ar
    55   35   55 1
    56   40   41 ar
@<TRIPOS>SUBSTRUCTURE
     1 RES1 1
     2 RES2 6

@<TRIPOS>CRYSIN
   7.4428   10.7189   14.0290  87.5830  88.4510  75.2140   2 1

