# MOL2 file generated by ConQuest
# Please check atom types

@<TRIPOS>MOLECULE
MEQFEW
   148   150     2
SMALL
NO_CHARGES
****
Generated from CSD

@<TRIPOS>ATOM
      1 N1         2.2243    7.2208   -1.9020 N.am      1 RES1    0.0000
      2 N2         0.4994    8.6568   -0.0846 N.3       1 RES1    0.0000
      3 O1         3.7304    8.9055   -1.8853 O.2       1 RES1    0.0000
      4 O2         0.4791    9.2341    1.2424 O.3       1 RES1    0.0000
      5 O3        -0.8859   11.8222    0.2244 O.2       1 RES1    0.0000
      6 O4        -2.4142   10.2150   -0.0672 O.3       1 RES1    0.0000
      7 C1         2.6364    8.4588   -1.5666 C.2       1 RES1    0.0000
      8 C2         1.5803    9.3797   -0.8973 C.3       1 RES1    0.0000
      9 C3         0.6565    7.1789    0.0164 C.3       1 RES1    0.0000
     10 C4         0.9404    6.7470   -1.4274 C.3       1 RES1    0.0000
     11 H1         0.9199    5.7682   -1.4803 H         1 RES1    0.0000
     12 H2         0.2342    7.0949   -2.0110 H         1 RES1    0.0000
     13 C5         3.0029    6.3764   -2.8301 C.3       1 RES1    0.0000
     14 H3         3.7888    6.9015   -3.1260 H         1 RES1    0.0000
     15 C6         2.1795    6.0538   -4.0567 C.3       1 RES1    0.0000
     16 H4         1.8792    6.8778   -4.4708 H         1 RES1    0.0000
     17 H5         1.4089    5.5222   -3.7984 H         1 RES1    0.0000
     18 H6         2.7200    5.5528   -4.6866 H         1 RES1    0.0000
     19 C7         3.5187    5.1191   -2.1475 C.3       1 RES1    0.0000
     20 H7         2.7685    4.5586   -1.8929 H         1 RES1    0.0000
     21 H8         4.0217    5.3645   -1.3559 H         1 RES1    0.0000
     22 H9         4.0938    4.6333   -2.7590 H         1 RES1    0.0000
     23 C8         2.2994   10.4965   -0.1350 C.3       1 RES1    0.0000
     24 H10        2.8045   11.0292   -0.7842 H         1 RES1    0.0000
     25 H11        1.6180   11.0835    0.2535 H         1 RES1    0.0000
     26 C9         3.2522   10.0842    0.9759 C.3       1 RES1    0.0000
     27 H12        3.9088    9.4616    0.6252 H         1 RES1    0.0000
     28 H13        2.7528    9.6584    1.6898 H         1 RES1    0.0000
     29 H14        3.7042   10.8697    1.3228 H         1 RES1    0.0000
     30 C10        1.5746   10.6585   -3.2066 C.3       1 RES1    0.0000
     31 H15        2.1692   10.0028   -3.6047 H         1 RES1    0.0000
     32 H16        2.0972   11.3940   -2.8488 H         1 RES1    0.0000
     33 H17        0.9647   10.9936   -3.8819 H         1 RES1    0.0000
     34 C11        0.7818   10.0084   -2.0858 C.3       1 RES1    0.0000
     35 H18        0.2265    9.3038   -2.4803 H         1 RES1    0.0000
     36 H19        0.1749   10.6831   -1.7165 H         1 RES1    0.0000
     37 C12       -0.6573    6.4287    0.4375 C.3       1 RES1    0.0000
     38 H20       -0.4771    5.4849    0.1984 H         1 RES1    0.0000
     39 C13       -0.8869    6.3834    1.9501 C.3       1 RES1    0.0000
     40 H21       -1.0724    7.2883    2.2756 H         1 RES1    0.0000
     41 H22       -1.6710    5.8276    2.1401 H         1 RES1    0.0000
     42 C14        0.3168    5.8218    2.6910 C.3       1 RES1    0.0000
     43 H23        0.1347    5.8259    3.6535 H         1 RES1    0.0000
     44 H24        0.4613    4.8928    2.4157 H         1 RES1    0.0000
     45 C15        1.5723    6.6294    2.4140 C.3       1 RES1    0.0000
     46 H25        1.4336    7.5496    2.7527 H         1 RES1    0.0000
     47 C16        1.8266    6.7012    0.9121 C.3       1 RES1    0.0000
     48 H26        2.0961    5.8090    0.6079 H         1 RES1    0.0000
     49 H27        2.5873    7.3019    0.7622 H         1 RES1    0.0000
     50 C17       -1.9055    6.8077   -0.4479 C.3       1 RES1    0.0000
     51 H28       -1.7042    7.6701   -0.8898 H         1 RES1    0.0000
     52 C18       -3.2197    6.9806    0.3131 C.3       1 RES1    0.0000
     53 H29       -3.4507    6.1466    0.7528 H         1 RES1    0.0000
     54 H30       -3.9237    7.2256   -0.3087 H         1 RES1    0.0000
     55 H31       -3.1183    7.6802    0.9779 H         1 RES1    0.0000
     56 C19       -2.1577    5.7752   -1.5505 C.3       1 RES1    0.0000
     57 H32       -2.8714    6.0872   -2.1291 H         1 RES1    0.0000
     58 H33       -2.4135    4.9301   -1.1496 H         1 RES1    0.0000
     59 H34       -1.3490    5.6546   -2.0709 H         1 RES1    0.0000
     60 C20        2.7915    6.0351    3.1167 C.3       1 RES1    0.0000
     61 H35        2.9168    5.1185    2.8268 H         1 RES1    0.0000
     62 H36        2.6520    6.0550    4.0771 H         1 RES1    0.0000
     63 H37        3.5791    6.5554    2.8929 H         1 RES1    0.0000
     64 C21       -0.7872    9.8119    1.5735 C.3       1 RES1    0.0000
     65 H38       -1.4402    9.0884    1.7433 H         1 RES1    0.0000
     66 C22       -0.5426   10.5674    2.8524 C.3       1 RES1    0.0000
     67 H39        0.0835   11.2888    2.6866 H         1 RES1    0.0000
     68 H40       -0.1735    9.9655    3.5181 H         1 RES1    0.0000
     69 H41       -1.3809   10.9342    3.1764 H         1 RES1    0.0000
     70 C23       -1.3347   10.7364    0.4901 C.2       1 RES1    0.0000
     71 C24       -3.0423   10.9915   -1.1134 C.3       1 RES1    0.0000
     72 H42       -2.3871   11.2040   -1.7968 H         1 RES1    0.0000
     73 H43       -3.3957   11.8130   -0.7370 H         1 RES1    0.0000
     74 H44       -3.7659   10.4778   -1.5071 H         1 RES1    0.0000
     75 N3         1.6464    1.1810    9.7552 N.am      2 RES2    0.0000
     76 N4         3.5173    2.3765    7.9494 N.3       2 RES2    0.0000
     77 O5         0.4226    3.0682    9.8620 O.2       2 RES2    0.0000
     78 O6         3.6998    2.8824    6.6014 O.3       2 RES2    0.0000
     79 O7         5.0052    5.4812    7.3815 O.2       2 RES2    0.0000
     80 O8         6.5964    4.0181    7.9472 O.3       2 RES2    0.0000
     81 C25        1.4112    2.4659    9.4453 C.2       2 RES2    0.0000
     82 C26        2.4623    3.2356    8.6310 C.3       2 RES2    0.0000
     83 C27        3.2555    0.9088    7.8949 C.3       2 RES2    0.0000
     84 C28        2.9021    0.5609    9.3428 C.3       2 RES2    0.0000
     85 H45        2.8274   -0.4123    9.4330 H         2 RES2    0.0000
     86 H46        3.6222    0.8652    9.9338 H         2 RES2    0.0000
     87 C29        0.8052    0.5292   10.7782 C.3       2 RES2    0.0000
     88 H47       -0.0569    1.0145   10.7984 H         2 RES2    0.0000
     89 C30        1.4450    0.7041   12.1308 C.3       2 RES2    0.0000
     90 H48        1.5036    1.6507   12.3401 H         2 RES2    0.0000
     91 H49        2.3358    0.3206   12.1196 H         2 RES2    0.0000
     92 H50        0.9081    0.2562   12.8031 H         2 RES2    0.0000
     93 C31        0.4980   -0.9007   10.4491 C.3       2 RES2    0.0000
     94 H51        1.3013   -1.4353   10.5495 H         2 RES2    0.0000
     95 H52        0.1810   -0.9602    9.5338 H         2 RES2    0.0000
     96 H53       -0.1874   -1.2317   11.0503 H         2 RES2    0.0000
     97 C32        1.7168    4.2072    7.6867 C.3       2 RES2    0.0000
     98 H54        1.2093    4.8334    8.2456 H         2 RES2    0.0000
     99 H55        2.3910    4.7317    7.2078 H         2 RES2    0.0000
    100 C33        0.7642    3.6340    6.6567 C.3       2 RES2    0.0000
    101 H56        0.0906    3.0962    7.1023 H         2 RES2    0.0000
    102 H57        1.2577    3.0792    6.0330 H         2 RES2    0.0000
    103 H58        0.3336    4.3584    6.1763 H         2 RES2    0.0000
    104 C34        3.1712    4.1302    9.6862 C.3       2 RES2    0.0000
    105 H59        3.7247    4.7792    9.2047 H         2 RES2    0.0000
    106 H60        2.4806    4.6366   10.1621 H         2 RES2    0.0000
    107 C35        4.0476    3.4550   10.7231 C.3       2 RES2    0.0000
    108 H61        4.7799    2.9995   10.2803 H         2 RES2    0.0000
    109 H62        3.5205    2.8112   11.2220 H         2 RES2    0.0000
    110 H63        4.4024    4.1226   11.3306 H         2 RES2    0.0000
    111 C36        4.5317    0.0640    7.5135 C.3       2 RES2    0.0000
    112 H64        4.3031   -0.8568    7.7968 H         2 RES2    0.0000
    113 C37        4.7576   -0.0584    5.9946 C.3       2 RES2    0.0000
    114 H65        5.0247    0.8160    5.6409 H         2 RES2    0.0000
    115 H66        5.4941   -0.6837    5.8315 H         2 RES2    0.0000
    116 C38        3.5353   -0.5363    5.2529 C.3       2 RES2    0.0000
    117 H67        3.3280   -1.4522    5.5322 H         2 RES2    0.0000
    118 H68        3.7283   -0.5514    4.2929 H         2 RES2    0.0000
    119 C39        2.3262    0.3459    5.5037 C.3       2 RES2    0.0000
    120 H69        2.5116    1.2487    5.1433 H         2 RES2    0.0000
    121 C40        2.0773    0.4589    7.0015 C.3       2 RES2    0.0000
    122 H70        1.7722   -0.4157    7.3228 H         2 RES2    0.0000
    123 H71        1.3386    1.0892    7.1370 H         2 RES2    0.0000
    124 C41        5.8117    0.4090    8.3411 C.3       2 RES2    0.0000
    125 H72        5.6878    1.3199    8.7102 H         2 RES2    0.0000
    126 C42        7.1354    0.4058    7.5677 C.3       2 RES2    0.0000
    127 H73        7.3039   -0.4835    7.2189 H         2 RES2    0.0000
    128 H74        7.8578    0.6617    8.1622 H         2 RES2    0.0000
    129 H75        7.0818    1.0366    6.8330 H         2 RES2    0.0000
    130 C43        5.9919   -0.5451    9.5294 C.3       2 RES2    0.0000
    131 H76        6.7308   -0.2409   10.0803 H         2 RES2    0.0000
    132 H77        6.1806   -1.4387    9.2015 H         2 RES2    0.0000
    133 H78        5.1791   -0.5599   10.0582 H         2 RES2    0.0000
    134 C44        1.0850   -0.2109    4.8152 C.3       2 RES2    0.0000
    135 H79        0.9028   -1.1028    5.1496 H         2 RES2    0.0000
    136 H80        1.2352   -0.2494    3.8582 H         2 RES2    0.0000
    137 H81        0.3272    0.3648    5.0000 H         2 RES2    0.0000
    138 C45        5.0503    3.2735    6.3737 C.3       2 RES2    0.0000
    139 H82        5.6445    2.4888    6.4834 H         2 RES2    0.0000
    140 C46        5.0913    3.7407    4.9307 C.3       2 RES2    0.0000
    141 H83        4.4721    4.4789    4.8126 H         2 RES2    0.0000
    142 H84        4.8379    3.0097    4.3464 H         2 RES2    0.0000
    143 H85        5.9892    4.0344    4.7102 H         2 RES2    0.0000
    144 C47        5.5115    4.3850    7.2861 C.2       2 RES2    0.0000
    145 C48        7.1883    4.9912    8.8409 C.3       2 RES2    0.0000
    146 H86        6.5466    5.2321    9.5275 H         2 RES2    0.0000
    147 H87        7.4387    5.7818    8.3385 H         2 RES2    0.0000
    148 H88        7.9776    4.6095    9.2582 H         2 RES2    0.0000
@<TRIPOS>BOND
     1    1    7 1
     2    2    4 1
     3    3    7 2
     4    4   64 1
     5    5   70 2
     6    6   70 1
     7    7    8 1
     8    8    2 1
     9    9    2 1
    10   10    1 1
    11   11   10 1
    12   12   10 1
    13   13    1 1
    14   14   13 1
    15   15   13 1
    16   16   15 1
    17   17   15 1
    18   18   15 1
    19   19   13 1
    20   20   19 1
    21   21   19 1
    22   22   19 1
    23   23    8 1
    24   24   23 1
    25   25   23 1
    26   26   23 1
    27   27   26 1
    28   28   26 1
    29   29   26 1
    30   30   31 1
    31   32   30 1
    32   33   30 1
    33   34    8 1
    34   35   34 1
    35   36   34 1
    36   37    9 1
    37   38   37 1
    38   39   37 1
    39   40   39 1
    40   41   39 1
    41   42   39 1
    42   43   42 1
    43   44   42 1
    44   45   42 1
    45   46   45 1
    46   47    9 1
    47   48   47 1
    48   49   47 1
    49   50   37 1
    50   51   50 1
    51   52   50 1
    52   53   52 1
    53   54   52 1
    54   55   52 1
    55   56   50 1
    56   57   56 1
    57   58   56 1
    58   59   56 1
    59   60   45 1
    60   61   60 1
    61   62   60 1
    62   63   60 1
    63   64   65 1
    64   66   64 1
    65   67   66 1
    66   68   66 1
    67   69   66 1
    68   70   64 1
    69   71    6 1
    70   72   71 1
    71   73   71 1
    72   74   71 1
    73   75   81 1
    74   76   78 1
    75   77   81 2
    76   78  138 1
    77   79  144 2
    78   80  144 1
    79   81   82 1
    80   82   76 1
    81   83   76 1
    82   84   75 1
    83   85   84 1
    84   86   84 1
    85   87   75 1
    86   88   87 1
    87   89   87 1
    88   90   89 1
    89   91   89 1
    90   92   89 1
    91   93   87 1
    92   94   93 1
    93   95   93 1
    94   96   93 1
    95   97   82 1
    96   98   97 1
    97   99   97 1
    98  100   97 1
    99  101  100 1
   100  102  100 1
   101  103  100 1
   102  104   82 1
   103  105  104 1
   104  106  104 1
   105  107  104 1
   106  108  107 1
   107  109  107 1
   108  110  107 1
   109  111   83 1
   110  112  111 1
   111  113  111 1
   112  114  113 1
   113  115  113 1
   114  116  113 1
   115  117  116 1
   116  118  116 1
   117  119  116 1
   118  120  119 1
   119  121   83 1
   120  122  121 1
   121  123  121 1
   122  124  111 1
   123  125  124 1
   124  126  124 1
   125  127  126 1
   126  128  126 1
   127  129  126 1
   128  130  124 1
   129  131  130 1
   130  132  130 1
   131  133  130 1
   132  134  119 1
   133  135  134 1
   134  136  134 1
   135  137  134 1
   136  138  139 1
   137  140  138 1
   138  141  140 1
   139  142  140 1
   140  143  140 1
   141  144  138 1
   142  145   80 1
   143  146  145 1
   144  147  145 1
   145  148  145 1
   146    9   10 1
   147   30   34 1
   148   45   47 1
   149   83   84 1
   150  119  121 1
@<TRIPOS>SUBSTRUCTURE
     1 RES1 1
     2 RES2 75

@<TRIPOS>CRYSIN
   9.3970   16.9654   15.9480  90.0000  99.0850  90.0000   4 1

