# MOL2 file generated by ConQuest
# Please check atom types

@<TRIPOS>MOLECULE
MEQFAS
    68    69     1
SMALL
NO_CHARGES
****
Generated from CSD

@<TRIPOS>ATOM
      1 O1         5.7587    3.9607   19.5025 O.2       1 RES1    0.0000
      2 N1         7.6227    3.2215   18.4855 N.am      1 RES1    0.0000
      3 C1         6.8906    4.1714   19.0692 C.2       1 RES1    0.0000
      4 O2         8.7866    7.2341   18.1042 O.3       1 RES1    0.0000
      5 N2         8.7765    5.8254   18.4899 N.3       1 RES1    0.0000
      6 C2         7.5235    5.5685   19.3028 C.3       1 RES1    0.0000
      7 C3         8.8609    4.9845   17.2620 C.3       1 RES1    0.0000
      8 O3         8.5055    8.9357   20.5057 O.2       1 RES1    0.0000
      9 O4        10.5077    8.0581   21.0018 O.3       1 RES1    0.0000
     10 C4         8.8838    3.5611   17.8365 C.3       1 RES1    0.0000
     11 H1         9.0579    2.9226   17.1137 H         1 RES1    0.0000
     12 H2         9.6130    3.4865   18.4877 H         1 RES1    0.0000
     13 C5         7.0576    1.8592   18.3525 C.3       1 RES1    0.0000
     14 H3         6.3703    1.7560   19.0572 H         1 RES1    0.0000
     15 C6         8.1026    0.7960   18.5873 C.3       1 RES1    0.0000
     16 H4         8.7226    0.7826   17.8425 H         1 RES1    0.0000
     17 H5         7.6714   -0.0693   18.6649 H         1 RES1    0.0000
     18 H6         8.5851    0.9916   19.4057 H         1 RES1    0.0000
     19 C7         6.3557    1.7045   17.0135 C.3       1 RES1    0.0000
     20 H7         5.6669    2.3819   16.9285 H         1 RES1    0.0000
     21 H8         5.9517    0.8239   16.9603 H         1 RES1    0.0000
     22 H9         7.0010    1.8083   16.2972 H         1 RES1    0.0000
     23 C8         6.4313    6.6158   19.0839 C.3       1 RES1    0.0000
     24 H10        6.7578    7.4858   19.3639 H         1 RES1    0.0000
     25 H11        5.6485    6.3812   19.6068 H         1 RES1    0.0000
     26 H12        6.1959    6.6449   18.1432 H         1 RES1    0.0000
     27 C9         7.9340    5.5298   20.7823 C.3       1 RES1    0.0000
     28 H13        8.5986    4.8354   20.9151 H         1 RES1    0.0000
     29 H14        7.1560    5.3409   21.3293 H         1 RES1    0.0000
     30 H15        8.3070    6.3885   21.0366 H         1 RES1    0.0000
     31 C10        7.6765    5.1066   16.2761 C.3       1 RES1    0.0000
     32 H16        7.6840    4.3214   15.6898 H         1 RES1    0.0000
     33 H17        6.8450    5.0772   16.7931 H         1 RES1    0.0000
     34 C11        7.6455    6.3485   15.4009 C.3       1 RES1    0.0000
     35 H18        7.5988    7.1480   15.9826 H         1 RES1    0.0000
     36 C12        8.9397    6.4009   14.5976 C.3       1 RES1    0.0000
     37 H19        8.9746    5.6326   13.9892 H         1 RES1    0.0000
     38 H20        8.9503    7.2160   14.0549 H         1 RES1    0.0000
     39 C13       10.1614    6.3831   15.4977 C.3       1 RES1    0.0000
     40 H21       10.1808    7.2112   16.0204 H         1 RES1    0.0000
     41 H22       10.9665    6.3642   14.9391 H         1 RES1    0.0000
     42 C14       10.1965    5.1850   16.4607 C.3       1 RES1    0.0000
     43 H23       10.2476    4.3943   15.8671 H         1 RES1    0.0000
     44 C15       11.4978    5.1003   17.3323 C.3       1 RES1    0.0000
     45 H24       11.2233    5.1878   18.2786 H         1 RES1    0.0000
     46 C16       12.5458    6.1746   17.0633 C.3       1 RES1    0.0000
     47 H25       13.2811    6.0737   17.6872 H         1 RES1    0.0000
     48 H26       12.1456    7.0520   17.1734 H         1 RES1    0.0000
     49 H27       12.8781    6.0834   16.1558 H         1 RES1    0.0000
     50 C17       12.1757    3.7490   17.1820 C.3       1 RES1    0.0000
     51 H28       12.4353    3.6177   16.2574 H         1 RES1    0.0000
     52 H29       11.5604    3.0466   17.4482 H         1 RES1    0.0000
     53 H30       12.9643    3.7186   17.7469 H         1 RES1    0.0000
     54 C18        6.4158    6.3253   14.4984 C.3       1 RES1    0.0000
     55 H31        6.4245    7.1054   13.9215 H         1 RES1    0.0000
     56 H32        5.6136    6.3362   15.0446 H         1 RES1    0.0000
     57 H33        6.4274    5.5220   13.9554 H         1 RES1    0.0000
     58 C19       10.0112    9.2464   17.9556 C.3       1 RES1    0.0000
     59 H34       10.2457    9.0340   17.0380 H         1 RES1    0.0000
     60 H35       10.7175    9.7802   18.3543 H         1 RES1    0.0000
     61 H36        9.1809    9.7474   17.9699 H         1 RES1    0.0000
     62 C20        9.8407    7.9570   18.7480 C.3       1 RES1    0.0000
     63 H37       10.6788    7.4299   18.7306 H         1 RES1    0.0000
     64 C21        9.5006    8.3621   20.1722 C.2       1 RES1    0.0000
     65 C22       10.3736    8.5017   22.3639 C.3       1 RES1    0.0000
     66 H38        9.9638    9.3804   22.3788 H         1 RES1    0.0000
     67 H39       11.2504    8.5467   22.7771 H         1 RES1    0.0000
     68 H40        9.8165    7.8771   22.8547 H         1 RES1    0.0000
@<TRIPOS>BOND
     1    1    3 2
     2    2    3 1
     3    3    6 1
     4    4    5 1
     5    5    6 1
     6    6   23 1
     7    7    5 1
     8    8   64 2
     9    9   64 1
    10   10    2 1
    11   11   10 1
    12   12   10 1
    13   13    2 1
    14   14   13 1
    15   15   13 1
    16   16   15 1
    17   17   15 1
    18   18   15 1
    19   19   13 1
    20   20   19 1
    21   21   19 1
    22   22   19 1
    23   23   24 1
    24   25   23 1
    25   26   23 1
    26   27    6 1
    27   28   27 1
    28   29   27 1
    29   30   27 1
    30   31    7 1
    31   32   31 1
    32   33   31 1
    33   34   31 1
    34   35   34 1
    35   36   34 1
    36   37   36 1
    37   38   36 1
    38   39   36 1
    39   40   39 1
    40   41   39 1
    41   42    7 1
    42   43   42 1
    43   44   42 1
    44   45   44 1
    45   46   44 1
    46   47   46 1
    47   48   46 1
    48   49   46 1
    49   50   44 1
    50   51   50 1
    51   52   50 1
    52   53   50 1
    53   54   34 1
    54   55   54 1
    55   56   54 1
    56   57   54 1
    57   58   59 1
    58   60   58 1
    59   61   58 1
    60   62    4 1
    61   63   62 1
    62   64   62 1
    63   65    9 1
    64   66   65 1
    65   67   65 1
    66   68   65 1
    67    7   10 1
    68   39   42 1
    69   58   62 1
@<TRIPOS>SUBSTRUCTURE
     1 RES1 1

@<TRIPOS>CRYSIN
   9.6886   12.1523   19.9135  90.0000  90.0000  90.0000  19 1

