# MOL2 file generated by ConQuest
# Please check atom types

@<TRIPOS>MOLECULE
MEQNIG
    58    60     2
SMALL
NO_CHARGES
****
Generated from CSD

@<TRIPOS>ATOM
      1 O1         5.1883   10.1629   -1.1834 O.3       1 RES1    0.0000
      2 C1         5.6813   11.2242   -1.8923 C.2       1 RES1    0.0000
      3 H1         6.1904   11.1229   -2.6880 H         1 RES1    0.0000
      4 N1         5.3925   12.3870   -1.3809 N.2       1 RES1    0.0000
      5 C2         4.5947   12.0830   -0.2795 C.2       1 RES1    0.0000
      6 C3         4.4895   10.7201   -0.1225 C.2       1 RES1    0.0000
      7 O2         3.1785   13.0093    1.4106 O.2       1 RES1    0.0000
      8 C4         3.9547   13.1878    0.4746 C.2       1 RES1    0.0000
      9 O3         4.2491   14.3698   -0.0250 O.3       1 RES1    0.0000
     10 C5         3.5021   15.5277    0.5150 C.3       1 RES1    0.0000
     11 H2         2.5495   15.2768    0.6161 H         1 RES1    0.0000
     12 H3         3.5518   16.2731   -0.1332 H         1 RES1    0.0000
     13 C6         4.0191   15.9933    1.8293 C.3       1 RES1    0.0000
     14 H4         3.5603   16.8207    2.0862 H         1 RES1    0.0000
     15 H5         4.9822   16.1621    1.7603 H         1 RES1    0.0000
     16 H6         3.8566   15.3058    2.5084 H         1 RES1    0.0000
     17 C7         3.7947    9.7335    0.7029 C.ar      1 RES1    0.0000
     18 C8         3.6376    8.4357    0.2391 C.ar      1 RES1    0.0000
     19 H7         3.9929    8.1944   -0.6078 H         1 RES1    0.0000
     20 C9         2.9687    7.4852    0.9955 C.ar      1 RES1    0.0000
     21 H8         2.8506    6.5999    0.6732 H         1 RES1    0.0000
     22 C10        2.4745    7.8664    2.2420 C.ar      1 RES1    0.0000
     23 C11        2.6388    9.1376    2.7618 C.ar      1 RES1    0.0000
     24 H9         2.3147    9.3596    3.6264 H         1 RES1    0.0000
     25 C12        3.2937   10.0857    1.9779 C.ar      1 RES1    0.0000
     26 H10        3.4046   10.9710    2.3003 H         1 RES1    0.0000
     27 N2         1.7221    6.8532    3.0199 N.pl3     1 RES1    0.0000
     28 O4         1.6210    5.7219    2.5738 O.2       1 RES1    0.0000
     29 O5         1.2298    7.2271    4.0962 O.2       1 RES1    0.0000
     30 O6         2.2018    1.6186    1.5462 O.3       2 RES2    0.0000
     31 C13        1.6843    0.5018    2.1052 C.2       2 RES2    0.0000
     32 H11        1.1644    0.5235    2.8997 H         2 RES2    0.0000
     33 N3         1.9451   -0.5982    1.4844 N.2       2 RES2    0.0000
     34 C14        2.7262   -0.1689    0.4056 C.2       2 RES2    0.0000
     35 C15        2.8739    1.1820    0.4127 C.2       2 RES2    0.0000
     36 C16        3.3354   -1.1820   -0.5138 C.2       2 RES2    0.0000
     37 O7         3.0582   -2.4214   -0.1606 O.3       2 RES2    0.0000
     38 O8         4.0107   -0.8684   -1.4808 O.2       2 RES2    0.0000
     39 C17        3.6646   -3.4568   -1.0086 C.3       2 RES2    0.0000
     40 H12        4.6368   -3.2976   -1.1026 H         2 RES2    0.0000
     41 H13        3.2548   -3.4447   -1.9102 H         2 RES2    0.0000
     42 C18        3.4206   -4.7666   -0.3509 C.3       2 RES2    0.0000
     43 H14        3.9573   -5.4589   -0.7921 H         2 RES2    0.0000
     44 H15        2.4704   -4.9958   -0.4222 H         2 RES2    0.0000
     45 H16        3.6733   -4.7111    0.5935 H         2 RES2    0.0000
     46 C19        3.5616    2.2217   -0.3283 C.ar      2 RES2    0.0000
     47 C20        3.9371    3.4182    0.3259 C.ar      2 RES2    0.0000
     48 H17        3.7076    3.5412    1.2393 H         2 RES2    0.0000
     49 C21        4.6245    4.4096   -0.3354 C.ar      2 RES2    0.0000
     50 H18        4.9041    5.1960    0.1166 H         2 RES2    0.0000
     51 C22        4.8972    4.2239   -1.6842 C.ar      2 RES2    0.0000
     52 C23        4.5034    3.0998   -2.3847 C.ar      2 RES2    0.0000
     53 H19        4.6912    3.0226   -3.3136 H         2 RES2    0.0000
     54 C24        3.8318    2.0818   -1.7139 C.ar      2 RES2    0.0000
     55 H20        3.5547    1.3026   -2.1790 H         2 RES2    0.0000
     56 N4         5.6679    5.2828   -2.3693 N.pl3     2 RES2    0.0000
     57 O9         5.9472    6.2936   -1.7567 O.2       2 RES2    0.0000
     58 O10        5.9569    5.0971   -3.5575 O.2       2 RES2    0.0000
@<TRIPOS>BOND
     1    1    2 1
     2    2    3 1
     3    4    2 2
     4    5    4 1
     5    6    1 1
     6    7    8 2
     7    8    5 1
     8    9    8 1
     9   10    9 1
    10   11   10 1
    11   12   10 1
    12   13   10 1
    13   14   13 1
    14   15   13 1
    15   16   13 1
    16   17    6 1
    17   18   17 ar
    18   19   18 1
    19   20   18 ar
    20   21   20 1
    21   22   20 ar
    22   23   22 ar
    23   24   23 1
    24   25   17 ar
    25   26   25 1
    26   27   22 1
    27   28   27 2
    28   29   27 2
    29   30   31 1
    30   31   32 1
    31   33   31 2
    32   34   33 1
    33   35   30 1
    34   36   34 1
    35   37   36 1
    36   38   36 2
    37   39   37 1
    38   40   39 1
    39   41   39 1
    40   42   39 1
    41   43   42 1
    42   44   42 1
    43   45   42 1
    44   46   35 1
    45   47   46 ar
    46   48   47 1
    47   49   47 ar
    48   50   49 1
    49   51   49 ar
    50   52   51 ar
    51   53   52 1
    52   54   46 ar
    53   55   54 1
    54   56   51 1
    55   57   56 2
    56   58   56 2
    57    5    6 2
    58   23   25 ar
    59   34   35 2
    60   52   54 ar
@<TRIPOS>SUBSTRUCTURE
     1 RES1 1
     2 RES2 30

@<TRIPOS>CRYSIN
   4.0555   24.1226   11.9033  90.0000  92.2820  90.0000   7 1

