# MOL2 file generated by ConQuest
# Please check atom types

@<TRIPOS>MOLECULE
MEQVAG01
    34    38     2
SMALL
NO_CHARGES
****
Generated from CSD

@<TRIPOS>ATOM
      1 C1         5.0897    8.3864    9.4404 C.2       1 RES1    0.0000
      2 N1         5.0528    9.4472    8.5465 N.pl3     1 RES1    0.0000
      3 N2         5.1124   10.7608    8.8365 N.2       1 RES1    0.0000
      4 N3         5.0253   11.3564    7.6960 N.2       1 RES1    0.0000
      5 N4         4.9210   10.4799    6.6548 N.2       1 RES1    0.0000
      6 C2         4.9338    9.2754    7.2085 C.2       1 RES1    0.0000
      7 C3         4.8375    7.9207    6.6901 C.2       1 RES1    0.0000
      8 N5         4.7455    7.7425    5.2459 N.pl3     1 RES1    0.0000
      9 O1         4.7372    8.7333    4.5415 O.2       1 RES1    0.0000
     10 O2         4.7043    6.5849    4.8304 O.2       1 RES1    0.0000
     11 C4         4.8615    6.8489    7.5019 C.2       1 RES1    0.0000
     12 H1         4.8026    5.9824    7.1685 H         1 RES1    0.0000
     13 C5         4.9797    7.1030    8.8833 C.2       1 RES1    0.0000
     14 N6         5.0529    6.2617    9.9256 N.pl3     1 RES1    0.0000
     15 O3         5.0227    5.0545   10.0729 O.2       1 RES1    0.0000
     16 O4         5.1945    7.0846   11.1076 O.3       1 RES1    0.0000
     17 N7         5.2130    8.4278   10.7294 N.2       1 RES1    0.0000
     18 C6         0.1346    5.3414    3.7252 C.2       2 RES2    0.0000
     19 N8         0.1215    4.4274    2.6909 N.pl3     2 RES2    0.0000
     20 N9        -0.9245    4.0718    1.9077 N.2       2 RES2    0.0000
     21 N10       -0.4955    3.1127    1.1759 N.2       2 RES2    0.0000
     22 N11        0.8236    2.8097    1.4339 N.2       2 RES2    0.0000
     23 C7         1.1892    3.6436    2.3884 C.2       2 RES2    0.0000
     24 O5         3.4652    2.1160    2.0333 O.2       2 RES2    0.0000
     25 N12        3.5974    3.0551    2.7868 N.pl3     2 RES2    0.0000
     26 C8         2.4121    3.8276    3.1430 C.2       2 RES2    0.0000
     27 O6         4.6464    3.4019    3.2846 O.2       2 RES2    0.0000
     28 C9         2.4771    4.6703    4.1990 C.2       2 RES2    0.0000
     29 H2         3.2463    4.7554    4.7139 H         2 RES2    0.0000
     30 C10        1.3115    5.4152    4.4787 C.2       2 RES2    0.0000
     31 N13        1.0875    6.3606    5.4092 N.pl3     2 RES2    0.0000
     32 O7         1.7265    6.8576    6.2986 O.2       2 RES2    0.0000
     33 O8        -0.2615    6.8425    5.1729 O.3       2 RES2    0.0000
     34 N14       -0.8027    6.1577    4.1009 N.2       2 RES2    0.0000
@<TRIPOS>BOND
     1    1    2 1
     2    2    3 1
     3    3    4 2
     4    4    5 1
     5    5    6 2
     6    6    2 1
     7    7    6 1
     8    8    7 1
     9    9    8 2
    10   10    8 2
    11   11    7 2
    12   12   11 1
    13   13    1 1
    14   14   13 2
    15   15   14 1
    16   16   14 1
    17   17    1 2
    18   18   19 1
    19   19   20 1
    20   20   21 2
    21   21   22 1
    22   22   23 2
    23   23   19 1
    24   24   25 2
    25   25   26 1
    26   26   23 1
    27   27   25 2
    28   28   26 2
    29   29   28 1
    30   30   18 1
    31   31   30 2
    32   32   31 1
    33   33   31 1
    34   34   18 2
    35   11   13 1
    36   16   17 1
    37   28   30 1
    38   33   34 1
@<TRIPOS>SUBSTRUCTURE
     1 RES1 1
     2 RES2 18

@<TRIPOS>CRYSIN
  11.3437   12.5208   12.4539  90.0000 113.5500  90.0000   9 1

