# MOL2 file generated by ConQuest
# Please check atom types

@<TRIPOS>MOLECULE
MERKUS
    32    23     2
SMALL
NO_CHARGES
****
Generated from CSD

@<TRIPOS>ATOM
      1 O1         1.2552    0.9495   -2.9387 O.2       1 RES1    0.0000
      2 O2        -0.8318    0.9324   -2.3086 O.2       1 RES1    0.0000
      3 O3         0.4244    0.9407    2.6737 O.3       1 RES1    0.0000
      4 N1         0.3824    0.9235   -2.0651 N.pl3     1 RES1    0.0000
      5 N2        -0.1190    0.9318    0.3255 N.2       1 RES1    0.0000
      6 N3         1.9992    0.9286    1.0652 N.pl3     1 RES1    0.0000
      7 C1         0.8076    0.9464   -0.7037 C.2       1 RES1    0.0000
      8 C2         2.1119    0.9388   -0.2952 C.2       1 RES1    0.0000
      9 C3         0.6718    0.9210    1.3539 C.2       1 RES1    0.0000
     10 C4         2.8025    0.9369    2.2763 C.3       1 RES1    0.0000
     11 C5         1.7625    1.2918    3.2904 C.3       1 RES1    0.0000
     12 C6         1.7873    0.5375    4.5678 C.3       1 RES1    0.0000
     13 C7         3.1680    0.8519    5.2971 C.3       1 RES1    0.0000
     14 H1         2.8830    0.9394   -0.8142 H         1 RES1    0.0000
     15 H2         3.5054    1.6037    2.2360 H         1 RES1    0.0000
     16 H3         1.7979    2.2534    3.4752 H         1 RES1    0.0000
     17 H4         3.2210    1.7913    5.4906 H         1 RES1    0.0000
     18 H5         3.8966    0.6015    4.7248 H         1 RES1    0.0000
     19 H6         1.7103   -0.4139    4.3957 H         1 RES1    0.0000
     20 H7         1.0440    0.8082    5.1302 H         1 RES1    0.0000
     21 H8         3.1926    0.0666    2.4531 H         1 RES1    0.0000
     22 H9         3.2190    0.3537    6.1154 H         1 RES1    0.0000
     23 C8         1.8789    1.3964    4.6313 Du        2 SUP2    0.0000
     24 C9         1.6964    0.5388    3.3816 Du        2 SUP2    0.0000
     25 H10        3.1783    1.8141    2.4496 Du        2 SUP2    0.0000
     26 H11        3.5181    0.2827    2.2336 Du        2 SUP2    0.0000
     27 H12        1.7136   -0.4215    3.5895 Du        2 SUP2    0.0000
     28 H13        3.3304    1.3267    6.1154 Du        2 SUP2    0.0000
     29 H14        3.9117    0.9762    4.7029 Du        2 SUP2    0.0000
     30 H15        3.0613   -0.0830    5.4848 Du        2 SUP2    0.0000
     31 H16        1.1181    1.3051    5.2272 Du        2 SUP2    0.0000
     32 H17        1.9813    2.3314    4.3945 Du        2 SUP2    0.0000
@<TRIPOS>BOND
     1    1    4 2
     2    2    4 2
     3    3    9 1
     4    4    7 1
     5    5    7 1
     6    6    8 1
     7    7    8 2
     8    8   14 1
     9    9    5 2
    10   10    6 1
    11   11    3 1
    12   12   11 1
    13   13   12 1
    14   15   10 1
    15   16   11 1
    16   17   13 1
    17   18   13 1
    18   19   12 1
    19   20   12 1
    20   21   10 1
    21   22   13 1
    22    6    9 1
    23   10   11 1
@<TRIPOS>SUBSTRUCTURE
     1 RES1 1
     2 SUP2 23

@<TRIPOS>CRYSIN
   5.5702    6.3387   11.7930  90.0000 101.6670  90.0000   4 1

