# MOL2 file generated by ConQuest
# Please check atom types

@<TRIPOS>MOLECULE
MERMOO
    32    34     1
SMALL
NO_CHARGES
****
Generated from CSD

@<TRIPOS>ATOM
      1 N1         4.9375    1.2098    2.6512 N.pl3     1 RES1    0.0000
      2 N2         4.0248    0.1980    2.7361 N.2       1 RES1    0.0000
      3 N3         4.2796    1.2210    4.7262 N.2       1 RES1    0.0000
      4 N4         3.4866    1.7272    0.4074 N.3       1 RES1    0.0000
      5 N5         4.6884    2.6653   -2.0073 N.pl3     1 RES1    0.0000
      6 N6         7.5271    2.7033   -2.0559 N.pl3     1 RES1    0.0000
      7 H1         8.3868    2.7040   -2.0818 H         1 RES1    0.0000
      8 H2         7.0769    2.9482   -2.7472 H         1 RES1    0.0000
      9 N7         9.0636    1.7816    0.1309 N.pl3     1 RES1    0.0000
     10 N8         7.6767    1.2485    2.5518 N.pl3     1 RES1    0.0000
     11 N9         8.4413    2.2134    3.1403 N.2       1 RES1    0.0000
     12 N10        8.5659    0.2554    4.2499 N.2       1 RES1    0.0000
     13 O1         3.4652    2.7048   -1.9248 O.2       1 RES1    0.0000
     14 O2         5.2189    2.9735   -3.0552 O.2       1 RES1    0.0000
     15 O3         9.6825    2.4181   -0.6724 O.2       1 RES1    0.0000
     16 O4         9.5943    0.9649    0.8891 O.2       1 RES1    0.0000
     17 C1         5.5889    1.4927    1.4228 C.ar      1 RES1    0.0000
     18 C2         4.8012    1.8210    0.2843 C.ar      1 RES1    0.0000
     19 C3         5.4694    2.2715   -0.8766 C.ar      1 RES1    0.0000
     20 C4         6.9012    2.3281   -0.9602 C.ar      1 RES1    0.0000
     21 C5         7.6181    1.9208    0.1910 C.ar      1 RES1    0.0000
     22 C6         6.9511    1.5359    1.3630 C.ar      1 RES1    0.0000
     23 C7         5.0646    1.7995    3.8503 C.2       1 RES1    0.0000
     24 H3         5.6286    2.5164    4.0342 H         1 RES1    0.0000
     25 C8         3.6721    0.2613    3.9919 C.2       1 RES1    0.0000
     26 H4         3.0425   -0.3172    4.3589 H         1 RES1    0.0000
     27 C9         7.7801    0.1102    3.2273 C.2       1 RES1    0.0000
     28 H5         7.3486   -0.6820    3.0002 H         1 RES1    0.0000
     29 C10        8.9337    1.5471    4.1481 C.2       1 RES1    0.0000
     30 H6         9.5081    1.9424    4.7633 H         1 RES1    0.0000
     31 H7         3.0554    1.8761   -0.2968 H         1 RES1    0.0000
     32 H8         3.1998    1.3029    1.1634 H         1 RES1    0.0000
@<TRIPOS>BOND
     1    1    2 1
     2    2   25 2
     3    3   23 2
     4    4   18 1
     5    5   13 2
     6    6    7 1
     7    8    6 1
     8    9   15 2
     9   10   11 1
    10   11   29 2
    11   12   27 2
    12   14    5 2
    13   16    9 2
    14   17    1 1
    15   18   17 ar
    16   19    5 1
    17   20    6 1
    18   21    9 1
    19   22   10 1
    20   23    1 1
    21   24   23 1
    22   25    3 1
    23   26   25 1
    24   27   10 1
    25   28   27 1
    26   29   12 1
    27   30   29 1
    28   31    4 1
    29   32    4 1
    30   17   22 ar
    31   18   19 ar
    32   19   20 ar
    33   20   21 ar
    34   21   22 ar
@<TRIPOS>SUBSTRUCTURE
     1 RES1 1

@<TRIPOS>CRYSIN
   8.9410    7.4450   20.7590  90.0000 106.3280  90.0000  14 1

