# MOL2 file generated by ConQuest
# Please check atom types

@<TRIPOS>MOLECULE
MERVEN
    56    58     2
SMALL
NO_CHARGES
****
Generated from CSD

@<TRIPOS>ATOM
      1 N1        -2.2954    5.8852    6.7484 N.2       1 RES1    0.0000
      2 N2        -0.4961    4.5730    6.4147 N.2       1 RES1    0.0000
      3 N3        -0.4814    5.6362    5.5650 N.pl3     1 RES1    0.0000
      4 N4        -0.6390    4.3902    3.1812 N.pl3     1 RES1    0.0000
      5 H1        -1.2496    4.3430    3.7850 H         1 RES1    0.0000
      6 H2        -0.7305    3.9586    2.4422 H         1 RES1    0.0000
      7 N5         1.4487    4.4918    1.2446 N.pl3     1 RES1    0.0000
      8 N6         3.5369    6.3092    1.7629 N.pl3     1 RES1    0.0000
      9 H3         3.5190    5.8557    1.0317 H         1 RES1    0.0000
     10 H4         4.1813    6.8600    1.9119 H         1 RES1    0.0000
     11 N7         3.5690    7.8873    4.0979 N.pl3     1 RES1    0.0000
     12 N8         1.5726    7.3504    6.0391 N.pl3     1 RES1    0.0000
     13 H5         0.9440    7.2045    6.6077 H         1 RES1    0.0000
     14 H6         2.1990    7.9103    6.2240 H         1 RES1    0.0000
     15 O1         0.5334    3.6859    1.0473 O.2       1 RES1    0.0000
     16 O2         2.3086    4.6199    0.3577 O.2       1 RES1    0.0000
     17 O3         4.4965    8.0646    3.2740 O.2       1 RES1    0.0000
     18 O4         3.5650    8.5988    5.1135 O.2       1 RES1    0.0000
     19 C1        -1.6064    4.7868    7.0832 C.2       1 RES1    0.0000
     20 H7        -1.8967    4.2081    7.7506 H         1 RES1    0.0000
     21 C2        -1.5534    6.3874    5.7957 C.2       1 RES1    0.0000
     22 H8        -1.7504    7.1720    5.3374 H         1 RES1    0.0000
     23 C3         0.5570    5.8109    4.5957 C.ar      1 RES1    0.0000
     24 C4         0.4412    5.1250    3.3886 C.ar      1 RES1    0.0000
     25 C5         1.4986    5.2504    2.4258 C.ar      1 RES1    0.0000
     26 C6         2.5777    6.1610    2.6544 C.ar      1 RES1    0.0000
     27 C7         2.5919    6.9171    3.8800 C.ar      1 RES1    0.0000
     28 C8         1.5769    6.7120    4.8778 C.ar      1 RES1    0.0000
     29 N9        -1.3958   -0.2703    0.7352 N.2       2 RES2    0.0000
     30 N10        0.0576   -1.0941    2.2397 N.2       2 RES2    0.0000
     31 N11       -0.0641    0.2624    2.3703 N.pl3     2 RES2    0.0000
     32 N12       -1.1488    0.6224    4.8241 N.pl3     2 RES2    0.0000
     33 H9        -1.5619    0.2277    4.1816 H         2 RES2    0.0000
     34 H10       -1.5251    0.7005    5.5937 H         2 RES2    0.0000
     35 N13        0.2903    1.8204    6.9642 N.pl3     2 RES2    0.0000
     36 N14        2.7462    3.0260    6.2959 N.pl3     2 RES2    0.0000
     37 H11        2.4247    3.0914    7.0913 H         2 RES2    0.0000
     38 H12        3.5017    3.3905    6.1063 H         2 RES2    0.0000
     39 N15        3.7966    2.8809    3.7014 N.pl3     2 RES2    0.0000
     40 N16        2.4533    1.1603    1.8703 N.pl3     2 RES2    0.0000
     41 H13        2.0095    0.6887    1.3041 H         2 RES2    0.0000
     42 H14        3.2381    1.4484    1.6684 H         2 RES2    0.0000
     43 O5        -0.8758    1.4863    7.1949 O.2       2 RES2    0.0000
     44 O6         0.9936    2.2303    7.9074 O.2       2 RES2    0.0000
     45 O7         4.3402    3.6826    4.4843 O.2       2 RES2    0.0000
     46 O8         4.3354    2.6993    2.6018 O.2       2 RES2    0.0000
     47 C9        -0.7585   -1.3432    1.2556 C.2       2 RES2    0.0000
     48 H15       -0.8942   -2.2046    0.9317 H         2 RES2    0.0000
     49 C10       -0.9317    0.7084    1.4671 C.2       2 RES2    0.0000
     50 H16       -1.1763    1.5998    1.3686 H         2 RES2    0.0000
     51 C11        0.6617    0.9754    3.3749 C.ar      2 RES2    0.0000
     52 C12        0.0676    1.1116    4.6292 C.ar      2 RES2    0.0000
     53 C13        0.8236    1.7541    5.6625 C.ar      2 RES2    0.0000
     54 C14        2.0828    2.3691    5.3712 C.ar      2 RES2    0.0000
     55 C15        2.6074    2.2434    4.0438 C.ar      2 RES2    0.0000
     56 C16        1.9277    1.4429    3.0535 C.ar      2 RES2    0.0000
@<TRIPOS>BOND
     1    1   19 1
     2    2    3 1
     3    3   21 1
     4    4    5 1
     5    6    4 1
     6    7   15 2
     7    8    9 1
     8   10    8 1
     9   11   17 2
    10   12   13 1
    11   14   12 1
    12   16    7 2
    13   18   11 2
    14   19    2 2
    15   20   19 1
    16   21    1 2
    17   22   21 1
    18   23    3 1
    19   24    4 1
    20   25    7 1
    21   26    8 1
    22   27   11 1
    23   28   12 1
    24   29   47 1
    25   30   31 1
    26   31   49 1
    27   32   33 1
    28   34   32 1
    29   35   43 2
    30   36   37 1
    31   38   36 1
    32   39   45 2
    33   40   41 1
    34   42   40 1
    35   44   35 2
    36   46   39 2
    37   47   30 2
    38   48   47 1
    39   49   29 2
    40   50   49 1
    41   51   31 1
    42   52   32 1
    43   53   35 1
    44   54   36 1
    45   55   39 1
    46   56   40 1
    47   23   24 ar
    48   23   28 ar
    49   24   25 ar
    50   25   26 ar
    51   26   27 ar
    52   27   28 ar
    53   51   52 ar
    54   51   56 ar
    55   52   53 ar
    56   53   54 ar
    57   54   55 ar
    58   55   56 ar
@<TRIPOS>SUBSTRUCTURE
     1 RES1 1
     2 RES2 29

@<TRIPOS>CRYSIN
   7.4815    9.2466   16.1510  87.2860  87.7250  89.8910   2 1

