# MOL2 file generated by ConQuest
# Please check atom types

@<TRIPOS>MOLECULE
MESJOK
   199   196     2
SMALL
NO_CHARGES
****
Generated from CSD

@<TRIPOS>ATOM
      1 C1         7.7354    2.1798    6.4835 C.ar      1 RES1    0.0000
      2 C2         8.6590    1.2083    6.5585 C.ar      1 RES1    0.0000
      3 H1         8.3478    0.3120    6.5507 H         1 RES1    0.0000
      4 C3        10.1113    1.4139    6.6507 C.ar      1 RES1    0.0000
      5 C4        10.4566    2.7519    6.6944 C.ar      1 RES1    0.0000
      6 H2        11.3810    2.9671    6.7522 H         1 RES1    0.0000
      7 C5         9.5510    3.8060    6.6616 C.ar      1 RES1    0.0000
      8 C6         8.1765    3.5147    6.6397 C.ar      1 RES1    0.0000
      9 C7         6.3625    4.5639    7.8286 C.3       1 RES1    0.0000
     10 H3         5.4598    4.2915    7.5255 H         1 RES1    0.0000
     11 H4         6.6774    3.8738    8.4660 H         1 RES1    0.0000
     12 C8         6.2347    5.8029    8.5441 C.2       1 RES1    0.0000
     13 C9         7.7473    8.1832    9.8721 C.3       1 RES1    0.0000
     14 H5         8.6771    7.9222    9.6581 H         1 RES1    0.0000
     15 H6         7.4119    7.5798   10.5829 H         1 RES1    0.0000
     16 C10        8.0849    9.6099    9.9283 C.ar      1 RES1    0.0000
     17 C11        8.2780   10.1415   11.1766 C.ar      1 RES1    0.0000
     18 H7         8.1941    9.5523   11.9171 H         1 RES1    0.0000
     19 C12        8.5829   11.4612   11.4516 C.ar      1 RES1    0.0000
     20 H8         8.7133   11.8159   12.3218 H         1 RES1    0.0000
     21 C13        8.6734   12.1903   10.2939 C.ar      1 RES1    0.0000
     22 H9         8.8833   13.1043   10.4126 H         1 RES1    0.0000
     23 C14        8.5109   11.7964    8.9894 C.ar      1 RES1    0.0000
     24 H10        8.6074   12.3874    8.2520 H         1 RES1    0.0000
     25 C15        8.1936   10.4530    8.8535 C.ar      1 RES1    0.0000
     26 H11        8.0443   10.1030    7.9833 H         1 RES1    0.0000
     27 C16       11.0880    0.2678    6.8178 C.3       1 RES1    0.0000
     28 C17       10.8120   -0.4853    8.1567 C.3       1 RES1    0.0000
     29 H12        9.9639   -0.9695    8.0911 H         1 RES1    0.0000
     30 H13       10.7630    0.1624    8.8910 H         1 RES1    0.0000
     31 H14       11.5382   -1.1209    8.3301 H         1 RES1    0.0000
     32 C18       10.8635   -0.6757    5.6492 C.3       1 RES1    0.0000
     33 H15        9.9841   -1.1002    5.7367 H         1 RES1    0.0000
     34 H16       11.5598   -1.3649    5.6477 H         1 RES1    0.0000
     35 H17       10.8996   -0.1705    4.8103 H         1 RES1    0.0000
     36 C19       12.5419    0.7190    6.8163 C.3       1 RES1    0.0000
     37 H18       13.1284   -0.0675    6.8303 H         1 RES1    0.0000
     38 H19       12.7135    1.2683    7.6099 H         1 RES1    0.0000
     39 H20       12.7196    1.2449    6.0101 H         1 RES1    0.0000
     40 C20       10.1068    5.2318    6.6788 C.3       1 RES1    0.0000
     41 H21       10.6742    5.3539    7.4802 H         1 RES1    0.0000
     42 H22        9.3581    5.8769    6.7335 H         1 RES1    0.0000
     43 C21       10.9410    5.5219    5.4071 C.ar      1 RES1    0.0000
     44 C22       12.3126    5.5856    5.4305 C.ar      1 RES1    0.0000
     45 H23       12.7570    5.5222    6.2679 H         1 RES1    0.0000
     46 C23       13.0772    5.7386    4.2775 C.ar      1 RES1    0.0000
     47 C24       12.4282    5.8549    3.0511 C.ar      1 RES1    0.0000
     48 H24       12.9265    5.9627    2.2497 H         1 RES1    0.0000
     49 C25       10.9934    5.8082    3.0168 C.ar      1 RES1    0.0000
     50 C26       10.2661    5.6623    4.1604 C.ar      1 RES1    0.0000
     51 C27        8.2127    6.6841    3.8339 C.3       1 RES1    0.0000
     52 H25        7.2482    6.4623    3.7807 H         1 RES1    0.0000
     53 H26        8.5072    6.9243    2.9215 H         1 RES1    0.0000
     54 C28        8.3527    7.8600    4.6744 C.2       1 RES1    0.0000
     55 C29        9.8549   10.5190    5.0540 C.3       1 RES1    0.0000
     56 H27       10.1702    9.8193    5.6805 H         1 RES1    0.0000
     57 H28        9.8665   11.3862    5.5321 H         1 RES1    0.0000
     58 C30       10.7745   10.5856    3.8792 C.ar      1 RES1    0.0000
     59 C31       11.7971    9.6255    3.7245 C.ar      1 RES1    0.0000
     60 H29       11.8971    8.9318    4.3666 H         1 RES1    0.0000
     61 C32       12.6626    9.6910    2.6309 C.ar      1 RES1    0.0000
     62 H30       13.3656    9.0570    2.5497 H         1 RES1    0.0000
     63 C33       12.5068   10.6818    1.6482 C.ar      1 RES1    0.0000
     64 H31       13.0730   10.6920    0.8858 H         1 RES1    0.0000
     65 C34       11.5540   11.6139    1.7951 C.ar      1 RES1    0.0000
     66 H32       11.4688   12.3149    1.1577 H         1 RES1    0.0000
     67 C35       10.7022   11.5499    2.8699 C.ar      1 RES1    0.0000
     68 H33       10.0183   12.2049    2.9308 H         1 RES1    0.0000
     69 C36       14.6159    5.6902    4.3072 C.3       1 RES1    0.0000
     70 C37       15.2175    5.9730    3.0230 C.3       1 RES1    0.0000
     71 H34       16.0950    5.5393    2.9715 H         1 RES1    0.0000
     72 H35       15.3248    6.9413    2.9184 H         1 RES1    0.0000
     73 H36       14.6419    5.6282    2.3091 H         1 RES1    0.0000
     74 C38       15.0914    6.8420    5.3290 C.3       1 RES1    0.0000
     75 H37       16.0313    6.6984    5.5680 H         1 RES1    0.0000
     76 H38       14.5403    6.8076    6.1382 H         1 RES1    0.0000
     77 H39       14.9921    7.7178    4.9025 H         1 RES1    0.0000
     78 C39       15.0340    4.3559    4.8650 C.3       1 RES1    0.0000
     79 H40       16.0052    4.3447    4.9931 H         1 RES1    0.0000
     80 H41       14.7794    3.6461    4.2385 H         1 RES1    0.0000
     81 H42       14.5889    4.2061    5.7258 H         1 RES1    0.0000
     82 C40       10.3318    5.7088    1.6138 C.3       1 RES1    0.0000
     83 H43        9.5212    6.2763    1.5810 H         1 RES1    0.0000
     84 H44       10.9624    6.0273    0.9186 H         1 RES1    0.0000
     85 C41        9.9637    4.2668    1.3545 C.ar      1 RES1    0.0000
     86 C42       10.9681    3.3103    1.3373 C.ar      1 RES1    0.0000
     87 H45       11.8728    3.5946    1.3982 H         1 RES1    0.0000
     88 C43       10.6983    1.9711    1.2326 C.ar      1 RES1    0.0000
     89 C44        9.3240    1.5850    1.1795 C.ar      1 RES1    0.0000
     90 H46        9.1067    0.6603    1.1311 H         1 RES1    0.0000
     91 C45        8.3022    2.5108    1.1951 C.ar      1 RES1    0.0000
     92 C46        8.5990    3.8566    1.2467 C.ar      1 RES1    0.0000
     93 C47        7.3982    5.3591   -0.0812 C.3       1 RES1    0.0000
     94 H47        7.1900    4.6361   -0.7249 H         1 RES1    0.0000
     95 H48        8.2328    5.8031   -0.3765 H         1 RES1    0.0000
     96 C48        6.2879    6.3467   -0.0672 C.2       1 RES1    0.0000
     97 C49        3.4370    7.1456    0.9530 C.3       1 RES1    0.0000
     98 H49        3.1924    6.3661    1.5123 H         1 RES1    0.0000
     99 H50        3.3844    6.8796    0.0016 H         1 RES1    0.0000
    100 C50        2.4916    8.3033    1.2264 C.ar      1 RES1    0.0000
    101 C51        1.3645    8.4339    0.4265 C.ar      1 RES1    0.0000
    102 H51        1.1843    7.7969   -0.2547 H         1 RES1    0.0000
    103 C52        0.5103    9.4922    0.6234 C.ar      1 RES1    0.0000
    104 H52       -0.2502    9.5697    0.0594 H         1 RES1    0.0000
    105 C53        0.6906   10.4073    1.5638 C.ar      1 RES1    0.0000
    106 H53        0.0736   11.1171    1.6998 H         1 RES1    0.0000
    107 C54        1.8496   10.2713    2.3466 C.ar      1 RES1    0.0000
    108 H54        2.0124   10.9130    3.0277 H         1 RES1    0.0000
    109 C55        2.7642    9.2464    2.1747 C.ar      1 RES1    0.0000
    110 H55        3.5538    9.2008    2.6996 H         1 RES1    0.0000
    111 C56       11.8760    0.9518    1.1748 C.3       1 RES1    0.0000
    112 C57       12.5597    1.1313   -0.2703 C.3       1 RES1    0.0000
    113 H56       13.4388    0.6970   -0.2718 H         1 RES1    0.0000
    114 H57       12.6664    2.0867   -0.4640 H         1 RES1    0.0000
    115 H58       11.9904    0.7209   -0.9546 H         1 RES1    0.0000
    116 C58       12.9107    1.2072    2.1966 C.3       1 RES1    0.0000
    117 H59       12.5531    0.9962    3.0840 H         1 RES1    0.0000
    118 H60       13.1757    2.1495    2.1653 H         1 RES1    0.0000
    119 H61       13.6919    0.6424    2.0169 H         1 RES1    0.0000
    120 C59       11.4631   -0.4330    1.2842 C.3       1 RES1    0.0000
    121 H62       12.2426   -1.0156    1.1733 H         1 RES1    0.0000
    122 H63       10.8039   -0.6342    0.5859 H         1 RES1    0.0000
    123 H64       11.0626   -0.5866    2.1653 H         1 RES1    0.0000
    124 C60        6.8032    2.0195    1.1655 C.3       1 RES1    0.0000
    125 H65        6.1965    2.7998    1.1139 H         1 RES1    0.0000
    126 H66        6.6520    1.4555    0.3656 H         1 RES1    0.0000
    127 C61        6.5051    1.2219    2.4200 C.ar      1 RES1    0.0000
    128 C62        6.5947   -0.1697    2.4106 C.ar      1 RES1    0.0000
    129 H67        6.7375   -0.6124    1.5826 H         1 RES1    0.0000
    130 C63        6.4810   -0.9422    3.5714 C.ar      1 RES1    0.0000
    131 C64        6.2936   -0.2563    4.7759 C.ar      1 RES1    0.0000
    132 H68        6.1927   -0.7592    5.5758 H         1 RES1    0.0000
    133 C65        6.2475    1.1313    4.8509 C.ar      1 RES1    0.0000
    134 C66        6.2565    1.8175    3.6761 C.ar      1 RES1    0.0000
    135 C67        4.6460    3.6050    3.3777 C.3       1 RES1    0.0000
    136 H69        4.5344    3.6155    2.3934 H         1 RES1    0.0000
    137 H70        4.0531    2.9126    3.7620 H         1 RES1    0.0000
    138 C68        4.2676    4.8464    4.0276 C.2       1 RES1    0.0000
    139 C69        4.9141    7.7424    5.1884 C.3       1 RES1    0.0000
    140 H71        4.6845    7.7587    4.2275 H         1 RES1    0.0000
    141 H72        5.8772    7.9722    5.2899 H         1 RES1    0.0000
    142 C70        4.0535    8.6858    5.9711 C.ar      1 RES1    0.0000
    143 C71        2.7150    8.8605    5.6914 C.ar      1 RES1    0.0000
    144 H73        2.2786    8.2799    5.0774 H         1 RES1    0.0000
    145 C72        1.9990    9.8856    6.3085 C.ar      1 RES1    0.0000
    146 H74        1.0800   10.0279    6.1101 H         1 RES1    0.0000
    147 C73        2.6471   10.6718    7.1943 C.ar      1 RES1    0.0000
    148 H75        2.1691   11.4035    7.5662 H         1 RES1    0.0000
    149 C74        3.8453   10.5031    7.5646 C.ar      1 RES1    0.0000
    150 H76        4.2111   11.0211    8.2723 H         1 RES1    0.0000
    151 C75        4.6291    9.5320    6.9006 C.ar      1 RES1    0.0000
    152 H77        5.5563    9.4605    7.0943 H         1 RES1    0.0000
    153 C76        6.6865   -2.4714    3.4495 C.3       1 RES1    0.0000
    154 C77        5.7638   -3.0562    2.4450 C.3       1 RES1    0.0000
    155 H78        5.7691   -4.0328    2.5247 H         1 RES1    0.0000
    156 H79        6.0552   -2.7978    1.5451 H         1 RES1    0.0000
    157 H80        4.8564   -2.7216    2.6028 H         1 RES1    0.0000
    158 C78        8.1411   -2.7662    2.9230 C.3       1 RES1    0.0000
    159 H81        8.2031   -2.5179    1.9763 H         1 RES1    0.0000
    160 H82        8.3378   -3.7216    3.0230 H         1 RES1    0.0000
    161 H83        8.7887   -2.2438    3.4402 H         1 RES1    0.0000
    162 C79        6.5464   -3.1427    4.8025 C.3       1 RES1    0.0000
    163 H84        7.3447   -2.9579    5.3415 H         1 RES1    0.0000
    164 H85        6.4531   -4.1096    4.6790 H         1 RES1    0.0000
    165 H86        5.7549   -2.7935    5.2587 H         1 RES1    0.0000
    166 C80        6.2887    1.8402    6.2179 C.3       1 RES1    0.0000
    167 H87        5.7399    2.6644    6.1960 H         1 RES1    0.0000
    168 H88        5.9385    1.2459    6.9256 H         1 RES1    0.0000
    169 N1         7.0446    6.7856    8.1614 N.am      1 RES1    0.0000
    170 H89        7.6496    6.6316    7.5412 H         1 RES1    0.0000
    171 N2         8.4549    9.0295    3.9791 N.am      1 RES1    0.0000
    172 H90        8.4868    9.0166    3.0996 H         1 RES1    0.0000
    173 N3         5.6774    6.5512    1.1139 N.am      1 RES1    0.0000
    174 H91        5.8482    6.0159    1.7888 H         1 RES1    0.0000
    175 N4         5.1509    5.4304    4.8993 N.am      1 RES1    0.0000
    176 H92        6.0003    5.2049    4.9150 H         1 RES1    0.0000
    177 O1         7.2421    4.5500    6.6819 O.3       1 RES1    0.0000
    178 O2         5.4415    5.9449    9.4815 O.2       1 RES1    0.0000
    179 O3         6.9469    8.0540    8.7316 O.3       1 RES1    0.0000
    180 O4         8.8753    5.5618    4.2026 O.3       1 RES1    0.0000
    181 O5         8.4698    7.8438    5.9195 O.2       1 RES1    0.0000
    182 O6         8.5087   10.2181    4.6431 O.3       1 RES1    0.0000
    183 O7         7.5858    4.8006    1.2264 O.3       1 RES1    0.0000
    184 O8         5.9927    6.9562   -1.1186 O.2       1 RES1    0.0000
    185 O9         4.7912    7.5918    1.2780 O.3       1 RES1    0.0000
    186 O10        6.0886    3.2560    3.7151 O.3       1 RES1    0.0000
    187 O11        3.1707    5.3549    3.7276 O.2       1 RES1    0.0000
    188 O12        4.6236    6.4238    5.7836 O.3       1 RES1    0.0000
    189 C81        7.7205    9.6399   10.3736 Du        2 SUP2    0.0000
    190 C82        8.9856   10.4191   10.6392 Du        2 SUP2    0.0000
    191 H93        9.8091    9.9280   10.6314 Du        2 SUP2    0.0000
    192 C83        9.0421   11.7162   10.9048 Du        2 SUP2    0.0000
    193 H94        9.8669   12.1762   11.0094 Du        2 SUP2    0.0000
    194 C84        7.7879   12.3591   10.9985 Du        2 SUP2    0.0000
    195 H95        7.7647   13.2912   11.1828 Du        2 SUP2    0.0000
    196 C85        6.6858   11.7266   10.8423 Du        2 SUP2    0.0000
    197 H96        5.8660   12.2001   10.9673 Du        2 SUP2    0.0000
    198 C86        6.6192   10.3527   10.4986 Du        2 SUP2    0.0000
    199 H97        5.7708    9.9362   10.3533 Du        2 SUP2    0.0000
@<TRIPOS>BOND
     1    1    2 ar
     2    2    3 1
     3    4    2 ar
     4    5    4 ar
     5    6    5 1
     6    7    5 ar
     7    8    1 ar
     8    9   10 1
     9   11    9 1
    10   12    9 1
    11   13   14 1
    12   15   13 1
    13   16   13 1
    14   17   16 ar
    15   18   17 1
    16   19   17 ar
    17   20   19 1
    18   21   19 ar
    19   22   21 1
    20   23   21 ar
    21   24   23 1
    22   25   16 ar
    23   26   25 1
    24   27    4 1
    25   28   27 1
    26   29   28 1
    27   30   28 1
    28   31   28 1
    29   32   27 1
    30   33   32 1
    31   34   32 1
    32   35   32 1
    33   36   27 1
    34   37   36 1
    35   38   36 1
    36   39   36 1
    37   40    7 1
    38   41   40 1
    39   42   40 1
    40   43   40 1
    41   44   43 ar
    42   45   44 1
    43   46   44 ar
    44   47   46 ar
    45   48   47 1
    46   49   47 ar
    47   50   43 ar
    48   51   52 1
    49   53   51 1
    50   54   51 1
    51   55   56 1
    52   57   55 1
    53   58   55 1
    54   59   58 ar
    55   60   59 1
    56   61   59 ar
    57   62   61 1
    58   63   61 ar
    59   64   63 1
    60   65   63 ar
    61   66   65 1
    62   67   58 ar
    63   68   67 1
    64   69   46 1
    65   70   69 1
    66   71   70 1
    67   72   70 1
    68   73   70 1
    69   74   69 1
    70   75   74 1
    71   76   74 1
    72   77   74 1
    73   78   69 1
    74   79   78 1
    75   80   78 1
    76   81   78 1
    77   82   49 1
    78   83   82 1
    79   84   82 1
    80   85   82 1
    81   86   85 ar
    82   87   86 1
    83   88   86 ar
    84   89   88 ar
    85   90   89 1
    86   91   89 ar
    87   92   85 ar
    88   93   94 1
    89   95   93 1
    90   96   93 1
    91   97   98 1
    92   99   97 1
    93  100   97 1
    94  101  100 ar
    95  102  101 1
    96  103  101 ar
    97  104  103 1
    98  105  103 ar
    99  106  105 1
   100  107  105 ar
   101  108  107 1
   102  109  100 ar
   103  110  109 1
   104  111   88 1
   105  112  111 1
   106  113  112 1
   107  114  112 1
   108  115  112 1
   109  116  111 1
   110  117  116 1
   111  118  116 1
   112  119  116 1
   113  120  111 1
   114  121  120 1
   115  122  120 1
   116  123  120 1
   117  124   91 1
   118  125  124 1
   119  126  124 1
   120  127  124 1
   121  128  127 ar
   122  129  128 1
   123  130  128 ar
   124  131  130 ar
   125  132  131 1
   126  133  131 ar
   127  134  127 ar
   128  135  136 1
   129  137  135 1
   130  138  135 1
   131  139  140 1
   132  141  139 1
   133  142  139 1
   134  143  142 ar
   135  144  143 1
   136  145  143 ar
   137  146  145 1
   138  147  145 ar
   139  148  147 1
   140  149  147 ar
   141  150  149 1
   142  151  142 ar
   143  152  151 1
   144  153  130 1
   145  154  153 1
   146  155  154 1
   147  156  154 1
   148  157  154 1
   149  158  153 1
   150  159  158 1
   151  160  158 1
   152  161  158 1
   153  162  153 1
   154  163  162 1
   155  164  162 1
   156  165  162 1
   157  166    1 1
   158  167  166 1
   159  168  166 1
   160  169   12 1
   161  170  169 1
   162  171   54 1
   163  172  171 1
   164  173   96 1
   165  174  173 1
   166  175  138 1
   167  176  175 1
   168  177    8 1
   169  178   12 2
   170  179   13 1
   171  180   50 1
   172  181   54 2
   173  182   55 1
   174  183   92 1
   175  184   96 2
   176  185   97 1
   177  186  134 1
   178  187  138 2
   179  188  139 1
   180    7    8 ar
   181    9  177 1
   182   23   25 ar
   183   49   50 ar
   184   51  180 1
   185   65   67 ar
   186   91   92 ar
   187   93  183 1
   188  107  109 ar
   189  133  134 ar
   190  133  166 1
   191  135  186 1
   192  149  151 ar
   193  169  179 1
   194  171  182 1
   195  173  185 1
   196  175  188 1
@<TRIPOS>SUBSTRUCTURE
     1 RES1 1
     2 SUP2 189

@<TRIPOS>CRYSIN
  15.4590   15.6770   17.9090 110.0200 109.0300  93.7200   2 1

