# MOL2 file generated by ConQuest
# Please check atom types

@<TRIPOS>MOLECULE
MESQAF
    45    47     1
SMALL
NO_CHARGES
****
Generated from CSD

@<TRIPOS>ATOM
      1 O1         3.0081    4.0127    3.6270 O.3       1 RES1    0.0000
      2 O2        -4.3007    3.4364    1.4060 O.3       1 RES1    0.0000
      3 N1         1.7766    3.5593    3.0929 N.2       1 RES1    0.0000
      4 C1         7.9851    4.1068    6.5554 C.ar      1 RES1    0.0000
      5 H1         8.2181    4.3569    5.6676 H         1 RES1    0.0000
      6 C2         8.9403    3.5732    7.3816 C.ar      1 RES1    0.0000
      7 H2         9.8299    3.4578    7.0664 H         1 RES1    0.0000
      8 C3         8.6145    3.2044    8.6644 C.ar      1 RES1    0.0000
      9 H3         9.2835    2.8408    9.2316 H         1 RES1    0.0000
     10 C4         7.3372    3.3540    9.1319 C.ar      1 RES1    0.0000
     11 H4         7.1203    3.0921   10.0197 H         1 RES1    0.0000
     12 C5         6.3672    3.8876    8.3075 C.ar      1 RES1    0.0000
     13 H5         5.4765    3.9881    8.6264 H         1 RES1    0.0000
     14 C6         6.6887    4.2842    6.9993 C.ar      1 RES1    0.0000
     15 C7         5.7117    4.8648    6.1242 C.1       1 RES1    0.0000
     16 C8         4.9472    5.3652    5.3487 C.1       1 RES1    0.0000
     17 C9         3.9747    5.9949    4.4319 C.3       1 RES1    0.0000
     18 H6         3.7679    6.9038    4.7653 H         1 RES1    0.0000
     19 H7         4.3962    6.0922    3.5404 H         1 RES1    0.0000
     20 C10        2.7291    5.2636    4.2779 C.3       1 RES1    0.0000
     21 H8         2.3756    5.0637    5.1911 H         1 RES1    0.0000
     22 C11        1.5842    5.8773    3.4480 C.3       1 RES1    0.0000
     23 C12        0.9621    4.5558    3.0240 C.2       1 RES1    0.0000
     24 C13       -0.4043    4.3088    2.5566 C.ar      1 RES1    0.0000
     25 C14       -1.1597    5.2754    1.8807 C.ar      1 RES1    0.0000
     26 H9        -0.7793    6.1286    1.7068 H         1 RES1    0.0000
     27 C15       -2.4543    5.0124    1.4622 C.ar      1 RES1    0.0000
     28 H10       -2.9454    5.6742    0.9911 H         1 RES1    0.0000
     29 C16       -3.0255    3.7881    1.7304 C.ar      1 RES1    0.0000
     30 C17       -2.2805    2.8023    2.3663 C.ar      1 RES1    0.0000
     31 H11       -2.6570    1.9416    2.5113 H         1 RES1    0.0000
     32 C18       -0.9954    3.0686    2.7867 C.ar      1 RES1    0.0000
     33 H12       -0.5044    2.3950    3.2415 H         1 RES1    0.0000
     34 C19        2.0632    6.6279    2.2159 C.3       1 RES1    0.0000
     35 H13        2.6987    6.0709    1.7195 H         1 RES1    0.0000
     36 H14        2.5017    7.4597    2.4895 H         1 RES1    0.0000
     37 H15        1.2942    6.8375    1.6434 H         1 RES1    0.0000
     38 C20        0.6696    6.7509    4.3087 C.3       1 RES1    0.0000
     39 H16       -0.0576    7.1058    3.7560 H         1 RES1    0.0000
     40 H17        1.1861    7.4940    4.6837 H         1 RES1    0.0000
     41 H18        0.2939    6.2131    5.0352 H         1 RES1    0.0000
     42 C21       -5.0824    4.3869    0.6740 C.3       1 RES1    0.0000
     43 H19       -4.6297    4.5986   -0.1703 H         1 RES1    0.0000
     44 H20       -5.1831    5.2037    1.2049 H         1 RES1    0.0000
     45 H21       -5.9656    4.0073    0.4856 H         1 RES1    0.0000
@<TRIPOS>BOND
     1    1    3 1
     2    2   29 1
     3    3   23 2
     4    4    5 1
     5    6    4 ar
     6    7    6 1
     7    8    6 ar
     8    9    8 1
     9   10    8 ar
    10   11   10 1
    11   12   10 ar
    12   13   12 1
    13   14    4 ar
    14   15   14 1
    15   16   15 3
    16   17   16 1
    17   18   17 1
    18   19   17 1
    19   20    1 1
    20   21   20 1
    21   22   20 1
    22   23   22 1
    23   24   23 1
    24   25   24 ar
    25   26   25 1
    26   27   25 ar
    27   28   27 1
    28   29   27 ar
    29   30   29 ar
    30   31   30 1
    31   32   24 ar
    32   33   32 1
    33   34   22 1
    34   35   34 1
    35   36   34 1
    36   37   34 1
    37   38   22 1
    38   39   38 1
    39   40   38 1
    40   41   38 1
    41   42    2 1
    42   43   42 1
    43   44   42 1
    44   45   42 1
    45   12   14 ar
    46   17   20 1
    47   30   32 ar
@<TRIPOS>SUBSTRUCTURE
     1 RES1 1

@<TRIPOS>CRYSIN
  17.8381   10.6919   19.0278  90.0000 107.7809  90.0000  15 1

