# MOL2 file generated by ConQuest
# Please check atom types

@<TRIPOS>MOLECULE
MESSEI
    45    47     1
SMALL
USER_CHARGES
****
Generated from CSD

@<TRIPOS>ATOM
      1 N1         6.4811   -1.9111    1.9150 N.2       1 RES1    0.0000
      2 N2         5.3469   -1.2554    1.9165 N.1       1 RES1    1.0000
      3 N3         4.2712   -0.8980    1.8672 N.2       1 RES1   -1.0000
      4 N4         1.5484    3.4704    5.5242 N.pl3     1 RES1    0.0000
      5 O1        10.0600   -1.5908    2.3386 O.3       1 RES1    0.0000
      6 O2         6.4432   -0.2683    4.2424 O.3       1 RES1    0.0000
      7 O3         7.5805    1.6140    4.5548 O.2       1 RES1    0.0000
      8 O4         0.5509    2.7749    5.5707 O.2       1 RES1    0.0000
      9 O5         1.4907    4.6573    5.6649 O.2       1 RES1    0.0000
     10 O6         6.9601    0.7803    1.3353 O.2       1 RES1    0.0000
     11 C1         8.7882   -2.1069    1.9291 C.3       1 RES1    0.0000
     12 H1         8.6720   -3.0008    2.2879 H         1 RES1    0.0000
     13 H2         8.7606   -2.1657    0.9624 H         1 RES1    0.0000
     14 C2         7.6548   -1.2115    2.4174 C.3       1 RES1    0.0000
     15 C3         7.8833    0.1369    1.7687 C.2       1 RES1    0.0000
     16 C4         9.5731    1.9220    1.4268 C.ar      1 RES1    0.0000
     17 H3         8.9202    2.5490    1.2157 H         1 RES1    0.0000
     18 C5        11.0353    2.2725    1.4577 C.ar      1 RES1    0.0000
     19 H4        11.3001    3.1500    1.2973 H         1 RES1    0.0000
     20 C6        11.9316    1.3690    1.7068 C.ar      1 RES1    0.0000
     21 H5        12.8302    1.6085    1.6871 H         1 RES1    0.0000
     22 C7        11.6020    0.0780    1.9953 C.ar      1 RES1    0.0000
     23 H6        12.2604   -0.5476    2.1880 H         1 RES1    0.0000
     24 C8        10.2662   -0.2806    1.9981 C.ar      1 RES1    0.0000
     25 C9         9.2625    0.6119    1.7279 C.ar      1 RES1    0.0000
     26 C10        7.6485   -1.0062    3.9356 C.3       1 RES1    0.0000
     27 H7         8.4405   -0.5024    4.2185 H         1 RES1    0.0000
     28 C11        7.5639   -2.3218    4.6786 C.3       1 RES1    0.0000
     29 H8         6.7388   -2.7763    4.4436 H         1 RES1    0.0000
     30 H9         8.3061   -2.8899    4.4211 H         1 RES1    0.0000
     31 C12        7.6019   -2.0754    6.1729 C.3       1 RES1    0.0000
     32 H10        7.5292   -2.9132    6.6358 H         1 RES1    0.0000
     33 H11        6.8716   -1.5059    6.4220 H         1 RES1    0.0000
     34 H12        8.4310   -1.6524    6.4051 H         1 RES1    0.0000
     35 C13        6.5428    1.0158    4.5477 C.2       1 RES1    0.0000
     36 C14        5.2157    1.6195    4.8390 C.ar      1 RES1    0.0000
     37 C15        5.1169    2.9707    4.9530 C.ar      1 RES1    0.0000
     38 H13        5.8836    3.4936    4.8770 H         1 RES1    0.0000
     39 C16        3.8989    3.5744    5.1809 C.ar      1 RES1    0.0000
     40 H14        3.8294    4.4998    5.2414 H         1 RES1    0.0000
     41 C17        2.7837    2.7681    5.3174 C.ar      1 RES1    0.0000
     42 C18        2.8936    1.4087    5.2147 C.ar      1 RES1    0.0000
     43 H15        2.1403    0.8707    5.3047 H         1 RES1    0.0000
     44 C19        4.0792    0.8583    4.9867 C.ar      1 RES1    0.0000
     45 H16        4.1432   -0.0684    4.9248 H         1 RES1    0.0000
@<TRIPOS>BOND
     1    1    2 2
     2    2    3 2
     3    4    8 2
     4    5   11 1
     5    6   26 1
     6    7   35 2
     7    9    4 2
     8   10   15 2
     9   11   12 1
    10   13   11 1
    11   14    1 1
    12   15   14 1
    13   16   17 1
    14   18   16 ar
    15   19   18 1
    16   20   18 ar
    17   21   20 1
    18   22   20 ar
    19   23   22 1
    20   24    5 1
    21   25   15 1
    22   26   14 1
    23   27   26 1
    24   28   26 1
    25   29   28 1
    26   30   28 1
    27   31   28 1
    28   32   31 1
    29   33   31 1
    30   34   31 1
    31   35    6 1
    32   36   35 1
    33   37   36 ar
    34   38   37 1
    35   39   37 ar
    36   40   39 1
    37   41    4 1
    38   42   41 ar
    39   43   42 1
    40   44   36 ar
    41   45   44 1
    42   11   14 1
    43   16   25 ar
    44   22   24 ar
    45   24   25 ar
    46   39   41 ar
    47   42   44 ar
@<TRIPOS>SUBSTRUCTURE
     1 RES1 1

@<TRIPOS>CRYSIN
  15.8076   15.8076   14.0709  90.0000  90.0000 120.0000 147 1

