# MOL2 file generated by ConQuest
# Please check atom types

@<TRIPOS>MOLECULE
METNAM06
    12    11     1
SMALL
NO_CHARGES
****
Generated from CSD

@<TRIPOS>ATOM
      1 O1         1.6610    1.5575    1.9127 O.2       1 RES1    0.0000
      2 O2         3.3354    1.5575    3.3221 O.2       1 RES1    0.0000
      3 N1         1.2676    1.5575    4.0822 N.3       1 RES1    0.0000
      4 N2         2.1203    1.5575    3.0689 N.pl3     1 RES1    0.0000
      5 C1        -0.1551    1.5575    3.7677 C.3       1 RES1    0.0000
      6 C2         1.8091    1.5575    5.4222 C.3       1 RES1    0.0000
      7 H1        -0.6581    1.5575    4.6185 H         1 RES1    0.0000
      8 H2        -0.3916    0.7538    3.2512 H         1 RES1    0.0000
      9 H3         1.0647    1.5575    6.0871 H         1 RES1    0.0000
     10 H4         2.3575    0.7538    5.5807 H         1 RES1    0.0000
     11 H2C       -0.3916    2.3612    3.2512 H         1 RES1    0.0000
     12 H4C        2.3575    2.3612    5.5807 H         1 RES1    0.0000
@<TRIPOS>BOND
     1    1    4 2
     2    2    4 2
     3    3    4 1
     4    5    3 1
     5    6    3 1
     6    7    5 1
     7    8    5 1
     8    9    6 1
     9   10    6 1
    10   11    5 1
    11   12    6 1
@<TRIPOS>SUBSTRUCTURE
     1 RES1 1

@<TRIPOS>CRYSIN
   6.5500    6.2300    6.0800  90.0000 123.6000  90.0000  11 1

