# MOL2 file generated by ConQuest
# Please check atom types

@<TRIPOS>MOLECULE
METNAM02
    12    11     1
SMALL
NO_CHARGES
****
Generated from CSD

@<TRIPOS>ATOM
      1 C1        -0.1702    1.6253    2.0234 C.3       1 RES1    0.0000
      2 C2        -0.4399    1.6253    4.5760 C.3       1 RES1    0.0000
      3 N1         0.3576    1.6253    3.3688 N.pl3     1 RES1    0.0000
      4 N2         1.6858    1.6253    3.5038 N.pl3     1 RES1    0.0000
      5 O1         2.3710    1.6253    2.4772 O.2       1 RES1    0.0000
      6 O2         2.1588    1.6253    4.6388 O.2       1 RES1    0.0000
      7 H1         0.1119    0.7931    1.4649 H         1 RES1    0.0000
      8 H2        -0.9302    1.6253    1.7458 H         1 RES1    0.0000
      9 H3        -0.3515    0.7476    5.0778 H         1 RES1    0.0000
     10 H4        -1.3492    1.6253    4.3673 H         1 RES1    0.0000
     11 H1C        0.1119    2.4574    1.4649 H         1 RES1    0.0000
     12 H3C       -0.3515    2.5029    5.0778 H         1 RES1    0.0000
@<TRIPOS>BOND
     1    1    3 1
     2    2    3 1
     3    3    4 1
     4    4    5 2
     5    6    4 2
     6    7    1 1
     7    8    1 1
     8    9    2 1
     9   10    2 1
    10   11    1 1
    11   12    2 1
@<TRIPOS>SUBSTRUCTURE
     1 RES1 1

@<TRIPOS>CRYSIN
   6.1290    6.5010    6.0600  90.0000 114.6600  90.0000  11 1

