# MOL2 file generated by ConQuest
# Please check atom types

@<TRIPOS>MOLECULE
METNAM05
    12    11     1
SMALL
NO_CHARGES
****
Generated from CSD

@<TRIPOS>ATOM
      1 O1         1.6675    1.5738    1.9221 O.2       1 RES1    0.0000
      2 O2         3.3448    1.5738    3.3210 O.2       1 RES1    0.0000
      3 N1         1.2786    1.5738    4.0992 N.3       1 RES1    0.0000
      4 N2         2.1334    1.5738    3.0666 N.pl3     1 RES1    0.0000
      5 C1        -0.1396    1.5738    3.7767 C.3       1 RES1    0.0000
      6 C2         1.8292    1.5738    5.4275 C.3       1 RES1    0.0000
      7 H1        -0.6012    1.5738    4.5767 H         1 RES1    0.0000
      8 H2        -0.3681    0.7302    3.2459 H         1 RES1    0.0000
      9 H3         1.1411    1.5738    6.0447 H         1 RES1    0.0000
     10 H4         2.3295    0.6987    5.6079 H         1 RES1    0.0000
     11 H2C       -0.3681    2.4173    3.2459 H         1 RES1    0.0000
     12 H4C        2.3295    2.4488    5.6079 H         1 RES1    0.0000
@<TRIPOS>BOND
     1    1    4 2
     2    2    4 2
     3    3    4 1
     4    5    3 1
     5    6    3 1
     6    7    5 1
     7    8    5 1
     8    9    6 1
     9   10    6 1
    10   11    5 1
    11   12    6 1
@<TRIPOS>SUBSTRUCTURE
     1 RES1 1

@<TRIPOS>CRYSIN
   6.5600    6.2950    6.0950  90.0000 123.5500  90.0000  11 1

