# MOL2 file generated by ConQuest
# Please check atom types

@<TRIPOS>MOLECULE
METNAM07
    12    11     1
SMALL
NO_CHARGES
****
Generated from CSD

@<TRIPOS>ATOM
      1 O1         1.6651    1.5575    1.9203 O.2       1 RES1    0.0000
      2 O2         3.3304    1.5575    3.3277 O.2       1 RES1    0.0000
      3 N1         1.2633    1.5575    4.0817 N.3       1 RES1    0.0000
      4 N2         2.1180    1.5575    3.0674 N.pl3     1 RES1    0.0000
      5 C1        -0.1545    1.5575    3.7687 C.3       1 RES1    0.0000
      6 C2         1.8075    1.5575    5.4227 C.3       1 RES1    0.0000
      7 H1        -0.6989    1.5575    4.6995 H         1 RES1    0.0000
      8 H2        -0.4118    0.6834    3.1879 H         1 RES1    0.0000
      9 H3         0.9759    1.5575    6.1124 H         1 RES1    0.0000
     10 H4         2.4131    0.6853    5.5858 H         1 RES1    0.0000
     11 H2C       -0.4118    2.4316    3.1879 H         1 RES1    0.0000
     12 H4C        2.4131    2.4297    5.5858 H         1 RES1    0.0000
@<TRIPOS>BOND
     1    1    4 2
     2    2    4 2
     3    3    4 1
     4    5    3 1
     5    6    3 1
     6    7    5 1
     7    8    5 1
     8    9    6 1
     9   10    6 1
    10   11    5 1
    11   12    6 1
@<TRIPOS>SUBSTRUCTURE
     1 RES1 1

@<TRIPOS>CRYSIN
   6.5500    6.2300    6.0800  90.0000 123.6000  90.0000  11 1

