# MOL2 file generated by ConQuest
# Please check atom types

@<TRIPOS>MOLECULE
METNAM01
    12    11     1
SMALL
NO_CHARGES
****
Generated from CSD

@<TRIPOS>ATOM
      1 C1        -0.1807    1.6253    2.0250 C.3       1 RES1    0.0000
      2 N1         0.3626    1.6253    3.3727 N.pl3     1 RES1    0.0000
      3 O1         2.3676    1.6253    2.4805 O.2       1 RES1    0.0000
      4 H1         0.1051    0.8646    1.5200 H         1 RES1    0.0000
      5 H2        -1.1385    1.6253    2.0928 H         1 RES1    0.0000
      6 H3        -0.3017    0.7541    5.0227 H         1 RES1    0.0000
      7 H4        -1.3106    1.6253    4.3233 H         1 RES1    0.0000
      8 C2        -0.4376    1.6253    4.5683 C.3       1 RES1    0.0000
      9 N2         1.6877    1.6253    3.5049 N.pl3     1 RES1    0.0000
     10 O2         2.1513    1.6253    4.6405 O.2       1 RES1    0.0000
     11 H1C        0.1051    2.3859    1.5200 H         1 RES1    0.0000
     12 H3C       -0.3017    2.4964    5.0227 H         1 RES1    0.0000
@<TRIPOS>BOND
     1    1    2 1
     2    2    8 1
     3    3    9 2
     4    4    1 1
     5    5    1 1
     6    6    8 1
     7    7    8 1
     8    8   12 1
     9    9    2 1
    10   10    9 2
    11   11    1 1
@<TRIPOS>SUBSTRUCTURE
     1 RES1 1

@<TRIPOS>CRYSIN
   6.1290    6.5010    6.0600  90.0000 114.6600  90.0000  11 1

