# MOL2 file generated by ConQuest
# Please check atom types

@<TRIPOS>MOLECULE
METNAM04
    12    11     1
SMALL
NO_CHARGES
****
Generated from CSD

@<TRIPOS>ATOM
      1 O1         1.6983    1.6250    1.9423 O.2       1 RES1    0.0000
      2 O2         3.3866    1.6250    3.3056 O.2       1 RES1    0.0000
      3 N1         1.3510    1.6250    4.1147 N.3       1 RES1    0.0000
      4 N2         2.1826    1.6250    3.0740 N.pl3     1 RES1    0.0000
      5 C1        -0.0705    1.6250    3.8250 C.3       1 RES1    0.0000
      6 C2         1.9103    1.6250    5.4334 C.3       1 RES1    0.0000
      7 H1        -0.5230    1.6250    4.6027 H         1 RES1    0.0000
      8 H2        -0.3247    0.8190    3.2877 H         1 RES1    0.0000
      9 H3         1.1625    1.6250    6.0462 H         1 RES1    0.0000
     10 H4         2.4078    0.6955    5.5890 H         1 RES1    0.0000
     11 H2C       -0.3247    2.4310    3.2877 H         1 RES1    0.0000
     12 H4C        2.4078    2.5545    5.5890 H         1 RES1    0.0000
@<TRIPOS>BOND
     1    1    4 2
     2    2    4 2
     3    3    4 1
     4    5    3 1
     5    6    3 1
     6    7    5 1
     7    8    5 1
     8    9    6 1
     9   10    6 1
    10   11    5 1
    11   12    6 1
@<TRIPOS>SUBSTRUCTURE
     1 RES1 1

@<TRIPOS>CRYSIN
   6.5800    6.5000    6.1300  90.0000 123.0700  90.0000  11 1

