# MOL2 file generated by ConQuest
# Please check atom types

@<TRIPOS>MOLECULE
METROV
    10    10     1
SMALL
NO_CHARGES
****
Generated from CSD

@<TRIPOS>ATOM
      1 C1         1.1154    3.4008   -0.1497 C.2       1 RES1    0.0000
      2 C2         1.3589    2.5016    1.8477 C.2       1 RES1    0.0000
      3 N1         0.4641    3.1074    1.0023 N.am      1 RES1    0.0000
      4 H1        -0.3822    3.2755    1.1769 H         1 RES1    0.0000
      5 N2         1.0162    2.0463    3.0624 N.3       1 RES1    0.0000
      6 H2         1.6209    1.7480    3.6054 H         1 RES1    0.0000
      7 H3         0.3345    2.3955    3.4447 H         1 RES1    0.0000
      8 N3         2.5381    2.3569    1.2924 N.2       1 RES1    0.0000
      9 O1         0.7142    3.9811   -1.1475 O.2       1 RES1    0.0000
     10 O2         2.3793    2.9408   -0.0259 O.3       1 RES1    0.0000
@<TRIPOS>BOND
     1    1    3 1
     2    2    3 1
     3    3    4 1
     4    5    2 1
     5    6    5 1
     6    7    5 1
     7    8    2 2
     8    9    1 2
     9   10    1 1
    10    8   10 1
@<TRIPOS>SUBSTRUCTURE
     1 RES1 1

@<TRIPOS>CRYSIN
   9.3860    3.5384   12.1540  90.0000 109.1390  90.0000   9 1

