# MOL2 file generated by ConQuest
# Please check atom types

@<TRIPOS>MOLECULE
METSEK
    50    52     2
SMALL
NO_CHARGES
****
Generated from CSD

@<TRIPOS>ATOM
      1 N1         2.2273    3.4651    3.5607 N.am      1 RES1    0.0000
      2 H1         2.9671    3.0586    3.5821 H         1 RES1    0.0000
      3 N2         0.9269    3.4495    6.8155 N.am      2 RES2    0.0000
      4 H2         0.0313    3.0352    6.6832 H         2 RES2    0.0000
      5 O1         0.8040    1.6815    3.6066 O.2       1 RES1    0.0000
      6 O2         2.2296    4.8493    3.3260 O.3       1 RES1    0.0000
      7 O3        -1.0052    3.9692    4.2612 O.3       1 RES1    0.0000
      8 H3        -1.6519    3.4722    4.0418 H         1 RES1    0.0000
      9 O4         2.3416    1.6752    6.7432 O.2       2 RES2    0.0000
     10 O5         0.9277    4.8462    7.0705 O.3       2 RES2    0.0000
     11 O6         4.1547    3.9676    6.0973 O.3       2 RES2    0.0000
     12 H4         4.7364    3.3005    6.2787 H         2 RES2    0.0000
     13 C1         1.0373    2.9057    3.4927 C.2       1 RES1    0.0000
     14 C2         0.8478    5.2597    3.5178 C.3       1 RES1    0.0000
     15 H5         0.6067    5.9752    2.8773 H         1 RES1    0.0000
     16 H6         0.7108    5.5976    4.4371 H         1 RES1    0.0000
     17 C3        -0.0047    4.0121    3.2723 C.3       1 RES1    0.0000
     18 C4        -0.6114    3.9029    1.8536 C.3       1 RES1    0.0000
     19 H7        -1.1101    3.0500    1.7865 H         1 RES1    0.0000
     20 H8        -1.2604    4.6402    1.7282 H         1 RES1    0.0000
     21 C5         0.4094    3.9590    0.7345 C.ar      1 RES1    0.0000
     22 C6         0.7171    5.1653    0.1177 C.ar      1 RES1    0.0000
     23 H9         0.2826    5.9627    0.3984 H         1 RES1    0.0000
     24 C7         1.6558    5.2129   -0.9058 C.ar      1 RES1    0.0000
     25 H10        1.8546    6.0408   -1.3268 H         1 RES1    0.0000
     26 C8         2.3040    4.0589   -1.3155 C.ar      1 RES1    0.0000
     27 H11        2.9506    4.0956   -2.0102 H         1 RES1    0.0000
     28 C9         1.9994    2.8417   -0.7011 C.ar      1 RES1    0.0000
     29 H12        2.4386    2.0458   -0.9775 H         1 RES1    0.0000
     30 C10        1.0514    2.8019    0.3147 C.ar      1 RES1    0.0000
     31 H13        0.8400    1.9725    0.7262 H         1 RES1    0.0000
     32 C11        2.1177    2.9002    6.8661 C.2       2 RES2    0.0000
     33 C12        2.3102    5.2590    6.8784 C.3       2 RES2    0.0000
     34 H14        2.5576    5.9612    7.5320 H         2 RES2    0.0000
     35 H15        2.4441    5.6132    5.9631 H         2 RES2    0.0000
     36 C13        3.1503    4.0020    7.0962 C.3       2 RES2    0.0000
     37 C14        3.7719    3.8701    8.5024 C.3       2 RES2    0.0000
     38 H16        4.2612    3.0102    8.5524 H         2 RES2    0.0000
     39 H17        4.4326    4.5965    8.6259 H         2 RES2    0.0000
     40 C15        2.7870    3.9239    9.6365 C.ar      2 RES2    0.0000
     41 C16        2.4793    5.1333   10.2687 C.ar      2 RES2    0.0000
     42 H18        2.9013    5.9331    9.9773 H         2 RES2    0.0000
     43 C17        1.5689    5.1817   11.3105 C.ar      2 RES2    0.0000
     44 H19        1.3825    6.0103   11.7362 H         2 RES2    0.0000
     45 C18        0.9347    4.0417   11.7316 C.ar      2 RES2    0.0000
     46 H20        0.3030    4.0847   12.4409 H         2 RES2    0.0000
     47 C19        1.2080    2.8394   11.1340 C.ar      2 RES2    0.0000
     48 H21        0.7672    2.0521   11.4328 H         2 RES2    0.0000
     49 C20        2.1325    2.7676   10.0876 C.ar      2 RES2    0.0000
     50 H22        2.3196    1.9296    9.6800 H         2 RES2    0.0000
@<TRIPOS>BOND
     1    1    2 1
     2    3    4 1
     3    5   13 2
     4    6    1 1
     5    7    8 1
     6    9   32 2
     7   10    3 1
     8   11   12 1
     9   13    1 1
    10   14    6 1
    11   15   14 1
    12   16   14 1
    13   17    7 1
    14   18   17 1
    15   19   18 1
    16   20   18 1
    17   21   18 1
    18   22   21 ar
    19   23   22 1
    20   24   22 ar
    21   25   24 1
    22   26   24 ar
    23   27   26 1
    24   28   26 ar
    25   29   28 1
    26   30   21 ar
    27   31   30 1
    28   32    3 1
    29   33   10 1
    30   34   33 1
    31   35   33 1
    32   36   11 1
    33   37   36 1
    34   38   37 1
    35   39   37 1
    36   40   37 1
    37   41   40 ar
    38   42   41 1
    39   43   41 ar
    40   44   43 1
    41   45   43 ar
    42   46   45 1
    43   47   45 ar
    44   48   47 1
    45   49   40 ar
    46   50   49 1
    47   13   17 1
    48   14   17 1
    49   28   30 ar
    50   32   36 1
    51   33   36 1
    52   47   49 ar
@<TRIPOS>SUBSTRUCTURE
     1 RES1 1
     2 RES2 3

@<TRIPOS>CRYSIN
   7.8287    7.8026   30.6427  90.0000  90.0000  90.0000  33 1

