# MOL2 file generated by ConQuest
# Please check atom types

@<TRIPOS>MOLECULE
MEWGIG
    33    34     1
SMALL
NO_CHARGES
****
Generated from CSD

@<TRIPOS>ATOM
      1 O1        -3.0774   -3.7171    4.3773 O.2       1 RES1    0.0000
      2 O2        -1.5793   -4.5924    3.0825 O.2       1 RES1    0.0000
      3 O3         5.5778    2.3084   -0.2804 O.2       1 RES1    0.0000
      4 O4         3.9511    2.7325   -1.6072 O.2       1 RES1    0.0000
      5 O5         0.1674    1.6344    5.8092 O.2       1 RES1    0.0000
      6 N1         0.7670    1.2335    3.6514 N.am      1 RES1    0.0000
      7 N2        -2.0672   -3.6394    3.6860 N.pl3     1 RES1    0.0000
      8 N3         4.3799    2.3772   -0.5208 N.pl3     1 RES1    0.0000
      9 C1        -0.0060    0.0319    3.5860 C.ar      1 RES1    0.0000
     10 C2        -1.2827   -0.0313    4.1454 C.ar      1 RES1    0.0000
     11 C3        -1.9663   -1.2333    4.1658 C.ar      1 RES1    0.0000
     12 C4        -1.3815   -2.3424    3.5930 C.ar      1 RES1    0.0000
     13 C5        -0.1526   -2.2851    2.9597 C.ar      1 RES1    0.0000
     14 C6         0.5389   -1.0909    2.9693 C.ar      1 RES1    0.0000
     15 C7         1.6797    1.5019    2.5713 C.ar      1 RES1    0.0000
     16 C8         3.0435    1.3167    2.7714 C.ar      1 RES1    0.0000
     17 C9         3.9252    1.5985    1.7496 C.ar      1 RES1    0.0000
     18 C10        3.4284    2.0366    0.5509 C.ar      1 RES1    0.0000
     19 C11        2.0766    2.1977    0.3181 C.ar      1 RES1    0.0000
     20 C12        1.1963    1.9218    1.3530 C.ar      1 RES1    0.0000
     21 C13        0.8089    1.9733    4.8307 C.2       1 RES1    0.0000
     22 C14        1.6685    3.2054    4.8559 C.3       1 RES1    0.0000
     23 H1        -1.6816    0.7498    4.5111 H         1 RES1    0.0000
     24 H2        -2.8251   -1.2930    4.5676 H         1 RES1    0.0000
     25 H3         0.2071   -3.0510    2.5275 H         1 RES1    0.0000
     26 H4         1.3913   -1.0349    2.5529 H         1 RES1    0.0000
     27 H5         3.3656    0.9979    3.6063 H         1 RES1    0.0000
     28 H6         4.8607    1.4910    1.8752 H         1 RES1    0.0000
     29 H7         1.7580    2.4899   -0.5279 H         1 RES1    0.0000
     30 H8         0.2606    2.0220    1.2217 H         1 RES1    0.0000
     31 H9         1.7786    3.5452    3.9440 H         1 RES1    0.0000
     32 H10        2.5470    2.9836    5.2303 H         1 RES1    0.0000
     33 H11        1.2412    3.8909    5.4112 H         1 RES1    0.0000
@<TRIPOS>BOND
     1    1    7 2
     2    2    7 2
     3    3    8 2
     4    4    8 2
     5    5   21 2
     6    6    9 1
     7    7   12 1
     8    8   18 1
     9    9   10 ar
    10   10   11 ar
    11   11   12 ar
    12   12   13 ar
    13   13   14 ar
    14   14    9 ar
    15   15    6 1
    16   16   15 ar
    17   17   16 ar
    18   18   17 ar
    19   19   18 ar
    20   20   15 ar
    21   21    6 1
    22   22   21 1
    23   23   10 1
    24   24   11 1
    25   25   13 1
    26   26   14 1
    27   27   16 1
    28   28   17 1
    29   29   19 1
    30   30   20 1
    31   31   22 1
    32   32   22 1
    33   33   22 1
    34   19   20 ar
@<TRIPOS>SUBSTRUCTURE
     1 RES1 1

@<TRIPOS>CRYSIN
   7.4540    8.0700   12.0780  81.4490  74.6760  88.0620   2 1

