# MOL2 file generated by ConQuest
# Please check atom types

@<TRIPOS>MOLECULE
MEWLIL
    25    26     1
SMALL
NO_CHARGES
****
Generated from CSD

@<TRIPOS>ATOM
      1 C1         1.4993   -0.8081    6.1120 C.ar      1 RES1    0.0000
      2 C2         1.2728    0.3833    6.7776 C.ar      1 RES1    0.0000
      3 H1         0.4179    0.6566    7.0208 H         1 RES1    0.0000
      4 C3         2.3858    1.1397    7.0575 C.ar      1 RES1    0.0000
      5 C4         3.6761    0.7158    6.6929 C.ar      1 RES1    0.0000
      6 C5         3.8776   -0.4888    6.0474 C.ar      1 RES1    0.0000
      7 H2         4.7325   -0.7718    5.8186 H         1 RES1    0.0000
      8 C6         2.7704   -1.2586    5.7535 C.ar      1 RES1    0.0000
      9 H3         2.8712   -2.0745    5.3187 H         1 RES1    0.0000
     10 C7         3.8393    2.7381    7.6930 C.2       1 RES1    0.0000
     11 C8         5.9920    1.7538    6.8682 C.3       1 RES1    0.0000
     12 H4         6.3375    0.8480    6.8284 H         1 RES1    0.0000
     13 H5         6.4216    2.2046    7.6113 H         1 RES1    0.0000
     14 C9         6.3334    2.4694    5.5933 C.2       1 RES1    0.0000
     15 H6         6.0811    3.3638    5.5588 H         1 RES1    0.0000
     16 C10        6.8736    2.0610    4.6296 C.2       1 RES1    0.0000
     17 H7         7.1533    1.1756    4.5950 H         1 RES1    0.0000
     18 H8         7.0210    2.6249    3.9059 H         1 RES1    0.0000
     19 N1         0.3346   -1.6216    5.7555 N.pl3     1 RES1    0.0000
     20 N2         2.5265    2.3626    7.6719 N.am      1 RES1    0.0000
     21 H9         1.8789    2.8253    7.9977 H         1 RES1    0.0000
     22 N3         4.5444    1.7093    7.1013 N.am      1 RES1    0.0000
     23 O1         0.5020   -2.6224    5.0832 O.2       1 RES1    0.0000
     24 O2        -0.7717   -1.2603    6.1321 O.2       1 RES1    0.0000
     25 O3         4.3096    3.7761    8.1489 O.2       1 RES1    0.0000
@<TRIPOS>BOND
     1    1    2 ar
     2    2    3 1
     3    4    2 ar
     4    5    4 ar
     5    6    5 ar
     6    7    6 1
     7    8    1 ar
     8    9    8 1
     9   10   20 1
    10   11   12 1
    11   13   11 1
    12   14   11 1
    13   15   14 1
    14   16   14 2
    15   17   16 1
    16   18   16 1
    17   19    1 1
    18   20    4 1
    19   21   20 1
    20   22    5 1
    21   23   19 2
    22   24   19 2
    23   25   10 2
    24    6    8 ar
    25   10   22 1
    26   11   22 1
@<TRIPOS>SUBSTRUCTURE
     1 RES1 1

@<TRIPOS>CRYSIN
   8.3246   14.9567   16.4461  90.0000  90.0000  90.0000  61 1

