# MOL2 file generated by ConQuest
# Please check atom types

@<TRIPOS>MOLECULE
MEWYIY
    35    37     1
SMALL
NO_CHARGES
****
Generated from CSD

@<TRIPOS>ATOM
      1 C1        -0.2437    2.3832    5.4599 C.ar      1 RES1    0.0000
      2 C2        -1.3492    2.8251    6.1595 C.ar      1 RES1    0.0000
      3 H1        -1.6842    3.7036    6.0234 H         1 RES1    0.0000
      4 C3        -1.9582    1.9809    7.0536 C.ar      1 RES1    0.0000
      5 H2        -2.7232    2.2618    7.5413 H         1 RES1    0.0000
      6 C4        -1.4310    0.6998    7.2317 C.ar      1 RES1    0.0000
      7 C5        -0.3087    0.2555    6.5696 C.ar      1 RES1    0.0000
      8 H3         0.0306   -0.6181    6.7257 H         1 RES1    0.0000
      9 C6         0.3246    1.1140    5.6626 C.ar      1 RES1    0.0000
     10 C7         1.5239    0.7937    4.9466 C.2       1 RES1    0.0000
     11 H4         1.9184   -0.0622    5.0635 H         1 RES1    0.0000
     12 C8         2.1039    1.6743    4.1155 C.2       1 RES1    0.0000
     13 C9         1.4437    2.9570    3.8232 C.2       1 RES1    0.0000
     14 C10        3.3648    1.2912    3.3857 C.2       1 RES1    0.0000
     15 C11        4.4358    2.2886    3.1720 C.ar      1 RES1    0.0000
     16 C12        4.6195    3.3957    3.9985 C.ar      1 RES1    0.0000
     17 H5         4.0382    3.5240    4.7393 H         1 RES1    0.0000
     18 C13        5.6312    4.3130    3.7638 C.ar      1 RES1    0.0000
     19 H6         5.7495    5.0555    4.3438 H         1 RES1    0.0000
     20 C14        6.4740    4.1345    2.6687 C.ar      1 RES1    0.0000
     21 C15        6.3210    3.0152    1.8467 C.ar      1 RES1    0.0000
     22 H7         6.9071    2.8851    1.1106 H         1 RES1    0.0000
     23 C16        5.3232    2.1006    2.1025 C.ar      1 RES1    0.0000
     24 H8         5.2355    1.3347    1.5472 H         1 RES1    0.0000
     25 C17        7.7508    6.1066    3.1702 C.3       1 RES1    0.0000
     26 H9         8.0756    5.7513    4.0241 H         1 RES1    0.0000
     27 H10        6.9453    6.6422    3.3254 H         1 RES1    0.0000
     28 H11        8.4441    6.6681    2.7646 H         1 RES1    0.0000
     29 N1        -2.1135   -0.2044    8.1516 N.pl3     1 RES1    0.0000
     30 O1         0.2920    3.2413    4.5428 O.3       1 RES1    0.0000
     31 O2        -1.7846   -1.3923    8.1429 O.2       1 RES1    0.0000
     32 O3        -2.9762    0.2562    8.8975 O.2       1 RES1    0.0000
     33 O4         1.7735    3.7685    3.0075 O.2       1 RES1    0.0000
     34 O5         3.4818    0.1329    3.0099 O.2       1 RES1    0.0000
     35 O6         7.4374    5.0140    2.2828 O.3       1 RES1    0.0000
@<TRIPOS>BOND
     1    1    2 ar
     2    2    3 1
     3    4    2 ar
     4    5    4 1
     5    6    4 ar
     6    7    6 ar
     7    8    7 1
     8    9    1 ar
     9   10    9 1
    10   11   10 1
    11   12   10 2
    12   13   12 1
    13   14   12 1
    14   15   14 1
    15   16   15 ar
    16   17   16 1
    17   18   16 ar
    18   19   18 1
    19   20   18 ar
    20   21   20 ar
    21   22   21 1
    22   23   15 ar
    23   24   23 1
    24   25   26 1
    25   27   25 1
    26   28   25 1
    27   29    6 1
    28   30    1 1
    29   31   29 2
    30   32   29 2
    31   33   13 2
    32   34   14 2
    33   35   20 1
    34    7    9 ar
    35   13   30 1
    36   21   23 ar
    37   25   35 1
@<TRIPOS>SUBSTRUCTURE
     1 RES1 1

@<TRIPOS>CRYSIN
   8.8750   17.2660    9.1740  90.0000  95.4010  90.0000 231 1

