# MOL2 file generated by ConQuest
# Please check atom types

@<TRIPOS>MOLECULE
MEXLIN
    48    50     1
SMALL
NO_CHARGES
****
Generated from CSD

@<TRIPOS>ATOM
      1 N1         4.8730   11.0094    6.1817 N.2       1 RES1    0.0000
      2 O1         3.9002   13.8157    3.6453 O.2       1 RES1    0.0000
      3 N2         4.5873   12.2115    5.5832 N.pl3     1 RES1    0.0000
      4 H1         4.2520   12.2322    4.7910 H         1 RES1    0.0000
      5 O2         5.6258   18.0063    7.8035 O.2       1 RES1    0.0000
      6 O3         4.1208   15.9455    3.8481 O.2       1 RES1    0.0000
      7 N3         4.1930   14.8100    4.3112 N.pl3     1 RES1    0.0000
      8 O4         6.0966   16.8320    9.5474 O.2       1 RES1    0.0000
      9 N4         5.7186   16.9284    8.3862 N.pl3     1 RES1    0.0000
     10 C1         4.6499   14.6421    5.6703 C.ar      1 RES1    0.0000
     11 C2         3.5932    9.9503    4.3527 C.ar      1 RES1    0.0000
     12 C3         2.2425    9.6252    4.4143 C.ar      1 RES1    0.0000
     13 H2         1.8598    9.3707    5.2229 H         1 RES1    0.0000
     14 C4         4.2697    7.4839    5.9843 C.2       1 RES1    0.0000
     15 H3         3.7924    7.4017    5.1908 H         1 RES1    0.0000
     16 C5         4.7023    8.7016    6.3077 C.2       1 RES1    0.0000
     17 H4         5.2449    8.7644    7.0599 H         1 RES1    0.0000
     18 C6         5.5733   14.4782    8.2657 C.ar      1 RES1    0.0000
     19 H5         5.8807   14.4342    9.1430 H         1 RES1    0.0000
     20 C7         4.8374   13.3640    6.2480 C.ar      1 RES1    0.0000
     21 C8         4.2731    5.0240    6.1753 C.ar      1 RES1    0.0000
     22 H6         3.9925    4.9786    5.2901 H         1 RES1    0.0000
     23 C9         4.1394   10.2994    3.1385 C.ar      1 RES1    0.0000
     24 H7         5.0426   10.5141    3.0854 H         1 RES1    0.0000
     25 C10        4.4154    9.9374    5.6084 C.2       1 RES1    0.0000
     26 C11        4.9227   15.8047    6.3745 C.ar      1 RES1    0.0000
     27 H8         4.7922   16.6381    5.9807 H         1 RES1    0.0000
     28 C12        4.4775    6.2642    6.7669 C.ar      1 RES1    0.0000
     29 C13        5.3871   15.7072    7.6577 C.ar      1 RES1    0.0000
     30 C14        5.3057   13.3330    7.5776 C.ar      1 RES1    0.0000
     31 H9         5.4355   12.5126    7.9952 H         1 RES1    0.0000
     32 C15        1.4686    9.6811    3.2685 C.ar      1 RES1    0.0000
     33 H10        0.5613    9.4813    3.3105 H         1 RES1    0.0000
     34 C16        4.8752    6.2773    8.0985 C.ar      1 RES1    0.0000
     35 H11        5.0122    7.0917    8.5250 H         1 RES1    0.0000
     36 C17        5.0707    5.1105    8.7985 C.ar      1 RES1    0.0000
     37 H12        5.3297    5.1524    9.6910 H         1 RES1    0.0000
     38 C18        2.0376   10.0322    2.0676 C.ar      1 RES1    0.0000
     39 H13        1.5153   10.0619    1.2987 H         1 RES1    0.0000
     40 C19        4.4809    3.8549    6.8838 C.ar      1 RES1    0.0000
     41 H14        4.3435    3.0373    6.4616 H         1 RES1    0.0000
     42 C20        4.8891    3.8737    8.2036 C.ar      1 RES1    0.0000
     43 C21        3.3633   10.3358    2.0008 C.ar      1 RES1    0.0000
     44 H15        3.7459   10.5674    1.1855 H         1 RES1    0.0000
     45 C22        5.1207    2.5874    8.9710 C.3       1 RES1    0.0000
     46 H16        5.3975    2.7944    9.8671 H         1 RES1    0.0000
     47 H17        5.8046    2.0736    8.5362 H         1 RES1    0.0000
     48 H18        4.3061    2.0795    8.9976 H         1 RES1    0.0000
@<TRIPOS>BOND
     1    1    3 1
     2    2    7 2
     3    3    4 1
     4    5    9 2
     5    6    7 2
     6    7   10 1
     7    8    9 2
     8    9   29 1
     9   10   20 ar
    10   11   12 ar
    11   12   13 1
    12   14   15 1
    13   16   14 2
    14   17   16 1
    15   18   19 1
    16   20    3 1
    17   21   22 1
    18   23   11 ar
    19   24   23 1
    20   25    1 2
    21   26   10 ar
    22   27   26 1
    23   28   14 1
    24   29   18 ar
    25   30   18 ar
    26   31   30 1
    27   32   12 ar
    28   33   32 1
    29   34   28 ar
    30   35   34 1
    31   36   34 ar
    32   37   36 1
    33   38   32 ar
    34   39   38 1
    35   40   21 ar
    36   41   40 1
    37   42   36 ar
    38   43   23 ar
    39   44   43 1
    40   45   42 1
    41   46   45 1
    42   47   45 1
    43   48   45 1
    44   11   25 1
    45   16   25 1
    46   20   30 ar
    47   21   28 ar
    48   26   29 ar
    49   38   43 ar
    50   40   42 ar
@<TRIPOS>SUBSTRUCTURE
     1 RES1 1

@<TRIPOS>CRYSIN
   7.2520   19.7485   14.0347  90.0000  95.0580  90.0000  14 1

