# MOL2 file generated by ConQuest
# Please check atom types

@<TRIPOS>MOLECULE
MEXTUG
    28    29     1
SMALL
NO_CHARGES
****
Generated from CSD

@<TRIPOS>ATOM
      1 O1         0.8189    2.5825   12.0558 O.3       1 RES1    0.0000
      2 O2         0.9911    3.5521   14.0183 O.2       1 RES1    0.0000
      3 C1         0.2971    3.3470   13.0638 C.2       1 RES1    0.0000
      4 C2        -1.0922    3.8423   12.8358 C.3       1 RES1    0.0000
      5 H1        -1.2710    4.6021   13.4462 H         1 RES1    0.0000
      6 H2        -1.7342    3.1209   13.0547 H         1 RES1    0.0000
      7 C3        -1.3157    4.2921   11.3973 C.3       1 RES1    0.0000
      8 H3        -2.2705    4.5146   11.2587 H         1 RES1    0.0000
      9 H4        -0.7769    5.1008   11.2097 H         1 RES1    0.0000
     10 C4        -1.5306    2.8656    9.2451 C.ar      1 RES1    0.0000
     11 N1        -2.5174    3.7783    8.7006 N.pl3     1 RES1    0.0000
     12 O3        -3.3573    3.3445    7.8929 O.2       1 RES1    0.0000
     13 O4        -2.4750    4.9547    9.0370 O.2       1 RES1    0.0000
     14 C5        -1.2055    1.7121    8.5229 C.ar      1 RES1    0.0000
     15 O5        -1.8069    1.3401    7.3669 O.3       1 RES1    0.0000
     16 H5        -2.4980    1.8573    7.3553 H         1 RES1    0.0000
     17 C6        -0.1721    0.8723    8.9872 C.ar      1 RES1    0.0000
     18 C7         0.1850   -0.3406    8.1806 C.3       1 RES1    0.0000
     19 H6         0.1400   -1.1365    8.7502 H         1 RES1    0.0000
     20 H7         1.0940   -0.2422    7.8271 H         1 RES1    0.0000
     21 H8        -0.4453   -0.4348    7.4355 H         1 RES1    0.0000
     22 C8         0.4817    1.1769   10.1745 C.ar      1 RES1    0.0000
     23 C9         1.5723    0.2938   10.7175 C.3       1 RES1    0.0000
     24 H9         2.1591    0.0109    9.9847 H         1 RES1    0.0000
     25 H10        1.1736   -0.4954   11.1390 H         1 RES1    0.0000
     26 H11        2.0952    0.7902   11.3810 H         1 RES1    0.0000
     27 C10        0.0810    2.3195   10.8853 C.ar      1 RES1    0.0000
     28 C11       -0.9097    3.1797   10.4700 C.ar      1 RES1    0.0000
@<TRIPOS>BOND
     1    1    3 1
     2    2    3 2
     3    3    4 1
     4    4    5 1
     5    6    4 1
     6    7    4 1
     7    8    7 1
     8    9    7 1
     9   10   11 1
    10   11   12 2
    11   13   11 2
    12   14   10 ar
    13   15   14 1
    14   16   15 1
    15   17   14 ar
    16   18   17 1
    17   19   18 1
    18   20   18 1
    19   21   18 1
    20   22   17 ar
    21   23   22 1
    22   24   23 1
    23   25   23 1
    24   26   23 1
    25   27    1 1
    26   28    7 1
    27   10   28 ar
    28   22   27 ar
    29   27   28 ar
@<TRIPOS>SUBSTRUCTURE
     1 RES1 1

@<TRIPOS>CRYSIN
   5.0922    7.3347   13.9420  97.6570 100.0720  90.8620   2 1

