# MOL2 file generated by ConQuest
# Please check atom types

@<TRIPOS>MOLECULE
MEYNEM
    60    62     1
SMALL
NO_CHARGES
****
Generated from CSD

@<TRIPOS>ATOM
      1 O1         4.5122    7.4964    8.7812 O.2       1 RES1    0.0000
      2 N1         3.8930    6.9106    5.6493 N.ar      1 RES1    0.0000
      3 O2         1.7216    4.1692    7.3268 O.2       1 RES1    0.0000
      4 C1         5.4709    5.1646   10.2407 C.3       1 RES1    0.0000
      5 H1         6.0227    4.9486    9.4850 H         1 RES1    0.0000
      6 H2         5.5237    4.4572   10.8876 H         1 RES1    0.0000
      7 H3         5.7754    5.9838   10.6364 H         1 RES1    0.0000
      8 N2         3.9742    6.3497    8.6758 N.pl3     1 RES1    0.0000
      9 N3         2.6574    4.7471    7.9628 N.pl3     1 RES1    0.0000
     10 C2         2.8607    6.7578    6.4819 C.ar      1 RES1    0.0000
     11 C3         4.0268    5.3276    9.7840 C.3       1 RES1    0.0000
     12 C4         3.6919    7.6279    4.5303 C.ar      1 RES1    0.0000
     13 C5         3.1485    5.9533    7.6983 C.2       1 RES1    0.0000
     14 C6         3.4111    4.0847    9.0818 C.3       1 RES1    0.0000
     15 C7         4.8416    7.7798    3.5868 C.3       1 RES1    0.0000
     16 H4         5.6618    7.8076    4.0849 H         1 RES1    0.0000
     17 H5         4.7411    8.5947    3.0898 H         1 RES1    0.0000
     18 H6         4.8594    7.0353    2.9820 H         1 RES1    0.0000
     19 C8         3.1858    5.8964   10.9286 C.3       1 RES1    0.0000
     20 H7         3.5344    6.7530   11.1873 H         1 RES1    0.0000
     21 H8         3.2194    5.2982   11.6789 H         1 RES1    0.0000
     22 H9         2.2757    5.9957   10.6396 H         1 RES1    0.0000
     23 C9         4.4647    3.1720    8.4274 C.3       1 RES1    0.0000
     24 H10        4.0241    2.4960    7.9078 H         1 RES1    0.0000
     25 H11        4.9964    2.7559    9.1098 H         1 RES1    0.0000
     26 H12        5.0316    3.6954    7.8560 H         1 RES1    0.0000
     27 C10        2.4373    3.2802    9.9357 C.3       1 RES1    0.0000
     28 H13        1.7001    3.8388   10.1922 H         1 RES1    0.0000
     29 H14        2.8879    2.9635   10.7216 H         1 RES1    0.0000
     30 H15        2.1115    2.5318    9.4300 H         1 RES1    0.0000
     31 O1B        0.7734    7.4406    1.9996 O.2       1 RES1    0.0000
     32 N1B        1.3926    8.0264    5.1316 N.ar      1 RES1    0.0000
     33 O2B        3.5640   10.7678    3.4541 O.2       1 RES1    0.0000
     34 C1B       -0.1853    9.7724    0.5401 C.3       1 RES1    0.0000
     35 H1B       -0.7371    9.9884    1.2959 H         1 RES1    0.0000
     36 H2B       -0.2381   10.4798   -0.1067 H         1 RES1    0.0000
     37 H3B       -0.4899    8.9532    0.1445 H         1 RES1    0.0000
     38 N2B        1.3113    8.5873    2.1051 N.pl3     1 RES1    0.0000
     39 N3B        2.6282   10.1899    2.8181 N.pl3     1 RES1    0.0000
     40 C2B        2.4249    8.1792    4.2990 C.ar      1 RES1    0.0000
     41 C3B        1.2587    9.6094    0.9969 C.3       1 RES1    0.0000
     42 C4B        1.5936    7.3091    6.2505 C.ar      1 RES1    0.0000
     43 C5B        2.1371    8.9837    3.0826 C.2       1 RES1    0.0000
     44 C6B        1.8745   10.8523    1.6991 C.3       1 RES1    0.0000
     45 C7B        0.4440    7.1572    7.1941 C.3       1 RES1    0.0000
     46 H4B       -0.3762    7.1294    6.6960 H         1 RES1    0.0000
     47 H5B        0.5445    6.3423    7.6911 H         1 RES1    0.0000
     48 H6B        0.4262    7.9017    7.7989 H         1 RES1    0.0000
     49 C8B        2.0998    9.0406   -0.1477 C.3       1 RES1    0.0000
     50 H7B        1.7512    8.1840   -0.4064 H         1 RES1    0.0000
     51 H8B        2.0662    9.6388   -0.8980 H         1 RES1    0.0000
     52 H9B        3.0099    8.9413    0.1412 H         1 RES1    0.0000
     53 C9B        0.8209   11.7650    2.3535 C.3       1 RES1    0.0000
     54 H10B       1.2614   12.4410    2.8731 H         1 RES1    0.0000
     55 H11B       0.2892   12.1811    1.6710 H         1 RES1    0.0000
     56 H12B       0.2540   11.2416    2.9249 H         1 RES1    0.0000
     57 C10B       2.8483   11.6568    0.8452 C.3       1 RES1    0.0000
     58 H13B       3.5855   11.0982    0.5886 H         1 RES1    0.0000
     59 H14B       2.3977   11.9735    0.0593 H         1 RES1    0.0000
     60 H15B       3.1741   12.4052    1.3508 H         1 RES1    0.0000
@<TRIPOS>BOND
     1    1    8 1
     2    2   10 ar
     3    3    9 1
     4    4    5 1
     5    6    4 1
     6    7    4 1
     7    8   11 1
     8    9   13 2
     9   10   13 1
    10   11    4 1
    11   12    2 ar
    12   13    8 1
    13   14    9 1
    14   15   12 1
    15   16   15 1
    16   17   15 1
    17   18   15 1
    18   19   11 1
    19   20   19 1
    20   21   19 1
    21   22   19 1
    22   23   14 1
    23   24   23 1
    24   25   23 1
    25   26   23 1
    26   27   14 1
    27   28   27 1
    28   29   27 1
    29   30   27 1
    30   31   38 1
    31   32   40 ar
    32   33   39 1
    33   34   35 1
    34   36   34 1
    35   37   34 1
    36   38   41 1
    37   39   43 2
    38   40   12 ar
    39   41   34 1
    40   42   10 ar
    41   43   38 1
    42   44   39 1
    43   45   42 1
    44   46   45 1
    45   47   45 1
    46   48   45 1
    47   49   41 1
    48   50   49 1
    49   51   49 1
    50   52   49 1
    51   53   44 1
    52   54   53 1
    53   55   53 1
    54   56   53 1
    55   57   44 1
    56   58   57 1
    57   59   57 1
    58   60   57 1
    59   11   14 1
    60   32   42 ar
    61   40   43 1
    62   41   44 1
@<TRIPOS>SUBSTRUCTURE
     1 RES1 1

@<TRIPOS>CRYSIN
   6.6590   14.9370   10.8680  90.0000  97.2600  90.0000 231 1

