# MOL2 file generated by ConQuest
# Please check atom types

@<TRIPOS>MOLECULE
MEZHAC
    68    72     1
SMALL
NO_CHARGES
****
Generated from CSD

@<TRIPOS>ATOM
      1 C1         0.4174    4.3380    6.7019 C.3       1 RES1    0.0000
      2 H1         0.7163    3.9458    7.5479 H         1 RES1    0.0000
      3 C2         1.4605    6.3996    6.4673 C.3       1 RES1    0.0000
      4 C3         0.1866    6.5594    7.3738 C.3       1 RES1    0.0000
      5 C4         0.5276    6.4565    8.8879 C.2       1 RES1    0.0000
      6 C5        -0.6849    8.3545    8.6063 C.ar      1 RES1    0.0000
      7 C6        -1.3488    9.5316    8.8812 C.ar      1 RES1    0.0000
      8 H2        -1.4065    9.8599    9.7488 H         1 RES1    0.0000
      9 C7        -1.9219   10.2037    7.8237 C.ar      1 RES1    0.0000
     10 H3        -2.3702   11.0041    7.9805 H         1 RES1    0.0000
     11 C8        -1.8443    9.7142    6.5466 C.ar      1 RES1    0.0000
     12 H4        -2.2444   10.1840    5.8501 H         1 RES1    0.0000
     13 C9        -1.1767    8.5280    6.2763 C.ar      1 RES1    0.0000
     14 H5        -1.1376    8.1960    5.4099 H         1 RES1    0.0000
     15 C10       -0.5746    7.8539    7.3111 C.ar      1 RES1    0.0000
     16 C11       -0.0851    3.2646    5.7718 C.ar      1 RES1    0.0000
     17 C12       -0.6121    3.5967    4.5371 C.ar      1 RES1    0.0000
     18 H6        -0.6712    4.4917    4.2875 H         1 RES1    0.0000
     19 C13       -1.0479    2.6205    3.6774 C.ar      1 RES1    0.0000
     20 H7        -1.4010    2.8396    2.8450 H         1 RES1    0.0000
     21 C14       -0.9504    1.3096    4.0773 C.ar      1 RES1    0.0000
     22 C15       -0.4376    0.9618    5.2936 C.ar      1 RES1    0.0000
     23 H8        -0.3788    0.0669    5.5433 H         1 RES1    0.0000
     24 C16       -0.0098    1.9499    6.1428 C.ar      1 RES1    0.0000
     25 H9         0.3337    1.7242    6.9763 H         1 RES1    0.0000
     26 C17       -1.7127    5.0160    7.7532 C.ar      1 RES1    0.0000
     27 C18       -2.9042    5.6858    7.5494 C.ar      1 RES1    0.0000
     28 H10       -2.9587    6.3510    6.9019 H         1 RES1    0.0000
     29 C19       -4.0167    5.3682    8.3063 C.ar      1 RES1    0.0000
     30 H11       -4.8060    5.8393    8.1672 H         1 RES1    0.0000
     31 C20       -3.9903    4.3749    9.2629 C.ar      1 RES1    0.0000
     32 C21       -2.8027    3.6952    9.4434 C.ar      1 RES1    0.0000
     33 H12       -2.7601    3.0141   10.0747 H         1 RES1    0.0000
     34 C22       -1.6723    4.0048    8.7084 C.ar      1 RES1    0.0000
     35 H13       -0.8824    3.5351    8.8532 H         1 RES1    0.0000
     36 C23       -5.2241    4.0219   10.0633 C.3       1 RES1    0.0000
     37 H14       -5.2913    4.6058   10.8217 H         1 RES1    0.0000
     38 H15       -5.1625    3.1125   10.3662 H         1 RES1    0.0000
     39 H16       -6.0030    4.1216    9.5126 H         1 RES1    0.0000
     40 C24       -0.0822    7.6869   10.9585 C.3       1 RES1    0.0000
     41 H17        0.1419    8.6054   11.1723 H         1 RES1    0.0000
     42 H18        0.5841    7.1121   11.3667 H         1 RES1    0.0000
     43 C25       -1.4232    7.3614   11.5229 C.2       1 RES1    0.0000
     44 H19       -1.7487    6.5006   11.3876 H         1 RES1    0.0000
     45 C26       -2.1472    8.1593   12.1632 C.2       1 RES1    0.0000
     46 H20       -1.8567    9.0292   12.3175 H         1 RES1    0.0000
     47 H21       -2.9730    7.8811   12.4833 H         1 RES1    0.0000
     48 C27        1.3444    7.2263    5.1740 C.2       1 RES1    0.0000
     49 C28        1.9746    9.2090    4.0665 C.3       1 RES1    0.0000
     50 H22        2.3673    8.7694    3.3100 H         1 RES1    0.0000
     51 H23        2.4486   10.0252    4.2437 H         1 RES1    0.0000
     52 H24        1.0554    9.4072    3.8797 H         1 RES1    0.0000
     53 C29        2.7133    6.8024    7.2773 C.2       1 RES1    0.0000
     54 C30        4.8145    6.3970    8.0815 C.3       1 RES1    0.0000
     55 H25        4.7498    7.3404    8.2473 H         1 RES1    0.0000
     56 H26        5.6619    6.2015    7.6756 H         1 RES1    0.0000
     57 H27        4.7385    5.9206    8.9104 H         1 RES1    0.0000
     58 N1        -0.5781    5.3703    6.9439 N.3       1 RES1    0.0000
     59 N2        -0.0514    7.5084    9.5169 N.am      1 RES1    0.0000
     60 N3        -1.4188    0.2559    3.1832 N.pl3     1 RES1    0.0000
     61 O1         1.4812    5.0465    6.0799 O.3       1 RES1    0.0000
     62 O2         1.1424    5.5527    9.4182 O.2       1 RES1    0.0000
     63 O3         0.6812    6.8858    4.2465 O.2       1 RES1    0.0000
     64 O4         2.0573    8.3355    5.2340 O.3       1 RES1    0.0000
     65 O5         2.7517    7.7918    7.9306 O.2       1 RES1    0.0000
     66 O6         3.6995    5.9731    7.1510 O.3       1 RES1    0.0000
     67 O7        -1.2882   -0.8989    3.5453 O.2       1 RES1    0.0000
     68 O8        -1.8569    0.5603    2.1051 O.2       1 RES1    0.0000
@<TRIPOS>BOND
     1    1    2 1
     2    3    4 1
     3    4    5 1
     4    5   59 1
     5    6    7 ar
     6    7    8 1
     7    9    7 ar
     8   10    9 1
     9   11    9 ar
    10   12   11 1
    11   13   11 ar
    12   14   13 1
    13   15    4 1
    14   16    1 1
    15   17   16 ar
    16   18   17 1
    17   19   17 ar
    18   20   19 1
    19   21   19 ar
    20   22   21 ar
    21   23   22 1
    22   24   16 ar
    23   25   24 1
    24   26   27 ar
    25   27   28 1
    26   29   27 ar
    27   30   29 1
    28   31   29 ar
    29   32   31 ar
    30   33   32 1
    31   34   26 ar
    32   35   34 1
    33   36   31 1
    34   37   36 1
    35   38   36 1
    36   39   36 1
    37   40   41 1
    38   42   40 1
    39   43   40 1
    40   44   43 1
    41   45   43 2
    42   46   45 1
    43   47   45 1
    44   48    3 1
    45   49   50 1
    46   51   49 1
    47   52   49 1
    48   53    3 1
    49   54   55 1
    50   56   54 1
    51   57   54 1
    52   58    1 1
    53   59    6 1
    54   60   21 1
    55   61    1 1
    56   62    5 2
    57   63   48 2
    58   64   48 1
    59   65   53 2
    60   66   53 1
    61   67   60 2
    62   68   60 2
    63    3   61 1
    64    4   58 1
    65    6   15 ar
    66   13   15 ar
    67   22   24 ar
    68   26   58 1
    69   32   34 ar
    70   40   59 1
    71   49   64 1
    72   54   66 1
@<TRIPOS>SUBSTRUCTURE
     1 RES1 1

@<TRIPOS>CRYSIN
  22.5171   13.1220   21.6558  90.0000 118.3660  90.0000  15 1

