# MOL2 file generated by ConQuest
# Please check atom types

@<TRIPOS>MOLECULE
MEZHUU
    36    36     2
SMALL
NO_CHARGES
****
Generated from CSD

@<TRIPOS>ATOM
      1 C1         2.3737   -2.0483    4.8746 C.ar      1 RES1    0.0000
      2 C2         1.9789   -1.9537    3.5365 C.ar      1 RES1    0.0000
      3 C3         1.6508   -0.7227    3.0033 C.ar      1 RES1    0.0000
      4 C4         1.7338    0.3944    3.8212 C.ar      1 RES1    0.0000
      5 C5         2.1442    0.3205    5.1460 C.ar      1 RES1    0.0000
      6 C6         2.4733   -0.9104    5.6774 C.ar      1 RES1    0.0000
      7 N1         2.7520   -3.3293    5.3196 N.pl3     1 RES1    0.0000
      8 H1         2.8537   -3.9866    4.7534 H         1 RES1    0.0000
      9 N2         2.4173   -3.8309    6.5454 N.pl3     1 RES1    0.0000
     10 O1        -1.8013    4.4347   -0.8138 O.2       2 RES2    0.0000
     11 O2         2.5824   -5.0417    6.6783 O.2       1 RES1    0.0000
     12 N3         1.3508    1.6929    3.2814 N.pl3     1 RES1    0.0000
     13 O3         0.7187    1.7100    2.2131 O.2       1 RES1    0.0000
     14 O4         1.6395    2.7055    3.9021 O.2       1 RES1    0.0000
     15 C7        -0.7033    5.2983    1.6281 C.ar      2 RES2    0.0000
     16 C8        -0.3866    5.3261    2.9918 C.ar      2 RES2    0.0000
     17 C9        -0.3551    6.5286    3.6675 C.ar      2 RES2    0.0000
     18 C10       -0.6751    7.6819    2.9762 C.ar      2 RES2    0.0000
     19 C11       -0.9917    7.6764    1.6251 C.ar      2 RES2    0.0000
     20 C12       -0.9904    6.4787    0.9367 C.ar      2 RES2    0.0000
     21 N4        -0.6253    4.0274    1.0426 N.pl3     2 RES2    0.0000
     22 H2        -0.3080    3.3365    1.5139 H         2 RES2    0.0000
     23 N5        -1.2173    3.6234   -0.1109 N.pl3     2 RES2    0.0000
     24 O5         2.0255   -3.0710    7.4164 O.2       1 RES1    0.0000
     25 O6        -1.0884    2.4240   -0.3618 O.2       2 RES2    0.0000
     26 N6        -0.6365    8.9512    3.6931 N.pl3     2 RES2    0.0000
     27 O7        -0.0218    9.0090    4.7494 O.2       2 RES2    0.0000
     28 O8        -1.2202    9.9192    3.1923 O.2       2 RES2    0.0000
     29 H3         1.9099   -2.7238    2.9992 H         1 RES1    0.0000
     30 H4         1.3714   -0.6322    2.1072 H         1 RES1    0.0000
     31 H5         2.2219    1.1047    5.6767 H         1 RES1    0.0000
     32 H6         2.7772   -1.0101    6.5660 H         1 RES1    0.0000
     33 H7        -0.2222    4.5271    3.4840 H         2 RES2    0.0000
     34 H8        -0.1466    6.5648    4.6258 H         2 RES2    0.0000
     35 H9        -1.1594    8.4930    1.1636 H         2 RES2    0.0000
     36 H10       -1.1532    6.4547    0.0136 H         2 RES2    0.0000
@<TRIPOS>BOND
     1    1    2 ar
     2    2    3 ar
     3    3    4 ar
     4    4    5 ar
     5    5    6 ar
     6    6    1 ar
     7    7    1 1
     8    8    7 1
     9    9    7 1
    10   10   23 2
    11   11    9 2
    12   12    4 1
    13   13   12 2
    14   14   12 2
    15   15   16 ar
    16   16   17 ar
    17   17   18 ar
    18   18   19 ar
    19   19   20 ar
    20   20   15 ar
    21   21   15 1
    22   22   21 1
    23   23   21 1
    24   24    9 2
    25   25   23 2
    26   26   18 1
    27   27   26 2
    28   28   26 2
    29   29    2 1
    30   30    3 1
    31   31    5 1
    32   32    6 1
    33   33   16 1
    34   34   17 1
    35   35   19 1
    36   36   20 1
@<TRIPOS>SUBSTRUCTURE
     1 RES1 1
     2 RES2 10

@<TRIPOS>CRYSIN
   6.9470    7.7730   13.8360  84.2500  79.7700  81.2700   2 1

