# MOL2 file generated by ConQuest
# Please check atom types

@<TRIPOS>MOLECULE
MEZSUH
    90    96     2
SMALL
NO_CHARGES
****
Generated from CSD

@<TRIPOS>ATOM
      1 O1        -1.1651    3.2221    2.5545 O.3       1 RES1    0.0000
      2 O2        -0.4746    9.8399    1.9163 O.2       1 RES1    0.0000
      3 O3         0.5892   10.2022    7.9661 O.3       1 RES1    0.0000
      4 O4         2.4011   10.5285    6.6674 O.3       1 RES1    0.0000
      5 O5         2.7975    6.1293   -0.2832 O.2       1 RES1    0.0000
      6 O6         2.5345    4.1242    0.4946 O.2       1 RES1    0.0000
      7 N1        -1.6760    4.4409    3.1176 N.2       1 RES1    0.0000
      8 N2         0.4709    2.3856    1.2518 N.pl3     1 RES1    0.0000
      9 H1         0.1102    1.5958    1.4332 H         1 RES1    0.0000
     10 H2         1.2834    2.4598    0.8032 H         1 RES1    0.0000
     11 N3        -2.6627    7.5116    4.6889 N.1       1 RES1    0.0000
     12 N4         0.6402    9.4470    3.8557 N.am      1 RES1    0.0000
     13 N5         2.2176    5.3110    0.4139 N.pl3     1 RES1    0.0000
     14 C1        -0.8397    5.3496    2.6643 C.2       1 RES1    0.0000
     15 C2        -0.8851    6.7462    2.9891 C.2       1 RES1    0.0000
     16 C3         0.0482    7.5909    2.4123 C.2       1 RES1    0.0000
     17 C4         1.0195    7.0898    1.5145 C.2       1 RES1    0.0000
     18 H3         1.6255    7.6865    1.0915 H         1 RES1    0.0000
     19 C5         1.0888    5.7562    1.2531 C.2       1 RES1    0.0000
     20 C6         0.1946    4.8404    1.8209 C.2       1 RES1    0.0000
     21 C7        -0.0731    3.4428    1.8053 C.2       1 RES1    0.0000
     22 C8        -1.8742    7.1996    3.9210 C.1       1 RES1    0.0000
     23 C9         0.0481    9.0668    2.7211 C.2       1 RES1    0.0000
     24 C10        1.4466    8.5637    4.7231 C.3       1 RES1    0.0000
     25 H4         2.3998    8.8239    4.6656 H         1 RES1    0.0000
     26 H5         1.3645    7.6275    4.4113 H         1 RES1    0.0000
     27 C11        0.9803    8.6623    6.1618 C.3       1 RES1    0.0000
     28 H6         1.5554    8.0992    6.7384 H         1 RES1    0.0000
     29 H7         0.0510    8.3289    6.2348 H         1 RES1    0.0000
     30 C12        1.0439   10.1087    6.6304 C.3       1 RES1    0.0000
     31 C13        0.2246   11.0032    5.7108 C.3       1 RES1    0.0000
     32 H8         0.3305   11.9475    5.9903 H         1 RES1    0.0000
     33 H9        -0.7332   10.7663    5.7895 H         1 RES1    0.0000
     34 C14        0.6643   10.8527    4.2586 C.3       1 RES1    0.0000
     35 H10        0.0588   11.3742    3.6745 H         1 RES1    0.0000
     36 H11        1.5799   11.2116    4.1522 H         1 RES1    0.0000
     37 C15        1.2861   11.3305    8.5472 C.3       1 RES1    0.0000
     38 H12        0.7407   12.1579    8.4129 H         1 RES1    0.0000
     39 C16        2.5484   11.4382    7.7506 C.3       1 RES1    0.0000
     40 H13        2.6717   12.3612    7.4170 H         1 RES1    0.0000
     41 H14        3.3310   11.1943    8.3061 H         1 RES1    0.0000
     42 C17        1.4661   11.0936   10.0097 C.3       1 RES1    0.0000
     43 H15        2.0095   10.2896   10.1473 H         1 RES1    0.0000
     44 H16        0.5904   10.9707   10.4324 H         1 RES1    0.0000
     45 H17        1.9174   11.8651   10.4129 H         1 RES1    0.0000
     46 O7         4.2475    7.6149    2.5121 O.3       2 RES2    0.0000
     47 O8         4.9059    0.9836    1.8740 O.2       2 RES2    0.0000
     48 O9         5.9556    0.8172    7.9201 O.3       2 RES2    0.0000
     49 O10        7.8055    0.3995    6.6499 O.3       2 RES2    0.0000
     50 O11        8.2603    4.7387   -0.2792 O.2       2 RES2    0.0000
     51 O12        7.9789    6.7293    0.5087 O.2       2 RES2    0.0000
     52 N6         3.7322    6.3885    3.0534 N.2       2 RES2    0.0000
     53 N7         5.9152    8.4661    1.2530 N.pl3     2 RES2    0.0000
     54 H18        5.5848    9.2193    1.5385 H         2 RES2    0.0000
     55 H19        6.5507    8.4061    0.7968 H         2 RES2    0.0000
     56 N8         2.6511    3.2882    4.4938 N.1       2 RES2    0.0000
     57 N9         6.0656    1.4169    3.7937 N.am      2 RES2    0.0000
     58 N10        7.6590    5.5407    0.4183 N.pl3     2 RES2    0.0000
     59 C18        4.5819    5.4879    2.5974 C.2       2 RES2    0.0000
     60 C19        4.5151    4.0852    2.8895 C.2       2 RES2    0.0000
     61 C20        5.4596    3.2476    2.3435 C.2       2 RES2    0.0000
     62 C21        6.4572    3.7436    1.4803 C.2       2 RES2    0.0000
     63 H20        7.0710    3.1439    1.0721 H         2 RES2    0.0000
     64 C22        6.5450    5.0874    1.2262 C.2       2 RES2    0.0000
     65 C23        5.6217    6.0246    1.7819 C.2       2 RES2    0.0000
     66 C24        5.3487    7.3917    1.7819 C.2       2 RES2    0.0000
     67 C25        3.4840    3.6155    3.7772 C.1       2 RES2    0.0000
     68 C26        5.4626    1.7625    2.6567 C.2       2 RES2    0.0000
     69 C27        6.9196    2.3023    4.6019 C.3       2 RES2    0.0000
     70 H21        6.8661    3.2273    4.2559 H         2 RES2    0.0000
     71 H22        7.8620    2.0024    4.5441 H         2 RES2    0.0000
     72 C28        6.4557    2.2667    6.0476 C.3       2 RES2    0.0000
     73 H23        7.0553    2.8288    6.5976 H         2 RES2    0.0000
     74 H24        5.5420    2.6448    6.1069 H         2 RES2    0.0000
     75 C29        6.4494    0.8640    6.5916 C.3       2 RES2    0.0000
     76 C30        5.6164   -0.0529    5.7104 C.3       2 RES2    0.0000
     77 H25        4.6633    0.2053    5.7797 H         2 RES2    0.0000
     78 H26        5.7040   -0.9839    6.0340 H         2 RES2    0.0000
     79 C31        6.0501    0.0163    4.2528 C.3       2 RES2    0.0000
     80 H27        6.9536   -0.3751    4.1555 H         2 RES2    0.0000
     81 H28        5.4249   -0.5092    3.6939 H         2 RES2    0.0000
     82 C32        7.0354    0.4605    8.8021 C.3       2 RES2    0.0000
     83 H29        7.5059    1.2858    9.1141 H         2 RES2    0.0000
     84 C33        7.9302   -0.3222    7.8754 C.3       2 RES2    0.0000
     85 H30        8.8664   -0.3253    8.1976 H         2 RES2    0.0000
     86 H31        7.6181   -1.2563    7.7765 H         2 RES2    0.0000
     87 C34        6.4699   -0.2765    9.9718 C.3       2 RES2    0.0000
     88 H32        5.9072   -1.0134    9.6534 H         2 RES2    0.0000
     89 H33        5.9308    0.3354   10.5150 H         2 RES2    0.0000
     90 H34        7.2019   -0.6373   10.5150 H         2 RES2    0.0000
@<TRIPOS>BOND
     1    1    7 1
     2    2   23 2
     3    3   30 1
     4    4   30 1
     5    5   13 2
     6    6   13 2
     7    7   14 2
     8    8    9 1
     9   10    8 1
    10   11   22 3
    11   12   23 1
    12   13   19 1
    13   14   15 1
    14   15   16 2
    15   16   17 1
    16   17   18 1
    17   19   17 2
    18   20   14 1
    19   21    1 1
    20   22   15 1
    21   23   16 1
    22   24   12 1
    23   25   24 1
    24   26   24 1
    25   27   24 1
    26   28   27 1
    27   29   27 1
    28   30   27 1
    29   31   30 1
    30   32   31 1
    31   33   31 1
    32   34   12 1
    33   35   34 1
    34   36   34 1
    35   37    3 1
    36   38   37 1
    37   39    4 1
    38   40   39 1
    39   41   39 1
    40   42   37 1
    41   43   42 1
    42   44   42 1
    43   45   42 1
    44   46   52 1
    45   47   68 2
    46   48   75 1
    47   49   75 1
    48   50   58 2
    49   51   58 2
    50   52   59 2
    51   53   54 1
    52   55   53 1
    53   56   67 3
    54   57   68 1
    55   58   64 1
    56   59   60 1
    57   60   61 2
    58   61   62 1
    59   62   63 1
    60   64   62 2
    61   65   59 1
    62   66   46 1
    63   67   60 1
    64   68   61 1
    65   69   57 1
    66   70   69 1
    67   71   69 1
    68   72   69 1
    69   73   72 1
    70   74   72 1
    71   75   72 1
    72   76   75 1
    73   77   76 1
    74   78   76 1
    75   79   57 1
    76   80   79 1
    77   81   79 1
    78   82   48 1
    79   83   82 1
    80   84   49 1
    81   85   84 1
    82   86   84 1
    83   87   82 1
    84   88   87 1
    85   89   87 1
    86   90   87 1
    87    8   21 1
    88   19   20 1
    89   20   21 2
    90   31   34 1
    91   37   39 1
    92   53   66 1
    93   64   65 1
    94   65   66 2
    95   76   79 1
    96   82   84 1
@<TRIPOS>SUBSTRUCTURE
     1 RES1 1
     2 RES2 46

@<TRIPOS>CRYSIN
  10.7900   10.1646   16.7717  90.0000 105.0780  90.0000   4 1

