# MOL2 file generated by ConQuest
# Please check atom types

@<TRIPOS>MOLECULE
MEZTAO
    88    94     2
SMALL
NO_CHARGES
****
Generated from CSD

@<TRIPOS>ATOM
      1 O1         9.2694    4.2495   15.9085 O.3       1 RES1    0.0000
      2 O2         2.6384    4.5560   16.7514 O.2       1 RES1    0.0000
      3 O3         1.8170   -0.3299   19.1451 O.3       1 RES1    0.0000
      4 O4         1.3913    1.0495   20.9254 O.3       1 RES1    0.0000
      5 O5         5.9591    7.5390   19.1727 O.2       1 RES1    0.0000
      6 O6         7.9310    7.5778   18.3044 O.2       1 RES1    0.0000
      7 N1         8.1583    3.4009   15.6435 N.2       1 RES1    0.0000
      8 N2         9.8999    6.0798   17.0748 N.pl3     1 RES1    0.0000
      9 H1        10.7388    5.9128   16.8333 H         1 RES1    0.0000
     10 H2         9.6387    6.7679   17.5523 H         1 RES1    0.0000
     11 N3         3.1501    2.4539   17.4112 N.am      1 RES1    0.0000
     12 N4         6.8199    7.0663   18.4655 N.pl3     1 RES1    0.0000
     13 C1         7.1773    3.9510   16.3235 C.2       1 RES1    0.0000
     14 C2         5.8441    3.4420   16.3983 C.2       1 RES1    0.0000
     15 H3         5.6043    2.6402   15.9480 H         1 RES1    0.0000
     16 C3         4.9217    4.1317   17.1321 C.2       1 RES1    0.0000
     17 C4         5.2590    5.3530   17.7932 C.2       1 RES1    0.0000
     18 H4         4.5908    5.8410   18.2589 H         1 RES1    0.0000
     19 C5         6.5405    5.8184   17.7562 C.2       1 RES1    0.0000
     20 C6         7.5518    5.1425   17.0274 C.2       1 RES1    0.0000
     21 C7         8.9222    5.2602   16.7238 C.2       1 RES1    0.0000
     22 C8         3.4667    3.7324   17.1122 C.2       1 RES1    0.0000
     23 C9         1.7454    2.0191   17.3192 C.3       1 RES1    0.0000
     24 H5         1.7007    1.1317   16.8811 H         1 RES1    0.0000
     25 H6         1.2359    2.6612   16.7647 H         1 RES1    0.0000
     26 C10        1.1217    1.9344   18.7022 C.3       1 RES1    0.0000
     27 H7         0.1972    1.5875   18.6268 H         1 RES1    0.0000
     28 H8         1.0769    2.8402   19.1006 H         1 RES1    0.0000
     29 C11        1.9330    1.0228   19.6070 C.3       1 RES1    0.0000
     30 C12        3.4065    1.4246   19.6137 C.3       1 RES1    0.0000
     31 H9         3.5051    2.2949   20.0753 H         1 RES1    0.0000
     32 H10        3.9262    0.7502   20.1189 H         1 RES1    0.0000
     33 C13        3.9687    1.5375   18.2039 C.3       1 RES1    0.0000
     34 H11        4.9003    1.8706   18.2423 H         1 RES1    0.0000
     35 H12        3.9780    0.6445   17.7768 H         1 RES1    0.0000
     36 C14        1.2557   -1.1180   20.2047 C.3       1 RES1    0.0000
     37 H13        0.2710   -1.2205   20.0607 H         1 RES1    0.0000
     38 C15        1.4992   -0.2799   21.4140 C.3       1 RES1    0.0000
     39 H14        0.8208   -0.4582   22.1119 H         1 RES1    0.0000
     40 H15        2.3993   -0.4493   21.7877 H         1 RES1    0.0000
     41 C16        1.9036   -2.4627   20.1995 C.3       1 RES1    0.0000
     42 H16        1.7872   -2.8782   19.3188 H         1 RES1    0.0000
     43 H17        1.4884   -3.0282   20.8837 H         1 RES1    0.0000
     44 H18        2.8598   -2.3659   20.3911 H         1 RES1    0.0000
     45 O7         4.7401    7.4301   15.3187 O.3       2 RES2    0.0000
     46 O8        11.3696    7.1502   14.4933 O.2       2 RES2    0.0000
     47 O9        12.1212   12.0951   12.0890 O.3       2 RES2    0.0000
     48 O10       12.5937   10.7536   10.3055 O.3       2 RES2    0.0000
     49 O11        8.0514    4.1729   12.0075 O.2       2 RES2    0.0000
     50 O12        6.0331    4.2172   12.7445 O.2       2 RES2    0.0000
     51 N5         5.8512    8.2771   15.5793 N.2       2 RES2    0.0000
     52 N6         4.1168    5.5748   14.1925 N.pl3     2 RES2    0.0000
     53 H19        3.2899    5.7354   14.4392 H         2 RES2    0.0000
     54 H20        4.2661    4.9448   13.5602 H         2 RES2    0.0000
     55 N7        10.8484    9.2403   13.7844 N.am      2 RES2    0.0000
     56 N8         7.1686    4.6706   12.6653 N.pl3     2 RES2    0.0000
     57 C17        6.8300    7.7286   14.8767 C.2       2 RES2    0.0000
     58 C18        8.1582    8.2408   14.8098 C.2       2 RES2    0.0000
     59 H21        8.3894    9.0435   15.2622 H         2 RES2    0.0000
     60 C19        9.0892    7.5649   14.0880 C.2       2 RES2    0.0000
     61 C20        8.7475    6.3589   13.3947 C.2       2 RES2    0.0000
     62 H22        9.4130    5.8854   12.9097 H         2 RES2    0.0000
     63 C21        7.4631    5.8902   13.4321 C.2       2 RES2    0.0000
     64 C22        6.4487    6.5525   14.1705 C.2       2 RES2    0.0000
     65 C23        5.0878    6.4202   14.4941 C.2       2 RES2    0.0000
     66 C24       10.5403    7.9730   14.1090 C.2       2 RES2    0.0000
     67 C25       12.2286    9.7170   13.9166 C.3       2 RES2    0.0000
     68 H23       12.7499    9.0717   14.4559 H         2 RES2    0.0000
     69 H24       12.2333   10.5866   14.3893 H         2 RES2    0.0000
     70 C26       12.8822    9.8800   12.5481 C.3       2 RES2    0.0000
     71 H25       13.7783   10.2857   12.6603 H         2 RES2    0.0000
     72 H26       13.0006    8.9886   12.1345 H         2 RES2    0.0000
     73 C27       12.0487   10.7528   11.6293 C.3       2 RES2    0.0000
     74 C28       10.6009   10.2688   11.5747 C.3       2 RES2    0.0000
     75 H27       10.5651    9.3895   11.1204 H         2 RES2    0.0000
     76 H28       10.0602   10.9077   11.0456 H         2 RES2    0.0000
     77 C29       10.0050   10.1389   12.9758 C.3       2 RES2    0.0000
     78 H29        9.9570   11.0303   13.4043 H         2 RES2    0.0000
     79 H30        9.0861    9.7735   12.9180 H         2 RES2    0.0000
     80 C30       12.0478   12.9227   10.8976 C.3       2 RES2    0.0000
     81 H31       11.1006   12.9921   10.5842 H         2 RES2    0.0000
     82 C31       12.8547   12.1128    9.9233 C.3       2 RES2    0.0000
     83 H32       12.5619   12.2822    8.9923 H         2 RES2    0.0000
     84 H33       13.8189   12.3242   10.0002 H         2 RES2    0.0000
     85 C32       12.6029   14.2827   11.1542 C.3       2 RES2    0.0000
     86 H34       12.1385   14.6869   11.9163 H         2 RES2    0.0000
     87 H35       12.4750   14.8434   10.3597 H         2 RES2    0.0000
     88 H36       13.5600   14.2133   11.3531 H         2 RES2    0.0000
@<TRIPOS>BOND
     1    1    7 1
     2    2   22 2
     3    3   29 1
     4    4   29 1
     5    5   12 2
     6    6   12 2
     7    7   13 2
     8    8    9 1
     9   10    8 1
    10   11   22 1
    11   12   19 1
    12   13   14 1
    13   14   15 1
    14   16   14 2
    15   17   16 1
    16   18   17 1
    17   19   17 2
    18   20   13 1
    19   21    1 1
    20   22   16 1
    21   23   11 1
    22   24   23 1
    23   25   23 1
    24   26   23 1
    25   27   26 1
    26   28   26 1
    27   29   26 1
    28   30   29 1
    29   31   30 1
    30   32   30 1
    31   33   11 1
    32   34   33 1
    33   35   33 1
    34   36    3 1
    35   37   36 1
    36   38    4 1
    37   39   38 1
    38   40   38 1
    39   41   36 1
    40   42   41 1
    41   43   41 1
    42   44   41 1
    43   45   51 1
    44   46   66 2
    45   47   73 1
    46   48   73 1
    47   49   56 2
    48   50   56 2
    49   51   57 2
    50   52   53 1
    51   54   52 1
    52   55   66 1
    53   56   63 1
    54   57   58 1
    55   58   59 1
    56   60   58 2
    57   61   60 1
    58   62   61 1
    59   63   61 2
    60   64   57 1
    61   65   45 1
    62   66   60 1
    63   67   55 1
    64   68   67 1
    65   69   67 1
    66   70   67 1
    67   71   70 1
    68   72   70 1
    69   73   70 1
    70   74   73 1
    71   75   74 1
    72   76   74 1
    73   77   55 1
    74   78   77 1
    75   79   77 1
    76   80   47 1
    77   81   80 1
    78   82   48 1
    79   83   82 1
    80   84   82 1
    81   85   80 1
    82   86   85 1
    83   87   85 1
    84   88   85 1
    85    8   21 1
    86   19   20 1
    87   20   21 2
    88   30   33 1
    89   36   38 1
    90   52   65 1
    91   63   64 1
    92   64   65 2
    93   74   77 1
    94   80   82 1
@<TRIPOS>SUBSTRUCTURE
     1 RES1 1
     2 RES2 45

@<TRIPOS>CRYSIN
   9.6690    8.0666   20.7830  90.0000  90.6040  90.0000   4 1

