# MOL2 file generated by ConQuest
# Please check atom types

@<TRIPOS>MOLECULE
MFCBXB
    15    15     1
SMALL
NO_CHARGES
****
Generated from CSD

@<TRIPOS>ATOM
      1 C1         3.6189    4.9375   -1.4099 C.2       1 RES1    0.0000
      2 C2         2.4557    4.7651   -2.2120 C.2       1 RES1    0.0000
      3 C3         4.2153    6.2035   -0.9077 C.3       1 RES1    0.0000
      4 C4         1.5704    5.7954   -2.8103 C.2       1 RES1    0.0000
      5 H1         0.1353    5.8773   -3.8796 H         1 RES1    0.0000
      6 H2         0.4619    4.6415   -3.7049 H         1 RES1    0.0000
      7 H3         4.7317    6.1073   -0.4222 H         1 RES1    0.0000
      8 H4         4.5230    6.7683   -1.7396 H         1 RES1    0.0000
      9 H5         3.4440    6.7539   -0.1747 H         1 RES1    0.0000
     10 N1         4.1398    3.7793   -1.1129 N.2       1 RES1    0.0000
     11 N2         2.2899    3.4617   -2.3743 N.pl3     1 RES1    0.0000
     12 N3         0.5669    5.3686   -3.5629 N.am      1 RES1    0.0000
     13 O1         3.3528    2.7978   -1.6894 O.3       1 RES1    0.0000
     14 O2         1.4752    2.7547   -2.9697 O.2       1 RES1    0.0000
     15 O3         1.8210    6.9709   -2.5687 O.2       1 RES1    0.0000
@<TRIPOS>BOND
     1    1    2 1
     2    2    4 1
     3    3    1 1
     4    4   12 1
     5    5   12 1
     6    6   12 1
     7    7    3 1
     8    8    3 1
     9    9    3 1
    10   10    1 2
    11   11    2 2
    12   13   10 1
    13   14   11 1
    14   15    4 2
    15   11   13 1
@<TRIPOS>SUBSTRUCTURE
     1 RES1 1

@<TRIPOS>CRYSIN
  11.8200   14.3700    7.3100  90.0000  95.3000  90.0000  15 1

