# MOL2 file generated by ConQuest
# Please check atom types

@<TRIPOS>MOLECULE
MFZCMA
    20    20     1
SMALL
NO_CHARGES
****
Generated from CSD

@<TRIPOS>ATOM
      1 C1         0.8441   -4.3247    3.2810 C.2       1 RES1    0.0000
      2 C2         1.6792   -5.3579    2.7773 C.2       1 RES1    0.0000
      3 C3         1.2262   -3.0166    3.8697 C.3       1 RES1    0.0000
      4 C4         3.1655   -5.2848    2.6065 C.2       1 RES1    0.0000
      5 C5         5.3703   -6.2012    2.8222 C.3       1 RES1    0.0000
      6 C6         3.4427   -7.4854    3.7293 C.3       1 RES1    0.0000
      7 H1         2.0900   -3.0875    4.5072 H         1 RES1    0.0000
      8 H2         0.4126   -2.5966    4.4110 H         1 RES1    0.0000
      9 H3         1.5159   -2.3347    3.1759 H         1 RES1    0.0000
     10 H4         5.6152   -5.2368    2.4541 H         1 RES1    0.0000
     11 H5         5.8126   -6.0223    3.6411 H         1 RES1    0.0000
     12 H6         5.7767   -7.0042    2.3980 H         1 RES1    0.0000
     13 H7         3.5521   -8.3243    3.1519 H         1 RES1    0.0000
     14 H8         4.1441   -7.5715    4.6195 H         1 RES1    0.0000
     15 H9         2.4219   -7.3533    3.9539 H         1 RES1    0.0000
     16 N1        -0.4001   -4.6989    3.1503 N.2       1 RES1    0.0000
     17 N2         0.9526   -6.3398    2.3306 N.2       1 RES1    0.0000
     18 N3         3.9244   -6.2929    3.0356 N.am      1 RES1    0.0000
     19 O1        -0.3534   -5.9449    2.5496 O.3       1 RES1    0.0000
     20 O2         3.5907   -4.2713    2.0652 O.2       1 RES1    0.0000
@<TRIPOS>BOND
     1    1    2 1
     2    2    4 1
     3    3    1 1
     4    4   18 1
     5    5   10 1
     6    6   13 1
     7    7    3 1
     8    8    3 1
     9    9    3 1
    10   11    5 1
    11   12    5 1
    12   14    6 1
    13   15    6 1
    14   16    1 2
    15   17    2 2
    16   18    5 1
    17   19   16 1
    18   20    4 2
    19    6   18 1
    20   17   19 1
@<TRIPOS>SUBSTRUCTURE
     1 RES1 1

@<TRIPOS>CRYSIN
   8.9700   10.9100    8.0200  90.0000  90.0000  90.0000  19 1

