# MOL2 file generated by ConQuest
# Please check atom types

@<TRIPOS>MOLECULE
MHPIPO01
    30    30     1
SMALL
USER_CHARGES
****
Generated from CSD

@<TRIPOS>ATOM
      1 C1         1.3928   -0.0000   -0.3826 C.3       1 RES1    0.0000
      2 C2         1.8265    1.2236   -1.1585 C.3       1 RES1    0.0000
      3 C3         3.3398    1.3314   -1.3227 C.3       1 RES1    0.0000
      4 C4         4.0048    1.7794   -0.0081 C.3       1 RES1    0.0000
      5 C5         3.6588    2.3198   -2.4513 C.3       1 RES1    0.0000
      6 H1         1.8558    0.0000    0.4576 H         1 RES1    0.0000
      7 H2        -0.3872   -0.0000   -0.9157 H         1 RES1    0.0000
      8 H3         1.4945    1.1256   -2.0083 H         1 RES1    0.0000
      9 H4         1.5301    2.0930   -0.7105 H         1 RES1    0.0000
     10 H5         3.7077    2.7216    0.1784 H         1 RES1    0.0000
     11 H6         4.8393    1.8340   -0.1115 H         1 RES1    0.0000
     12 H7         3.8559    1.2572    0.7353 H         1 RES1    0.0000
     13 H8         3.2990    2.0510   -3.2920 H         1 RES1    0.0000
     14 H9         4.5772    2.3800   -2.5374 H         1 RES1    0.0000
     15 H10        3.2368    3.2956   -2.2921 H         1 RES1    0.0000
     16 N1         3.9064   -0.0000   -1.7109 N.3       1 RES1    1.0000
     17 O1        -0.0021   -0.0000   -0.1079 O.3       1 RES1    0.0000
     18 O2         5.1296   -0.0000   -2.1234 O.2       1 RES1   -1.0000
     19 C2B        1.8265   -1.2236   -1.1585 C.3       1 RES1    0.0000
     20 C3B        3.3398   -1.3314   -1.3227 C.3       1 RES1    0.0000
     21 H3B        1.4945   -1.1256   -2.0083 H         1 RES1    0.0000
     22 H4B        1.5301   -2.0930   -0.7105 H         1 RES1    0.0000
     23 C4B        4.0048   -1.7794   -0.0081 C.3       1 RES1    0.0000
     24 C5B        3.6588   -2.3198   -2.4513 C.3       1 RES1    0.0000
     25 H5B        3.7077   -2.7216    0.1784 H         1 RES1    0.0000
     26 H6B        4.8393   -1.8340   -0.1115 H         1 RES1    0.0000
     27 H7B        3.8559   -1.2572    0.7353 H         1 RES1    0.0000
     28 H8B        3.2990   -2.0510   -3.2920 H         1 RES1    0.0000
     29 H9B        4.5772   -2.3800   -2.5374 H         1 RES1    0.0000
     30 H10B       3.2368   -3.2956   -2.2921 H         1 RES1    0.0000
@<TRIPOS>BOND
     1    1    2 1
     2    2    3 1
     3    3    4 1
     4    4   10 1
     5    5    3 1
     6    6    1 1
     7    7   17 1
     8    8    2 1
     9    9    2 1
    10   11    4 1
    11   12    4 1
    12   13    5 1
    13   14    5 1
    14   15    5 1
    15   16    3 1
    16   17    1 1
    17   18   16 1
    18   19    1 1
    19   20   16 1
    20   21   19 1
    21   22   19 1
    22   23   20 1
    23   24   20 1
    24   25   23 1
    25   26   23 1
    26   27   23 1
    27   28   24 1
    28   29   24 1
    29   30   24 1
    30   19   20 1
@<TRIPOS>SUBSTRUCTURE
     1 RES1 1

@<TRIPOS>CRYSIN
   7.1000   14.0000    5.8400  90.0000 119.8000  90.0000   8 1

