# MOL2 file generated by ConQuest
# Please check atom types

@<TRIPOS>MOLECULE
MHPNBZ10
    62    63     1
SMALL
NO_CHARGES
****
Generated from CSD

@<TRIPOS>ATOM
      1 C1         3.7260   11.4268    7.7586 C.ar      1 RES1    0.0000
      2 C2         3.8710   11.0107    9.0626 C.ar      1 RES1    0.0000
      3 C3         3.9950   11.9702   10.0610 C.ar      1 RES1    0.0000
      4 C4         4.0002   13.3185    9.7923 C.ar      1 RES1    0.0000
      5 C5         3.8764   13.6906    8.4809 C.ar      1 RES1    0.0000
      6 C6         3.7322   12.7821    7.4449 C.ar      1 RES1    0.0000
      7 C7         3.4753   10.4557    6.6320 C.2       1 RES1    0.0000
      8 C8         3.1732    8.0828    6.2020 C.3       1 RES1    0.0000
      9 C9         2.0726    7.3847    6.9766 C.3       1 RES1    0.0000
     10 C10        0.7783    8.2213    7.0333 C.3       1 RES1    0.0000
     11 C11       -0.0801    8.0359    5.8000 C.ar      1 RES1    0.0000
     12 C12       -0.5204    6.7767    5.3685 C.ar      1 RES1    0.0000
     13 C13       -1.3863    6.6622    4.2898 C.ar      1 RES1    0.0000
     14 C14       -1.8264    7.7675    3.6183 C.ar      1 RES1    0.0000
     15 C15       -1.3813    9.0137    3.9960 C.ar      1 RES1    0.0000
     16 C16       -0.5100    9.1343    5.0732 C.ar      1 RES1    0.0000
     17 C17        4.4270    7.2520    5.8832 C.3       1 RES1    0.0000
     18 C18        5.0457    6.6839    7.1482 C.3       1 RES1    0.0000
     19 C19        4.0321    6.1046    4.9576 C.3       1 RES1    0.0000
     20 C20        5.4308    8.1338    5.1498 C.3       1 RES1    0.0000
     21 C21       -0.0188    8.0588    8.3690 C.3       1 RES1    0.0000
     22 C22       -1.3216    8.8534    8.2666 C.3       1 RES1    0.0000
     23 C23       -0.3508    6.6051    8.6930 C.3       1 RES1    0.0000
     24 C24        0.8063    8.6931    9.5044 C.3       1 RES1    0.0000
     25 N1         3.8624   15.1249    8.1606 N.pl3     1 RES1    0.0000
     26 N2         4.1038   11.5335   11.4600 N.pl3     1 RES1    0.0000
     27 O1         4.1498   10.3393   11.6979 O.2       1 RES1    0.0000
     28 O2         4.1303   12.3839   12.3252 O.2       1 RES1    0.0000
     29 O3         4.1734   15.9079    9.0346 O.2       1 RES1    0.0000
     30 O4         3.5533   15.4621    7.0532 O.2       1 RES1    0.0000
     31 O5         3.5821    9.2029    7.0745 O.3       1 RES1    0.0000
     32 O6         3.1854   10.7954    5.5327 O.2       1 RES1    0.0000
     33 H1         3.8741   10.1098    9.2997 H         1 RES1    0.0000
     34 H2         4.1231   13.9343   10.4263 H         1 RES1    0.0000
     35 H3         3.6235   13.1141    6.5680 H         1 RES1    0.0000
     36 H4         2.7819    8.4916    5.3972 H         1 RES1    0.0000
     37 H5         2.3891    7.1620    7.8860 H         1 RES1    0.0000
     38 H6         1.8308    6.5009    6.6121 H         1 RES1    0.0000
     39 H7         1.0463    9.2072    7.0686 H         1 RES1    0.0000
     40 H8        -0.1672    6.0226    5.8390 H         1 RES1    0.0000
     41 H9        -1.7069    5.7124    4.0497 H         1 RES1    0.0000
     42 H10       -2.4297    7.7130    2.8495 H         1 RES1    0.0000
     43 H11       -1.5775    9.7855    3.4533 H         1 RES1    0.0000
     44 H12       -0.1513   10.0436    5.2794 H         1 RES1    0.0000
     45 H13        4.3853    6.0749    7.7019 H         1 RES1    0.0000
     46 H14        5.4553    7.3877    7.6062 H         1 RES1    0.0000
     47 H15        5.8238    6.2893    6.9656 H         1 RES1    0.0000
     48 H16        3.5387    6.4417    4.1676 H         1 RES1    0.0000
     49 H17        3.4947    5.4992    5.4119 H         1 RES1    0.0000
     50 H18        4.8346    5.6397    4.6977 H         1 RES1    0.0000
     51 H19        5.8163    8.8649    5.7065 H         1 RES1    0.0000
     52 H20        5.0265    8.5351    4.2486 H         1 RES1    0.0000
     53 H21        6.1872    7.6193    4.9260 H         1 RES1    0.0000
     54 H22       -1.9650    8.4812    7.6503 H         1 RES1    0.0000
     55 H23       -1.1291    9.7989    7.8786 H         1 RES1    0.0000
     56 H24       -1.7983    8.7752    9.0199 H         1 RES1    0.0000
     57 H25        0.4769    6.0487    8.7180 H         1 RES1    0.0000
     58 H26       -0.9658    6.1994    8.1069 H         1 RES1    0.0000
     59 H27       -0.7763    6.5618    9.5869 H         1 RES1    0.0000
     60 H28        1.0575    9.6891    9.2629 H         1 RES1    0.0000
     61 H29        1.5900    8.1341    9.6752 H         1 RES1    0.0000
     62 H30        0.2624    8.4878   10.3158 H         1 RES1    0.0000
@<TRIPOS>BOND
     1    1    2 ar
     2    2    3 ar
     3    3    4 ar
     4    4    5 ar
     5    5    6 ar
     6    6    1 ar
     7    7    1 1
     8    8    9 1
     9    9   10 1
    10   10   11 1
    11   11   12 ar
    12   12   13 ar
    13   13   14 ar
    14   14   15 ar
    15   15   16 ar
    16   16   11 ar
    17   17    8 1
    18   18   17 1
    19   19   17 1
    20   20   17 1
    21   21   10 1
    22   22   21 1
    23   23   21 1
    24   24   21 1
    25   25    5 1
    26   26    3 1
    27   27   26 2
    28   28   26 2
    29   29   25 2
    30   30   25 2
    31   31    7 1
    32   32    7 2
    33   33    2 1
    34   34    4 1
    35   35    6 1
    36   36    8 1
    37   37    9 1
    38   38    9 1
    39   39   10 1
    40   40   12 1
    41   41   13 1
    42   42   14 1
    43   43   15 1
    44   44   16 1
    45   45   18 1
    46   46   18 1
    47   47   18 1
    48   48   19 1
    49   49   19 1
    50   50   19 1
    51   51   20 1
    52   52   20 1
    53   53   20 1
    54   54   22 1
    55   55   22 1
    56   56   22 1
    57   57   23 1
    58   58   23 1
    59   59   23 1
    60   60   24 1
    61   61   24 1
    62   62   24 1
    63    8   31 1
@<TRIPOS>SUBSTRUCTURE
     1 RES1 1

@<TRIPOS>CRYSIN
  13.9290   11.9170    7.6840  99.0200 104.9000  82.6900   2 1

