# MOL2 file generated by ConQuest
# Please check atom types

@<TRIPOS>MOLECULE
MIBFOT01
    44    45     1
SMALL
NO_CHARGES
****
Generated from CSD

@<TRIPOS>ATOM
      1 O1        -0.3340    1.5859    1.3585 O.2       1 RES1    0.0000
      2 O2         1.3502    2.8154    1.9043 O.2       1 RES1    0.0000
      3 N1         0.1717    2.6688    1.6175 N.pl3     1 RES1    0.0000
      4 N2         1.0315    7.7053    1.4159 N.2       1 RES1    0.0000
      5 C1        -0.6863    3.8679    1.5581 C.ar      1 RES1    0.0000
      6 C2        -2.0533    3.7102    1.3985 C.ar      1 RES1    0.0000
      7 H1        -2.4449    2.8451    1.3462 H         1 RES1    0.0000
      8 C3        -2.8256    4.8456    1.3171 C.ar      1 RES1    0.0000
      9 H2        -3.7679    4.7659    1.2273 H         1 RES1    0.0000
     10 C4        -2.2449    6.1063    1.3662 C.ar      1 RES1    0.0000
     11 H3        -2.7928    6.8807    1.3029 H         1 RES1    0.0000
     12 C5        -0.8638    6.2461    1.5064 C.ar      1 RES1    0.0000
     13 C6        -0.0780    5.1016    1.6246 C.ar      1 RES1    0.0000
     14 H4         0.8613    5.1710    1.7486 H         1 RES1    0.0000
     15 C7        -0.2276    7.5773    1.4618 C.2       1 RES1    0.0000
     16 H5        -0.7741    8.3546    1.4670 H         1 RES1    0.0000
     17 C8         1.5651    9.0609    1.3442 C.3       1 RES1    0.0000
     18 H6         0.8263    9.6973    1.1705 H         1 RES1    0.0000
     19 H7         2.2059    9.1229    0.5917 H         1 RES1    0.0000
     20 C9         2.2698    9.4451    2.6420 C.3       1 RES1    0.0000
     21 H8         2.9523    8.7597    2.8532 H         1 RES1    0.0000
     22 H9         2.7377   10.3078    2.5115 H         1 RES1    0.0000
     23 O1B        3.9206   17.4321    5.1011 O.2       1 RES1    0.0000
     24 O2B        2.2364   16.2026    4.5553 O.2       1 RES1    0.0000
     25 N1B        3.4150   16.3492    4.8421 N.pl3     1 RES1    0.0000
     26 N2B        2.5551   11.3127    5.0436 N.2       1 RES1    0.0000
     27 C1B        4.2729   15.1501    4.9015 C.ar      1 RES1    0.0000
     28 C2B        5.6400   15.3078    5.0611 C.ar      1 RES1    0.0000
     29 H1B        6.0315   16.1729    5.1134 H         1 RES1    0.0000
     30 C3B        6.4122   14.1724    5.1425 C.ar      1 RES1    0.0000
     31 H2B        7.3546   14.2521    5.2323 H         1 RES1    0.0000
     32 C4B        5.8316   12.9117    5.0934 C.ar      1 RES1    0.0000
     33 H3B        6.3795   12.1373    5.1567 H         1 RES1    0.0000
     34 C5B        4.4505   12.7719    4.9532 C.ar      1 RES1    0.0000
     35 C6B        3.6646   13.9164    4.8350 C.ar      1 RES1    0.0000
     36 H4B        2.7253   13.8470    4.7110 H         1 RES1    0.0000
     37 C7B        3.8143   11.4407    4.9978 C.2       1 RES1    0.0000
     38 H5B        4.3607   10.6634    4.9926 H         1 RES1    0.0000
     39 C8B        2.0215    9.9571    5.1153 C.3       1 RES1    0.0000
     40 H6B        2.7603    9.3207    5.2891 H         1 RES1    0.0000
     41 H7B        1.3808    9.8951    5.8679 H         1 RES1    0.0000
     42 C9B        1.3168    9.5729    3.8176 C.3       1 RES1    0.0000
     43 H8B        0.6344   10.2583    3.6064 H         1 RES1    0.0000
     44 H9B        0.8489    8.7102    3.9481 H         1 RES1    0.0000
@<TRIPOS>BOND
     1    1    3 2
     2    2    3 2
     3    3    5 1
     4    4   15 2
     5    5    6 ar
     6    6    7 1
     7    8    6 ar
     8    9    8 1
     9   10    8 ar
    10   11   10 1
    11   12   10 ar
    12   13    5 ar
    13   14   13 1
    14   15   12 1
    15   16   15 1
    16   17    4 1
    17   18   17 1
    18   19   17 1
    19   20   17 1
    20   21   20 1
    21   22   20 1
    22   23   25 2
    23   24   25 2
    24   25   27 1
    25   26   37 2
    26   27   28 ar
    27   28   29 1
    28   30   28 ar
    29   31   30 1
    30   32   30 ar
    31   33   32 1
    32   34   32 ar
    33   35   27 ar
    34   36   35 1
    35   37   34 1
    36   38   37 1
    37   39   26 1
    38   40   39 1
    39   41   39 1
    40   42   20 1
    41   43   42 1
    42   44   42 1
    43   12   13 ar
    44   34   35 ar
    45   39   42 1
@<TRIPOS>SUBSTRUCTURE
     1 RES1 1

@<TRIPOS>CRYSIN
   6.8919   19.0180    7.2561  90.0000 117.0980  90.0000  14 1

