# MOL2 file generated by ConQuest
# Please check atom types

@<TRIPOS>MOLECULE
MIBFOT
    44    45     1
SMALL
NO_CHARGES
****
Generated from CSD

@<TRIPOS>ATOM
      1 O1         1.9151    8.0945    5.7435 O.2       1 RES1    0.0000
      2 O2         0.2694    7.0157    6.6204 O.2       1 RES1    0.0000
      3 N1         1.3347    7.0535    6.0216 N.pl3     1 RES1    0.0000
      4 N2         4.9970    5.6475    2.6749 N.2       1 RES1    0.0000
      5 C1         1.9549    5.7818    5.6201 C.ar      1 RES1    0.0000
      6 C2         1.4851    4.6008    6.1739 C.ar      1 RES1    0.0000
      7 H1         0.7627    4.6053    6.7913 H         1 RES1    0.0000
      8 C3         2.0961    3.4164    5.8037 C.ar      1 RES1    0.0000
      9 H2         1.8069    2.5951    6.1849 H         1 RES1    0.0000
     10 C4         3.1276    3.4209    4.8793 C.ar      1 RES1    0.0000
     11 H3         3.5428    2.6029    4.6334 H         1 RES1    0.0000
     12 C5         3.5629    4.6187    4.3048 C.ar      1 RES1    0.0000
     13 C6         2.9760    5.8154    4.6954 C.ar      1 RES1    0.0000
     14 H4         3.2724    6.6412    4.3325 H         1 RES1    0.0000
     15 C7         4.6210    4.5963    3.2747 C.2       1 RES1    0.0000
     16 H5         5.0317    3.7682    3.0546 H         1 RES1    0.0000
     17 C8         6.0317    5.4927    1.6472 C.3       1 RES1    0.0000
     18 H6         6.2679    4.5358    1.5561 H         1 RES1    0.0000
     19 H7         6.8456    5.9857    1.9205 H         1 RES1    0.0000
     20 C9         5.5347    6.0283    0.3038 C.3       1 RES1    0.0000
     21 H8         5.1990    6.9516    0.4295 H         1 RES1    0.0000
     22 H9         6.2956    6.0664   -0.3281 H         1 RES1    0.0000
     23 O1B        8.0469    3.1105   -5.7435 O.2       1 RES1    0.0000
     24 O2B        9.6926    4.1893   -6.6204 O.2       1 RES1    0.0000
     25 N1B        8.6273    4.1515   -6.0216 N.pl3     1 RES1    0.0000
     26 N2B        4.9650    5.5575   -2.6749 N.2       1 RES1    0.0000
     27 C1B        8.0071    5.4232   -5.6201 C.ar      1 RES1    0.0000
     28 C2B        8.4769    6.6042   -6.1739 C.ar      1 RES1    0.0000
     29 H1B        9.1993    6.5997   -6.7913 H         1 RES1    0.0000
     30 C3B        7.8659    7.7886   -5.8037 C.ar      1 RES1    0.0000
     31 H2B        8.1551    8.6099   -6.1849 H         1 RES1    0.0000
     32 C4B        6.8344    7.7841   -4.8793 C.ar      1 RES1    0.0000
     33 H3B        6.4192    8.6021   -4.6334 H         1 RES1    0.0000
     34 C5B        6.3991    6.5863   -4.3048 C.ar      1 RES1    0.0000
     35 C6B        6.9860    5.3896   -4.6954 C.ar      1 RES1    0.0000
     36 H4B        6.6896    4.5638   -4.3325 H         1 RES1    0.0000
     37 C7B        5.3410    6.6087   -3.2747 C.2       1 RES1    0.0000
     38 H5B        4.9303    7.4368   -3.0546 H         1 RES1    0.0000
     39 C8B        3.9303    5.7123   -1.6472 C.3       1 RES1    0.0000
     40 H6B        3.6941    6.6692   -1.5561 H         1 RES1    0.0000
     41 H7B        3.1164    5.2193   -1.9205 H         1 RES1    0.0000
     42 C9B        4.4273    5.1767   -0.3038 C.3       1 RES1    0.0000
     43 H8B        4.7630    4.2534   -0.4295 H         1 RES1    0.0000
     44 H9B        3.6664    5.1386    0.3281 H         1 RES1    0.0000
@<TRIPOS>BOND
     1    1    3 2
     2    2    3 2
     3    3    5 1
     4    4   15 2
     5    5    6 ar
     6    6    7 1
     7    8    6 ar
     8    9    8 1
     9   10    8 ar
    10   11   10 1
    11   12   10 ar
    12   13    5 ar
    13   14   13 1
    14   15   12 1
    15   16   15 1
    16   17    4 1
    17   18   17 1
    18   19   17 1
    19   20   17 1
    20   21   20 1
    21   22   20 1
    22   23   25 2
    23   24   25 2
    24   25   27 1
    25   26   37 2
    26   27   28 ar
    27   28   29 1
    28   30   28 ar
    29   31   30 1
    30   32   30 ar
    31   33   32 1
    32   34   32 ar
    33   35   27 ar
    34   36   35 1
    35   37   34 1
    36   38   37 1
    37   39   26 1
    38   40   39 1
    39   41   39 1
    40   42   20 1
    41   43   42 1
    42   44   42 1
    43   12   13 ar
    44   34   35 ar
    45   39   42 1
@<TRIPOS>SUBSTRUCTURE
     1 RES1 1

@<TRIPOS>CRYSIN
   4.9810   11.2050   15.1340  90.0000  92.2800  90.0000  14 1

