# MOL2 file generated by ConQuest
# Please check atom types

@<TRIPOS>MOLECULE
MIBFEK
    30    31     1
SMALL
NO_CHARGES
****
Generated from CSD

@<TRIPOS>ATOM
      1 O1         4.7810    0.3377   16.3411 O.3       1 RES1    0.0000
      2 O2         5.6141    2.6388   17.3596 O.2       1 RES1    0.0000
      3 O3         1.7524    0.6245   19.4827 O.2       1 RES1    0.0000
      4 O4         0.1255   -0.6253   18.8485 O.2       1 RES1    0.0000
      5 N1         1.1215    0.0424   18.6193 N.pl3     1 RES1    0.0000
      6 C1         4.0443    0.8459   17.4649 C.3       1 RES1    0.0000
      7 H1         3.9764    0.1401   18.1699 H         1 RES1    0.0000
      8 C2         2.6114    1.2100   16.9433 C.3       1 RES1    0.0000
      9 H2         2.3040    2.0887   17.3061 H         1 RES1    0.0000
     10 C3         2.8790    1.2922   15.4550 C.ar      1 RES1    0.0000
     11 C4         4.1343    0.7551   15.2034 C.ar      1 RES1    0.0000
     12 C5         4.6624    0.6504   13.9283 C.ar      1 RES1    0.0000
     13 H3         5.5259    0.2820   13.7854 H         1 RES1    0.0000
     14 C6         3.8883    1.1027   12.8620 C.ar      1 RES1    0.0000
     15 C7         2.6095    1.6286   13.1064 C.ar      1 RES1    0.0000
     16 H4         2.0840    1.9339   12.3759 H         1 RES1    0.0000
     17 C8         2.0979    1.7116   14.3952 C.ar      1 RES1    0.0000
     18 H5         1.2236    2.0515   14.5460 H         1 RES1    0.0000
     19 C9         4.7785    2.0671   18.0273 C.2       1 RES1    0.0000
     20 C10        4.4488    2.4572   19.4347 C.3       1 RES1    0.0000
     21 H6         4.8602    3.3238   19.6384 H         1 RES1    0.0000
     22 H7         4.7943    1.7791   20.0514 H         1 RES1    0.0000
     23 H8         3.4769    2.5255   19.5352 H         1 RES1    0.0000
     24 C11        1.5882    0.1211   17.1921 C.3       1 RES1    0.0000
     25 H9         0.8045    0.2802   16.6087 H         1 RES1    0.0000
     26 H10        1.9806   -0.7507   16.9353 H         1 RES1    0.0000
     27 C12        4.4342    1.0500   11.4506 C.3       1 RES1    0.0000
     28 H11        5.2191    0.4636   11.4257 H         1 RES1    0.0000
     29 H12        4.6910    1.9512   11.1645 H         1 RES1    0.0000
     30 H13        3.7457    0.6997   10.8463 H         1 RES1    0.0000
@<TRIPOS>BOND
     1    1    6 1
     2    2   19 2
     3    3    5 2
     4    4    5 2
     5    5   24 1
     6    6    7 1
     7    8    6 1
     8    9    8 1
     9   10    8 1
    10   11    1 1
    11   12   11 ar
    12   13   12 1
    13   14   12 ar
    14   15   14 ar
    15   16   15 1
    16   17   10 ar
    17   18   17 1
    18   19    6 1
    19   20   19 1
    20   21   20 1
    21   22   20 1
    22   23   20 1
    23   24    8 1
    24   25   24 1
    25   26   24 1
    26   27   14 1
    27   28   27 1
    28   29   27 1
    29   30   27 1
    30   10   11 ar
    31   15   17 ar
@<TRIPOS>SUBSTRUCTURE
     1 RES1 1

@<TRIPOS>CRYSIN
   6.3400    8.6490   21.0690  90.0000  90.0000  90.0000  19 1

