# MOL2 file generated by ConQuest
# Please check atom types

@<TRIPOS>MOLECULE
MIBJIR01
    30    32     1
SMALL
NO_CHARGES
****
Generated from CSD

@<TRIPOS>ATOM
      1 O1         3.0572    6.5967    7.8017 O.3       1 RES1    0.0000
      2 O2         1.6852    8.4150    7.6686 O.3       1 RES1    0.0000
      3 O3         5.6880    8.2889    6.0122 O.3       1 RES1    0.0000
      4 H1         6.4189    8.0336    5.7420 H         1 RES1    0.0000
      5 O4         1.1671    7.1291    3.7309 O.3       1 RES1    0.0000
      6 N1         1.1395    7.6950    5.0414 N.2       1 RES1    0.0000
      7 C1         2.3103    8.0601    5.3509 C.2       1 RES1    0.0000
      8 C2         1.8995    7.1880    8.3936 C.3       1 RES1    0.0000
      9 C3         3.3623    7.7332    4.3409 C.3       1 RES1    0.0000
     10 H2         3.8902    8.5282    4.1182 H         1 RES1    0.0000
     11 C4         2.7091    8.5522    6.7027 C.3       1 RES1    0.0000
     12 H3         3.0068    9.4850    6.6517 H         1 RES1    0.0000
     13 C5         3.8204    7.6701    7.2553 C.3       1 RES1    0.0000
     14 H4         4.2779    8.1431    7.9813 H         1 RES1    0.0000
     15 C6         4.8528    7.1623    6.2589 C.3       1 RES1    0.0000
     16 H5         5.3820    6.4494    6.6738 H         1 RES1    0.0000
     17 C7         2.1419    7.5340    9.8398 C.3       1 RES1    0.0000
     18 H6         2.2033    6.7266   10.3558 H         1 RES1    0.0000
     19 H7         1.4150    8.0693   10.1671 H         1 RES1    0.0000
     20 H8         2.9628    8.0261    9.9171 H         1 RES1    0.0000
     21 C8         4.2479    6.6536    4.9726 C.3       1 RES1    0.0000
     22 H9         3.7169    5.8619    5.1528 H         1 RES1    0.0000
     23 H10        4.9547    6.4096    4.3545 H         1 RES1    0.0000
     24 C9         2.4840    7.3274    3.1745 C.3       1 RES1    0.0000
     25 H11        2.4689    8.0236    2.4995 H         1 RES1    0.0000
     26 H12        2.8106    6.5084    2.7698 H         1 RES1    0.0000
     27 C10        0.7350    6.2694    8.2023 C.3       1 RES1    0.0000
     28 H13        0.6418    6.0619    7.2697 H         1 RES1    0.0000
     29 H14       -0.0649    6.6976    8.5161 H         1 RES1    0.0000
     30 H15        0.8802    5.4603    8.6980 H         1 RES1    0.0000
@<TRIPOS>BOND
     1    1    8 1
     2    2    8 1
     3    3    4 1
     4    5    6 1
     5    6    7 2
     6    7    9 1
     7    8   17 1
     8    9   10 1
     9   11    2 1
    10   12   11 1
    11   13    1 1
    12   14   13 1
    13   15    3 1
    14   16   15 1
    15   17   18 1
    16   19   17 1
    17   20   17 1
    18   21    9 1
    19   22   21 1
    20   23   21 1
    21   24    5 1
    22   25   24 1
    23   26   24 1
    24   27    8 1
    25   28   27 1
    26   29   27 1
    27   30   27 1
    28    7   11 1
    29    9   24 1
    30   11   13 1
    31   13   15 1
    32   15   21 1
@<TRIPOS>SUBSTRUCTURE
     1 RES1 1

@<TRIPOS>CRYSIN
   7.2282    8.2983    9.2315  90.0000 112.9370  90.0000   4 1

