# MOL2 file generated by ConQuest
# Please check atom types

@<TRIPOS>MOLECULE
MIBJUD
    41    43     1
SMALL
NO_CHARGES
****
Generated from CSD

@<TRIPOS>ATOM
      1 N1         2.0620    4.4943    6.7614 N.2       1 RES1    0.0000
      2 O1         2.1926    4.5207    8.1821 O.3       1 RES1    0.0000
      3 O2         6.9465    3.3052    5.0248 O.3       1 RES1    0.0000
      4 H1         7.6016    3.7280    4.7714 H         1 RES1    0.0000
      5 O3         5.0333    4.0358    3.1325 O.3       1 RES1    0.0000
      6 O4         2.3986    4.2015    4.0422 O.3       1 RES1    0.0000
      7 O5         3.7789    2.1911    2.4742 O.3       1 RES1    0.0000
      8 O6         2.7674    5.5741    2.2073 O.3       1 RES1    0.0000
      9 C1         3.6076    4.5521    8.5127 C.3       1 RES1    0.0000
     10 H2         3.8989    3.6887    8.8454 H         1 RES1    0.0000
     11 H3         3.7834    5.2220    9.1920 H         1 RES1    0.0000
     12 C2         4.3344    4.8985    7.2190 C.3       1 RES1    0.0000
     13 H4         4.5909    5.8441    7.2276 H         1 RES1    0.0000
     14 C3         3.2057    4.6907    6.2490 C.2       1 RES1    0.0000
     15 C4         5.5410    4.0429    6.8461 C.3       1 RES1    0.0000
     16 H5         5.3410    3.1109    7.0277 H         1 RES1    0.0000
     17 H6         6.2975    4.2986    7.3973 H         1 RES1    0.0000
     18 C5         5.9160    4.1993    5.3720 C.3       1 RES1    0.0000
     19 H7         6.1993    5.1206    5.1957 H         1 RES1    0.0000
     20 C6         4.7197    3.8544    4.5146 C.3       1 RES1    0.0000
     21 H8         4.4890    2.9131    4.6622 H         1 RES1    0.0000
     22 C7         3.4981    4.7042    4.8018 C.3       1 RES1    0.0000
     23 H9         3.6807    5.6262    4.5241 H         1 RES1    0.0000
     24 C8         4.0009    3.5716    2.2756 C.3       1 RES1    0.0000
     25 C9         2.6305    4.2365    2.6311 C.3       1 RES1    0.0000
     26 C10        4.4728    3.8937    0.8719 C.3       1 RES1    0.0000
     27 H10        5.3155    3.4630    0.7104 H         1 RES1    0.0000
     28 H11        4.5762    4.8435    0.7794 H         1 RES1    0.0000
     29 H12        3.8261    3.5787    0.2358 H         1 RES1    0.0000
     30 C11        4.9339    1.3512    2.3685 C.3       1 RES1    0.0000
     31 H13        4.6806    0.4385    2.5267 H         1 RES1    0.0000
     32 H14        5.5846    1.6197    3.0213 H         1 RES1    0.0000
     33 H15        5.3095    1.4326    1.4898 H         1 RES1    0.0000
     34 C12        1.4458    3.5309    2.0009 C.3       1 RES1    0.0000
     35 H16        0.6351    3.9801    2.2505 H         1 RES1    0.0000
     36 H17        1.4149    2.6217    2.3081 H         1 RES1    0.0000
     37 H18        1.5371    3.5437    1.0455 H         1 RES1    0.0000
     38 C13        1.6362    6.4104    2.4161 C.3       1 RES1    0.0000
     39 H19        1.8297    7.2952    2.0981 H         1 RES1    0.0000
     40 H20        1.4321    6.4447    3.3535 H         1 RES1    0.0000
     41 H21        0.8833    6.0554    1.9371 H         1 RES1    0.0000
@<TRIPOS>BOND
     1    1    2 1
     2    2    9 1
     3    3    4 1
     4    5   20 1
     5    6   22 1
     6    7   24 1
     7    8   25 1
     8    9   10 1
     9   11    9 1
    10   12    9 1
    11   13   12 1
    12   14    1 2
    13   15   12 1
    14   16   15 1
    15   17   15 1
    16   18    3 1
    17   19   18 1
    18   20   18 1
    19   21   20 1
    20   22   14 1
    21   23   22 1
    22   24    5 1
    23   25    6 1
    24   26   24 1
    25   27   26 1
    26   28   26 1
    27   29   26 1
    28   30    7 1
    29   31   30 1
    30   32   30 1
    31   33   30 1
    32   34   25 1
    33   35   34 1
    34   36   34 1
    35   37   34 1
    36   38    8 1
    37   39   38 1
    38   40   38 1
    39   41   38 1
    40   12   14 1
    41   15   18 1
    42   20   22 1
    43   24   25 1
@<TRIPOS>SUBSTRUCTURE
     1 RES1 1

@<TRIPOS>CRYSIN
   7.1732    7.1417   14.4670  90.0000  96.2690  90.0000   4 1

