# MOL2 file generated by ConQuest
# Please check atom types

@<TRIPOS>MOLECULE
MIBTOJ
    60    64     2
SMALL
NO_CHARGES
****
Generated from CSD

@<TRIPOS>ATOM
      1 O1         5.1048   -0.2571    3.7775 O.3       1 RES1    0.0000
      2 H1         4.7948   -0.7273    4.3722 H         1 RES1    0.0000
      3 N1         2.2085    0.6165    0.4619 N.2       1 RES1    0.0000
      4 N2         4.1546    0.6357    3.3603 N.2       1 RES1    0.0000
      5 C1         3.9407   -0.7382    1.2470 C.ar      1 RES1    0.0000
      6 C2         3.7197    0.3649    2.1685 C.2       1 RES1    0.0000
      7 C3         4.6736   -2.7126    0.1516 C.ar      1 RES1    0.0000
      8 H2         5.2472   -3.4439    0.1034 H         1 RES1    0.0000
      9 C4         2.6388    1.1707    1.5632 C.2       1 RES1    0.0000
     10 C5         2.9773   -0.5593    0.2480 C.ar      1 RES1    0.0000
     11 C6         2.0651    2.4061    2.1085 C.ar      1 RES1    0.0000
     12 C7         2.8491   -1.4503   -0.7875 C.ar      1 RES1    0.0000
     13 H3         2.2035   -1.3310   -1.4457 H         1 RES1    0.0000
     14 C8         0.2908    5.9559    3.7963 C.3       1 RES1    0.0000
     15 H4         0.6980    6.7379    3.4143 H         1 RES1    0.0000
     16 H5         0.4217    5.9600    4.7472 H         1 RES1    0.0000
     17 H6        -0.6486    5.9579    3.6024 H         1 RES1    0.0000
     18 C9         2.8410    3.3325    2.7949 C.ar      1 RES1    0.0000
     19 H7         3.7523    3.1805    2.9031 H         1 RES1    0.0000
     20 C10        4.7970   -1.8131    1.2035 C.ar      1 RES1    0.0000
     21 H8         5.4426   -1.9367    1.8617 H         1 RES1    0.0000
     22 C11        3.7154   -2.5363   -0.8204 C.ar      1 RES1    0.0000
     23 H9         3.6472   -3.1542   -1.5127 H         1 RES1    0.0000
     24 C12        0.7148    2.6619    1.9769 C.ar      1 RES1    0.0000
     25 H10        0.1775    2.0643    1.5079 H         1 RES1    0.0000
     26 C13        0.1538    3.7944    2.5305 C.ar      1 RES1    0.0000
     27 H11       -0.7624    3.9341    2.4459 H         1 RES1    0.0000
     28 C14        2.2703    4.4730    3.3133 C.ar      1 RES1    0.0000
     29 H12        2.8132    5.0889    3.7493 H         1 RES1    0.0000
     30 C15        0.9217    4.7283    3.2098 C.ar      1 RES1    0.0000
     31 O2        -0.3390   -1.4527    1.2658 O.3       2 RES2    0.0000
     32 H13       -0.3380   -2.2264    1.5362 H         2 RES2    0.0000
     33 N3        -0.5090   -0.6007    2.3248 N.2       2 RES2    0.0000
     34 N4         1.2020   -0.4236    5.3807 N.2       2 RES2    0.0000
     35 C16        1.7619   -2.9739    2.8549 C.ar      2 RES2    0.0000
     36 H14        1.4205   -3.1846    2.0157 H         2 RES2    0.0000
     37 C17        0.2830   -0.0253    4.5556 C.2       2 RES2    0.0000
     38 C18        1.2907   -1.8911    3.5577 C.ar      2 RES2    0.0000
     39 C19       -1.8828    1.1871    4.3146 C.ar      2 RES2    0.0000
     40 H15       -2.2016    0.5065    3.7681 H         2 RES2    0.0000
     41 C20       -2.6950    2.2750    4.6014 C.ar      2 RES2    0.0000
     42 H16       -3.5428    2.3175    4.2218 H         2 RES2    0.0000
     43 C21        0.2712   -0.8766    3.3321 C.2       2 RES2    0.0000
     44 C22        1.8241   -1.5702    4.8106 C.ar      2 RES2    0.0000
     45 C23       -0.1707    2.1332    5.6815 C.ar      2 RES2    0.0000
     46 H17        0.6778    2.0987    6.0588 H         2 RES2    0.0000
     47 C24        2.7657   -3.7457    3.4320 C.ar      2 RES2    0.0000
     48 H18        3.0919   -4.4892    2.9771 H         2 RES2    0.0000
     49 C25       -0.5991    1.1079    4.8377 C.ar      2 RES2    0.0000
     50 C26       -2.2826    3.2920    5.4312 C.ar      2 RES2    0.0000
     51 C27        2.8266   -2.3256    5.3854 C.ar      2 RES2    0.0000
     52 H19        3.1801   -2.1069    6.2175 H         2 RES2    0.0000
     53 C28       -1.0008    3.1967    5.9577 C.ar      2 RES2    0.0000
     54 H20       -0.6929    3.8734    6.5172 H         2 RES2    0.0000
     55 C29        3.2859   -3.4236    4.6719 C.ar      2 RES2    0.0000
     56 H21        3.9577   -3.9524    5.0351 H         2 RES2    0.0000
     57 C30       -3.1817    4.4568    5.7474 C.3       2 RES2    0.0000
     58 H22       -3.9042    4.4831    5.1150 H         2 RES2    0.0000
     59 H23       -2.6791    5.2732    5.6945 H         2 RES2    0.0000
     60 H24       -3.5370    4.3555    6.6336 H         2 RES2    0.0000
@<TRIPOS>BOND
     1    1    2 1
     2    3    9 2
     3    4    1 1
     4    5    6 1
     5    6    4 2
     6    7    8 1
     7    9    6 1
     8   10    3 1
     9   11    9 1
    10   12   10 ar
    11   13   12 1
    12   14   15 1
    13   16   14 1
    14   17   14 1
    15   18   11 ar
    16   19   18 1
    17   20    5 ar
    18   21   20 1
    19   22    7 ar
    20   23   22 1
    21   24   11 ar
    22   25   24 1
    23   26   24 ar
    24   27   26 1
    25   28   18 ar
    26   29   28 1
    27   30   14 1
    28   31   32 1
    29   33   31 1
    30   34   37 2
    31   35   36 1
    32   37   43 1
    33   38   35 ar
    34   39   40 1
    35   41   39 ar
    36   42   41 1
    37   43   33 2
    38   44   34 1
    39   45   46 1
    40   47   35 ar
    41   48   47 1
    42   49   37 1
    43   50   41 ar
    44   51   44 ar
    45   52   51 1
    46   53   45 ar
    47   54   53 1
    48   55   47 ar
    49   56   55 1
    50   57   50 1
    51   58   57 1
    52   59   57 1
    53   60   57 1
    54    5   10 ar
    55    7   20 ar
    56   12   22 ar
    57   26   30 ar
    58   28   30 ar
    59   38   43 1
    60   38   44 ar
    61   39   49 ar
    62   45   49 ar
    63   50   53 ar
    64   51   55 ar
@<TRIPOS>SUBSTRUCTURE
     1 RES1 1
     2 RES2 31

@<TRIPOS>CRYSIN
  10.0428   20.2582   12.2482  90.0000 106.3430  90.0000  14 1

