# MOL2 file generated by ConQuest
# Please check atom types

@<TRIPOS>MOLECULE
MICHIQ
    43    47     1
SMALL
NO_CHARGES
****
Generated from CSD

@<TRIPOS>ATOM
      1 N1        -2.5062    4.0738    6.4234 N.3       1 RES1    0.0000
      2 O1        -2.1608    4.6937    7.7022 O.3       1 RES1    0.0000
      3 C1        -0.7739    4.5428    7.8985 C.3       1 RES1    0.0000
      4 H1        -0.5970    4.1507    8.7680 H         1 RES1    0.0000
      5 H2        -0.3314    5.4038    7.8509 H         1 RES1    0.0000
      6 C2        -0.2663    3.6248    6.7902 C.3       1 RES1    0.0000
      7 H3         0.3771    2.9736    7.1409 H         1 RES1    0.0000
      8 C3         0.3263    4.4056    5.6292 C.3       1 RES1    0.0000
      9 H4        -0.2690    5.1332    5.3943 H         1 RES1    0.0000
     10 H5         1.1755    4.7891    5.8996 H         1 RES1    0.0000
     11 N2         0.5320    3.5425    4.4522 N.pl3     1 RES1    0.0000
     12 C4        -0.4631    2.6637    4.1571 C.2       1 RES1    0.0000
     13 O2        -0.3343    2.1449    2.9162 O.3       1 RES1    0.0000
     14 C5        -1.2727    1.2398    2.4641 C.ar      1 RES1    0.0000
     15 C6        -1.1415    0.8444    1.1467 C.ar      1 RES1    0.0000
     16 H6        -0.4363    1.1557    0.6265 H         1 RES1    0.0000
     17 C7        -2.0718   -0.0190    0.6190 C.ar      1 RES1    0.0000
     18 H7        -2.0068   -0.2824   -0.2698 H         1 RES1    0.0000
     19 C8        -3.1065   -0.4969    1.4080 C.ar      1 RES1    0.0000
     20 H8        -3.7340   -1.0798    1.0441 H         1 RES1    0.0000
     21 C9        -3.2113   -0.1160    2.7239 C.ar      1 RES1    0.0000
     22 H9        -3.9004   -0.4533    3.2493 H         1 RES1    0.0000
     23 C10       -2.2872    0.7756    3.2762 C.ar      1 RES1    0.0000
     24 C11       -2.3918    1.2685    4.6642 C.2       1 RES1    0.0000
     25 O3        -3.2200    0.7919    5.4509 O.2       1 RES1    0.0000
     26 C12       -1.4837    2.3248    5.0055 C.2       1 RES1    0.0000
     27 C13       -1.5520    2.9416    6.3656 C.3       1 RES1    0.0000
     28 H10       -1.8012    2.2617    7.0264 H         1 RES1    0.0000
     29 C14        1.6103    3.8351    3.5542 C.ar      1 RES1    0.0000
     30 C15        1.9507    5.1655    3.3194 C.ar      1 RES1    0.0000
     31 H11        1.4879    5.8499    3.7488 H         1 RES1    0.0000
     32 C16        2.9802    5.4650    2.4466 C.ar      1 RES1    0.0000
     33 H12        3.1986    6.3531    2.2828 H         1 RES1    0.0000
     34 C17        3.6842    4.4666    1.8159 C.ar      1 RES1    0.0000
     35 H13        4.3692    4.6776    1.2229 H         1 RES1    0.0000
     36 C18        3.3642    3.1457    2.0707 C.ar      1 RES1    0.0000
     37 H14        3.8462    2.4681    1.6547 H         1 RES1    0.0000
     38 C19        2.3362    2.8236    2.9367 C.ar      1 RES1    0.0000
     39 H15        2.1308    1.9318    3.1056 H         1 RES1    0.0000
     40 C20       -3.8872    3.6547    6.5929 C.3       1 RES1    0.0000
     41 H16       -4.4557    4.4284    6.6196 H         1 RES1    0.0000
     42 H17       -3.9749    3.1658    7.4140 H         1 RES1    0.0000
     43 H18       -4.1441    3.0947    5.8570 H         1 RES1    0.0000
@<TRIPOS>BOND
     1    1    2 1
     2    2    3 1
     3    3    4 1
     4    5    3 1
     5    6    3 1
     6    7    6 1
     7    8    6 1
     8    9    8 1
     9   10    8 1
    10   11    8 1
    11   12   11 1
    12   13   12 1
    13   14   13 1
    14   15   14 ar
    15   16   15 1
    16   17   15 ar
    17   18   17 1
    18   19   17 ar
    19   20   19 1
    20   21   19 ar
    21   22   21 1
    22   23   14 ar
    23   24   23 1
    24   25   24 2
    25   26   12 2
    26   27    1 1
    27   28   27 1
    28   29   11 1
    29   30   29 ar
    30   31   30 1
    31   32   30 ar
    32   33   32 1
    33   34   32 ar
    34   35   34 1
    35   36   34 ar
    36   37   36 1
    37   38   29 ar
    38   39   38 1
    39   40    1 1
    40   41   40 1
    41   42   40 1
    42   43   40 1
    43    6   27 1
    44   21   23 ar
    45   24   26 1
    46   26   27 1
    47   36   38 ar
@<TRIPOS>SUBSTRUCTURE
     1 RES1 1

@<TRIPOS>CRYSIN
   8.1110   23.7320    8.4870  90.0000 100.2000  90.0000  14 2

