# MOL2 file generated by ConQuest
# Please check atom types

@<TRIPOS>MOLECULE
MICMIU
    66    66     2
SMALL
NO_CHARGES
****
Generated from CSD

@<TRIPOS>ATOM
      1 N1         1.5708    9.2912    6.4299 N.3       1 RES1    0.0000
      2 N2         0.2879   10.3886    4.0499 N.pl3     1 RES1    0.0000
      3 O1         0.6057   11.1988    4.9253 O.2       1 RES1    0.0000
      4 O2        -0.2346   10.7436    3.0199 O.2       1 RES1    0.0000
      5 N3        -0.2450    5.8988    2.3365 N.pl3     1 RES1    0.0000
      6 O3        -0.7706    6.4055    1.3572 O.2       1 RES1    0.0000
      7 O4        -0.0674    4.7174    2.4874 O.2       1 RES1    0.0000
      8 N4         0.4248   14.6996    5.4747 N.3       2 RES2    0.0000
      9 N5         2.0351   13.6943    7.7170 N.pl3     2 RES2    0.0000
     10 O5         2.7333   13.3800    8.6806 O.2       2 RES2    0.0000
     11 O6         1.6948   12.8598    6.8839 O.2       2 RES2    0.0000
     12 N6         2.1733   18.1814    9.5138 N.pl3     2 RES2    0.0000
     13 O7         2.8317   17.7316   10.4291 O.2       2 RES2    0.0000
     14 O8         1.8096   19.3222    9.4498 O.2       2 RES2    0.0000
     15 C1         1.1281    8.5136    5.4482 C.ar      1 RES1    0.0000
     16 C2         0.4887    8.9606    4.2648 C.ar      1 RES1    0.0000
     17 C3         0.0626    8.1451    3.2493 C.ar      1 RES1    0.0000
     18 C4         0.2245    6.8038    3.4063 C.ar      1 RES1    0.0000
     19 C5         0.8089    6.2646    4.5317 C.ar      1 RES1    0.0000
     20 C6         1.2677    7.0856    5.5134 C.ar      1 RES1    0.0000
     21 C7         2.2268    8.7439    7.6156 C.3       1 RES1    0.0000
     22 C8         2.4382    9.7925    8.6130 C.3       1 RES1    0.0000
     23 C9         3.2005    9.2587    9.8555 C.3       1 RES1    0.0000
     24 C10        3.3334   10.2179   10.9290 C.3       1 RES1    0.0000
     25 C11        4.1225    9.6733   12.1038 C.3       1 RES1    0.0000
     26 C12        0.8733   15.4989    6.4492 C.ar      2 RES2    0.0000
     27 C13        1.6503   15.0654    7.5589 C.ar      2 RES2    0.0000
     28 C14        2.0447   15.9324    8.5611 C.ar      2 RES2    0.0000
     29 C15        1.7480   17.2520    8.4705 C.ar      2 RES2    0.0000
     30 C16        1.0242   17.7425    7.3886 C.ar      2 RES2    0.0000
     31 C17        0.6043   16.9025    6.4093 C.ar      2 RES2    0.0000
     32 C18       -0.3178   15.1954    4.2938 C.3       2 RES2    0.0000
     33 C19       -0.6043   14.0980    3.3484 C.3       2 RES2    0.0000
     34 C20       -1.3026   14.6698    2.0974 C.3       2 RES2    0.0000
     35 C21       -1.6456   13.6754    1.1061 C.3       2 RES2    0.0000
     36 C22       -2.1727   14.3853   -0.2029 C.3       2 RES2    0.0000
     37 H1         1.4683   10.1420    6.3647 H         1 RES1    0.0000
     38 H2         0.5733   13.8542    5.5375 H         2 RES2    0.0000
     39 H3        -0.3239    8.4946    2.4790 H         1 RES1    0.0000
     40 H4         0.8899    5.3433    4.6186 H         1 RES1    0.0000
     41 H5         1.6870    6.7090    6.2536 H         1 RES1    0.0000
     42 H6         3.0798    8.3564    7.3657 H         1 RES1    0.0000
     43 H7         1.6760    8.0394    7.9960 H         1 RES1    0.0000
     44 H8         1.5795   10.1475    8.8919 H         1 RES1    0.0000
     45 H9         2.9453   10.5187    8.2121 H         1 RES1    0.0000
     46 H10        2.7358    8.4783   10.1924 H         1 RES1    0.0000
     47 H11        4.0866    8.9769    9.5790 H         1 RES1    0.0000
     48 H12        2.4501   10.4780   11.2345 H         1 RES1    0.0000
     49 H13        3.7756   11.0118   10.5921 H         1 RES1    0.0000
     50 H14        3.8045    8.7954   12.3224 H         1 RES1    0.0000
     51 H15        4.0100   10.2531   12.8609 H         1 RES1    0.0000
     52 H16        5.0530    9.6299   11.8708 H         1 RES1    0.0000
     53 H17        2.5142   15.6127    9.2964 H         2 RES2    0.0000
     54 H18        0.8268   18.6502    7.3367 H         2 RES2    0.0000
     55 H19        0.1273   17.2493    5.6909 H         2 RES2    0.0000
     56 H20       -1.1513   15.6019    4.5836 H         2 RES2    0.0000
     57 H21        0.2072   15.8810    3.8471 H         2 RES2    0.0000
     58 H22       -1.1773   13.4423    3.7734 H         2 RES2    0.0000
     59 H23        0.2225   13.6618    3.0936 H         2 RES2    0.0000
     60 H24       -2.1131   15.1250    2.3739 H         2 RES2    0.0000
     61 H25       -0.7194   15.3282    1.6893 H         2 RES2    0.0000
     62 H26       -2.3310   13.0874    1.4562 H         2 RES2    0.0000
     63 H27       -0.8647   13.1416    0.8947 H         2 RES2    0.0000
     64 H28       -3.1005   14.6075   -0.0954 H         2 RES2    0.0000
     65 H29       -2.0701   13.7946   -0.9515 H         2 RES2    0.0000
     66 H30       -1.6686   15.1873   -0.3574 H         2 RES2    0.0000
@<TRIPOS>BOND
     1    1   15 1
     2    2    3 2
     3    4    2 2
     4    5    6 2
     5    7    5 2
     6    8   26 1
     7    9   10 2
     8   11    9 2
     9   12   13 2
    10   14   12 2
    11   15   16 ar
    12   16    2 1
    13   17   16 ar
    14   18    5 1
    15   19   18 ar
    16   20   15 ar
    17   21    1 1
    18   22   21 1
    19   23   22 1
    20   24   23 1
    21   25   24 1
    22   26   27 ar
    23   27    9 1
    24   28   27 ar
    25   29   12 1
    26   30   29 ar
    27   31   26 ar
    28   32    8 1
    29   33   32 1
    30   34   33 1
    31   35   34 1
    32   36   35 1
    33   37    1 1
    34   38    8 1
    35   39   17 1
    36   40   19 1
    37   41   20 1
    38   42   21 1
    39   43   21 1
    40   44   22 1
    41   45   22 1
    42   46   23 1
    43   47   23 1
    44   48   24 1
    45   49   24 1
    46   50   25 1
    47   51   25 1
    48   52   25 1
    49   53   28 1
    50   54   30 1
    51   55   31 1
    52   56   32 1
    53   57   32 1
    54   58   33 1
    55   59   33 1
    56   60   34 1
    57   61   34 1
    58   62   35 1
    59   63   35 1
    60   64   36 1
    61   65   36 1
    62   66   36 1
    63   17   18 ar
    64   19   20 ar
    65   28   29 ar
    66   30   31 ar
@<TRIPOS>SUBSTRUCTURE
     1 RES1 1
     2 RES2 8

@<TRIPOS>CRYSIN
   7.7220   27.0960   12.2460  90.0000  99.5900  90.0000  14 1

