# MOL2 file generated by ConQuest
# Please check atom types

@<TRIPOS>MOLECULE
MICMAM
    27    27     1
SMALL
NO_CHARGES
****
Generated from CSD

@<TRIPOS>ATOM
      1 N1         1.8493    1.7446   -1.2615 N.3       1 RES1    0.0000
      2 N2         0.8249   -0.9720   -1.7643 N.pl3     1 RES1    0.0000
      3 N3         2.7676   -2.3541    2.4318 N.pl3     1 RES1    0.0000
      4 O1         0.5168   -0.1110   -2.5797 O.2       1 RES1    0.0000
      5 O2         0.5061   -2.1468   -1.9067 O.2       1 RES1    0.0000
      6 O3         2.4524   -3.5005    2.1670 O.2       1 RES1    0.0000
      7 O4         3.2939   -2.0414    3.4852 O.2       1 RES1    0.0000
      8 C1         2.0498    0.7352   -0.4005 C.ar      1 RES1    0.0000
      9 C2         1.5799   -0.5936   -0.5918 C.ar      1 RES1    0.0000
     10 C3         1.8333   -1.5973    0.3204 C.ar      1 RES1    0.0000
     11 C4         2.5298   -1.3084    1.4606 C.ar      1 RES1    0.0000
     12 C5         3.0094   -0.0261    1.6998 C.ar      1 RES1    0.0000
     13 C6         2.7761    0.9573    0.7976 C.ar      1 RES1    0.0000
     14 C7         2.3371    3.1085   -1.0824 C.3       1 RES1    0.0000
     15 C8         1.4668    3.9457   -0.1958 C.3       1 RES1    0.0000
     16 C9         2.0003    5.3595   -0.0534 C.3       1 RES1    0.0000
     17 H1         1.3985    1.5747   -1.9734 H         1 RES1    0.0000
     18 H2         1.5339   -2.4639    0.1602 H         1 RES1    0.0000
     19 H3         3.4876    0.1563    2.4763 H         1 RES1    0.0000
     20 H4         3.1052    1.8103    0.9700 H         1 RES1    0.0000
     21 H5         2.4017    3.5345   -1.9512 H         1 RES1    0.0000
     22 H6         3.2296    3.0757   -0.7031 H         1 RES1    0.0000
     23 H7         1.4129    3.5345    0.6808 H         1 RES1    0.0000
     24 H8         0.5708    3.9786   -0.5662 H         1 RES1    0.0000
     25 H9         2.8822    5.3312    0.3248 H         1 RES1    0.0000
     26 H10        1.4202    5.8636    0.5217 H         1 RES1    0.0000
     27 H11        2.0355    5.7764   -0.9178 H         1 RES1    0.0000
@<TRIPOS>BOND
     1    1    8 1
     2    2    4 2
     3    3    6 2
     4    5    2 2
     5    7    3 2
     6    8    9 ar
     7    9    2 1
     8   10    9 ar
     9   11    3 1
    10   12   11 ar
    11   13    8 ar
    12   14    1 1
    13   15   14 1
    14   16   15 1
    15   17    1 1
    16   18   10 1
    17   19   12 1
    18   20   13 1
    19   21   14 1
    20   22   14 1
    21   23   15 1
    22   24   15 1
    23   25   16 1
    24   26   16 1
    25   27   16 1
    26   10   11 ar
    27   12   13 ar
@<TRIPOS>SUBSTRUCTURE
     1 RES1 1

@<TRIPOS>CRYSIN
   8.2250   11.3285   11.2088  90.0000  97.0400  90.0000  14 1

