# MOL2 file generated by ConQuest
# Please check atom types

@<TRIPOS>MOLECULE
MICMEQ
    60    60     2
SMALL
NO_CHARGES
****
Generated from CSD

@<TRIPOS>ATOM
      1 N1         0.0973   25.0617    9.3722 N.3       1 RES1    0.0000
      2 N2         1.9987   24.3779    7.2403 N.pl3     1 RES1    0.0000
      3 N3         2.1524   29.0383    6.0482 N.pl3     1 RES1    0.0000
      4 N4        -5.3653   32.8964   13.8967 N.3       2 RES2    0.0000
      5 N5        -4.5936   33.8418   11.2318 N.pl3     2 RES2    0.0000
      6 N6        -1.9956   29.8158   10.6691 N.pl3     2 RES2    0.0000
      7 O1         2.8203   24.2125    6.3693 O.2       1 RES1    0.0000
      8 O2         1.5528   23.4449    7.9004 O.2       1 RES1    0.0000
      9 O3         2.9451   28.7248    5.1444 O.2       1 RES1    0.0000
     10 O4         1.7222   30.1713    6.1955 O.2       1 RES1    0.0000
     11 O5        -4.0276   34.2639   10.2421 O.2       2 RES2    0.0000
     12 O6        -5.4988   34.4589   11.7902 O.2       2 RES2    0.0000
     13 O7        -1.6073   30.2774    9.6180 O.2       2 RES2    0.0000
     14 O8        -1.6962   28.7026   11.1248 O.2       2 RES2    0.0000
     15 C1         0.6182   25.9923    8.5838 C.ar      1 RES1    0.0000
     16 C2         1.5349   25.7109    7.5221 C.ar      1 RES1    0.0000
     17 C3         2.0206   26.7032    6.7200 C.ar      1 RES1    0.0000
     18 C4         1.6330   28.0015    6.9128 C.ar      1 RES1    0.0000
     19 C5         0.7568   28.3298    7.9406 C.ar      1 RES1    0.0000
     20 C6         0.2957   27.3696    8.7491 C.ar      1 RES1    0.0000
     21 C7        -0.7650   25.3159   10.5303 C.3       1 RES1    0.0000
     22 C8         0.0173   25.6886   11.7584 C.3       1 RES1    0.0000
     23 C9        -0.8754   25.8985   12.9515 C.3       1 RES1    0.0000
     24 C10       -0.1117   26.2021   14.2114 C.3       1 RES1    0.0000
     25 C11       -4.6053   32.1781   13.0723 C.ar      2 RES2    0.0000
     26 C12       -4.1719   32.5878   11.8198 C.ar      2 RES2    0.0000
     27 C13       -3.3287   31.8251   11.0093 C.ar      2 RES2    0.0000
     28 C14       -2.9086   30.5933   11.5168 C.ar      2 RES2    0.0000
     29 C15       -3.3376   30.1392   12.7142 C.ar      2 RES2    0.0000
     30 C16       -4.1482   30.8994   13.5014 C.ar      2 RES2    0.0000
     31 C17       -5.7019   32.5631   15.2561 C.3       2 RES2    0.0000
     32 C18       -6.3276   33.7085   15.9798 C.3       2 RES2    0.0000
     33 C19       -6.6095   33.4123   17.4304 C.3       2 RES2    0.0000
     34 C20       -7.1779   34.6119   18.1499 C.3       2 RES2    0.0000
     35 H1         0.2809   24.2422    9.1889 H         1 RES1    0.0000
     36 H2        -5.6864   33.6320   13.5873 H         2 RES2    0.0000
     37 H3         2.6181   26.4933    6.0387 H         1 RES1    0.0000
     38 H4         0.4914   29.2110    8.0657 H         1 RES1    0.0000
     39 H5        -0.2615   27.6115    9.4538 H         1 RES1    0.0000
     40 H6        -1.2898   24.5211   10.7168 H         1 RES1    0.0000
     41 H7        -1.3802   26.0342   10.3163 H         1 RES1    0.0000
     42 H8         0.5164   26.5007   11.5857 H         1 RES1    0.0000
     43 H9         0.6539   24.9827   11.9565 H         1 RES1    0.0000
     44 H10       -1.4095   25.1012   13.0903 H         1 RES1    0.0000
     45 H11       -1.4817   26.6316   12.7661 H         1 RES1    0.0000
     46 H12        0.4363   26.9796   14.0747 H         1 RES1    0.0000
     47 H13        0.4481   25.4541   14.4349 H         1 RES1    0.0000
     48 H14       -0.7268   26.3674   14.9287 H         1 RES1    0.0000
     49 H15       -3.0591   32.1238   10.1711 H         2 RES2    0.0000
     50 H16       -3.0773   29.2950   13.0045 H         2 RES2    0.0000
     51 H17       -4.4069   30.5785   14.3353 H         2 RES2    0.0000
     52 H18       -4.8984   32.2891   15.7255 H         2 RES2    0.0000
     53 H19       -6.3169   31.8127   15.2572 H         2 RES2    0.0000
     54 H20       -7.1573   33.9430   15.5380 H         2 RES2    0.0000
     55 H21       -5.7346   34.4737   15.9237 H         2 RES2    0.0000
     56 H22       -7.2371   32.6742   17.4898 H         2 RES2    0.0000
     57 H23       -5.7868   33.1383   17.8659 H         2 RES2    0.0000
     58 H24       -7.8109   35.0562   17.5798 H         2 RES2    0.0000
     59 H25       -6.4691   35.2167   18.3745 H         2 RES2    0.0000
     60 H26       -7.6192   34.3231   18.9531 H         2 RES2    0.0000
@<TRIPOS>BOND
     1    1   15 1
     2    2    7 2
     3    3    9 2
     4    4   25 1
     5    5   11 2
     6    6   13 2
     7    8    2 2
     8   10    3 2
     9   12    5 2
    10   14    6 2
    11   15   16 ar
    12   16    2 1
    13   17   16 ar
    14   18    3 1
    15   19   18 ar
    16   20   15 ar
    17   21    1 1
    18   22   21 1
    19   23   22 1
    20   24   23 1
    21   25   26 ar
    22   26    5 1
    23   27   26 ar
    24   28    6 1
    25   29   28 ar
    26   30   25 ar
    27   31    4 1
    28   32   31 1
    29   33   32 1
    30   34   33 1
    31   35    1 1
    32   36    4 1
    33   37   17 1
    34   38   19 1
    35   39   20 1
    36   40   21 1
    37   41   21 1
    38   42   22 1
    39   43   22 1
    40   44   23 1
    41   45   23 1
    42   46   24 1
    43   47   24 1
    44   48   24 1
    45   49   27 1
    46   50   29 1
    47   51   30 1
    48   52   31 1
    49   53   31 1
    50   54   32 1
    51   55   32 1
    52   56   33 1
    53   57   33 1
    54   58   34 1
    55   59   34 1
    56   60   34 1
    57   17   18 ar
    58   19   20 ar
    59   27   28 ar
    60   29   30 ar
@<TRIPOS>SUBSTRUCTURE
     1 RES1 1
     2 RES2 4

@<TRIPOS>CRYSIN
   4.4110   24.6840   10.6240  90.0000  94.1600  90.0000   4 1

