# MOL2 file generated by ConQuest
# Please check atom types

@<TRIPOS>MOLECULE
MIFDOX
    82    88     2
SMALL
NO_CHARGES
****
Generated from CSD

@<TRIPOS>ATOM
      1 O1         6.5824   15.9512    4.6321 O.3       1 RES1    0.0000
      2 O2         6.9679   14.5869    6.4039 O.3       1 RES1    0.0000
      3 O3         3.6989   11.2079    5.3347 O.3       1 RES1    0.0000
      4 O4         1.9559   10.9871    3.9318 O.2       1 RES1    0.0000
      5 O5         2.8347    9.2549    5.1085 O.3       1 RES1    0.0000
      6 O6         0.2810    3.8693    3.2314 O.2       1 RES1    0.0000
      7 O7        -1.2209    5.2312    2.4818 O.2       1 RES1    0.0000
      8 N1        -0.1801    4.9982    3.0791 N.pl3     1 RES1    0.0000
      9 C1         3.7943   12.6286    4.9756 C.3       1 RES1    0.0000
     10 H1         2.8866   12.9650    4.7250 H         1 RES1    0.0000
     11 C2         4.7464   12.8717    3.8272 C.3       1 RES1    0.0000
     12 H2         4.3455   12.6060    2.9618 H         1 RES1    0.0000
     13 H3         5.5997   12.3861    3.9551 H         1 RES1    0.0000
     14 C3         4.9468   14.3869    3.9094 C.3       1 RES1    0.0000
     15 H4         4.2696   14.8500    3.3377 H         1 RES1    0.0000
     16 C4         6.3350   14.9458    3.6212 C.3       1 RES1    0.0000
     17 H5         7.0152   14.2281    3.6718 H         1 RES1    0.0000
     18 H6         6.3658   15.3483    2.7171 H         1 RES1    0.0000
     19 C5         6.0147   15.4577    5.8193 C.3       1 RES1    0.0000
     20 H7         5.8143   16.2132    6.4430 H         1 RES1    0.0000
     21 C6         6.3965   13.8360    7.4641 C.3       1 RES1    0.0000
     22 H8         5.8800   14.4337    8.0613 H         1 RES1    0.0000
     23 H9         7.1109   13.4051    7.9969 H         1 RES1    0.0000
     24 C7         5.4895   12.7875    6.8780 C.3       1 RES1    0.0000
     25 H10        5.1342   12.2119    7.6006 H         1 RES1    0.0000
     26 H11        6.0012   12.2166    6.2516 H         1 RES1    0.0000
     27 C8         4.3307   13.4570    6.1351 C.3       1 RES1    0.0000
     28 H12        3.5887   13.6446    6.7791 H         1 RES1    0.0000
     29 C9         4.7179   14.7597    5.4086 C.3       1 RES1    0.0000
     30 H13        3.9604   15.4094    5.4737 H         1 RES1    0.0000
     31 C10        2.7403   10.5486    4.7045 C.2       1 RES1    0.0000
     32 C11        2.0112    8.2588    4.5679 C.ar      1 RES1    0.0000
     33 C12        2.5174    6.9790    4.7038 C.ar      1 RES1    0.0000
     34 H14        3.3616    6.8439    5.1182 H         1 RES1    0.0000
     35 C13        1.8008    5.9027    4.2386 C.ar      1 RES1    0.0000
     36 H15        2.1384    5.0195    4.3307 H         1 RES1    0.0000
     37 C14        0.5735    6.1329    3.6331 C.ar      1 RES1    0.0000
     38 C15        0.0393    7.4127    3.5331 C.ar      1 RES1    0.0000
     39 H16       -0.8180    7.5396    3.1435 H         1 RES1    0.0000
     40 C16        0.7489    8.4953    3.9975 C.ar      1 RES1    0.0000
     41 H17        0.3973    9.3753    3.9336 H         1 RES1    0.0000
     42 O8         1.8703   -0.8308    5.9305 O.3       2 RES2    0.0000
     43 O9         1.7458    0.4709    7.7919 O.3       2 RES2    0.0000
     44 O10        4.2745    4.1778    6.1582 O.3       2 RES2    0.0000
     45 O11        6.3641    4.1190    6.9556 O.2       2 RES2    0.0000
     46 O12        5.1330    6.0049    6.8937 O.3       2 RES2    0.0000
     47 O13        8.4326   11.0838    8.3959 O.2       2 RES2    0.0000
     48 O14        9.6001    9.6078    9.4778 O.2       2 RES2    0.0000
     49 N2         8.6560    9.9240    8.7558 N.pl3     2 RES2    0.0000
     50 C17        4.3464    2.7408    5.8499 C.3       2 RES2    0.0000
     51 H18        5.2105    2.5419    5.3873 H         2 RES2    0.0000
     52 C18        3.1882    2.4121    4.9218 C.3       2 RES2    0.0000
     53 H19        3.3532    2.7477    4.0055 H         2 RES2    0.0000
     54 H20        2.3372    2.7893    5.2595 H         2 RES2    0.0000
     55 C19        3.1753    0.8792    4.9629 C.3       2 RES2    0.0000
     56 H21        3.7539    0.5084    4.2362 H         2 RES2    0.0000
     57 C20        1.8025    0.2094    4.9397 C.3       2 RES2    0.0000
     58 H22        1.0916    0.8607    5.1655 H         2 RES2    0.0000
     59 H23        1.6136   -0.1713    4.0456 H         2 RES2    0.0000
     60 C21        2.6186   -0.3085    7.0057 C.3       2 RES2    0.0000
     61 H24        2.9965   -1.0552    7.5533 H         2 RES2    0.0000
     62 C22        2.4538    1.2116    8.7670 C.3       2 RES2    0.0000
     63 H25        3.1023    0.6244    9.2309 H         2 RES2    0.0000
     64 H26        1.8235    1.5712    9.4405 H         2 RES2    0.0000
     65 C23        3.1954    2.3655    8.0771 C.3       2 RES2    0.0000
     66 H27        2.5424    2.9527    7.6196 H         2 RES2    0.0000
     67 H28        3.6729    2.9058    8.7552 H         2 RES2    0.0000
     68 C24        4.1928    1.8223    7.0609 C.3       2 RES2    0.0000
     69 H29        5.0824    1.6927    7.4997 H         2 RES2    0.0000
     70 C25        3.7533    0.4963    6.3643 C.3       2 RES2    0.0000
     71 H30        4.5509   -0.0947    6.2435 H         2 RES2    0.0000
     72 C26        5.3699    4.6834    6.7115 C.2       2 RES2    0.0000
     73 C27        6.0810    6.8900    7.3872 C.ar      2 RES2    0.0000
     74 C28        5.7053    8.2133    7.2647 C.ar      2 RES2    0.0000
     75 H31        4.8725    8.4342    6.8646 H         2 RES2    0.0000
     76 C29        6.5409    9.2187    7.7232 C.ar      2 RES2    0.0000
     77 H32        6.2864   10.1306    7.6425 H         2 RES2    0.0000
     78 C30        7.7488    8.8761    8.2988 C.ar      2 RES2    0.0000
     79 C31        8.1372    7.5351    8.4220 C.ar      2 RES2    0.0000
     80 H33        8.9759    7.3151    8.8107 H         2 RES2    0.0000
     81 C32        7.2946    6.5336    7.9755 C.ar      2 RES2    0.0000
     82 H34        7.5382    5.6197    8.0669 H         2 RES2    0.0000
@<TRIPOS>BOND
     1    1   16 1
     2    2   19 1
     3    3    9 1
     4    4   31 2
     5    5   31 1
     6    6    8 2
     7    7    8 2
     8    8   37 1
     9    9   10 1
    10   11    9 1
    11   12   11 1
    12   13   11 1
    13   14   11 1
    14   15   14 1
    15   16   14 1
    16   17   16 1
    17   18   16 1
    18   19    1 1
    19   20   19 1
    20   21    2 1
    21   22   21 1
    22   23   21 1
    23   24   21 1
    24   25   24 1
    25   26   24 1
    26   27    9 1
    27   28   27 1
    28   29   14 1
    29   30   29 1
    30   31    3 1
    31   32    5 1
    32   33   32 ar
    33   34   33 1
    34   35   33 ar
    35   36   35 1
    36   37   35 ar
    37   38   37 ar
    38   39   38 1
    39   40   32 ar
    40   41   40 1
    41   42   57 1
    42   43   60 1
    43   44   50 1
    44   45   72 2
    45   46   72 1
    46   47   49 2
    47   48   49 2
    48   49   78 1
    49   50   51 1
    50   52   50 1
    51   53   52 1
    52   54   52 1
    53   55   52 1
    54   56   55 1
    55   57   55 1
    56   58   57 1
    57   59   57 1
    58   60   42 1
    59   61   60 1
    60   62   43 1
    61   63   62 1
    62   64   62 1
    63   65   62 1
    64   66   65 1
    65   67   65 1
    66   68   50 1
    67   69   68 1
    68   70   55 1
    69   71   70 1
    70   72   44 1
    71   73   46 1
    72   74   73 ar
    73   75   74 1
    74   76   74 ar
    75   77   76 1
    76   78   76 ar
    77   79   78 ar
    78   80   79 1
    79   81   73 ar
    80   82   81 1
    81   19   29 1
    82   24   27 1
    83   27   29 1
    84   38   40 ar
    85   60   70 1
    86   65   68 1
    87   68   70 1
    88   79   81 ar
@<TRIPOS>SUBSTRUCTURE
     1 RES1 1
     2 RES2 42

@<TRIPOS>CRYSIN
   5.7759   34.7770    7.4665  90.0000  90.3840  90.0000   4 1

