# MOL2 file generated by ConQuest
# Please check atom types

@<TRIPOS>MOLECULE
MIFKAQ
    60    65     1
SMALL
NO_CHARGES
****
Generated from CSD

@<TRIPOS>ATOM
      1 O1         0.8531    3.2803    2.9700 O.3       1 RES1    0.0000
      2 O2        -3.2601    1.9438   -1.4945 O.2       1 RES1    0.0000
      3 O3        -1.5120    1.0006   -2.3253 O.2       1 RES1    0.0000
      4 N1         2.5659    2.6367    4.4235 N.3       1 RES1    0.0000
      5 N2        -2.0724    1.6565   -1.4582 N.pl3     1 RES1    0.0000
      6 N3         2.1764   10.0050    3.4262 N.ar      1 RES1    0.0000
      7 N4         3.2142    0.1342    9.0670 N.ar      1 RES1    0.0000
      8 C1         2.3193    3.1821    3.0977 C.3       1 RES1    0.0000
      9 C2         2.8425    4.6435    3.1759 C.3       1 RES1    0.0000
     10 C3         2.5667    4.9421    4.6437 C.ar      1 RES1    0.0000
     11 C4         2.3657    6.1378    5.3221 C.ar      1 RES1    0.0000
     12 C5         2.1503    6.0787    6.7075 C.ar      1 RES1    0.0000
     13 H1         1.9437    6.8747    7.1833 H         1 RES1    0.0000
     14 C6         2.2336    4.8823    7.3890 C.ar      1 RES1    0.0000
     15 H2         2.1383    4.8833    8.3342 H         1 RES1    0.0000
     16 C7         2.4549    3.6660    6.7304 C.ar      1 RES1    0.0000
     17 C8         2.5241    3.7199    5.3311 C.ar      1 RES1    0.0000
     18 C9         2.1465    5.5291    2.1414 C.3       1 RES1    0.0000
     19 H3         2.1834    5.0962    1.2629 H         1 RES1    0.0000
     20 H4         2.5993    6.3972    2.0969 H         1 RES1    0.0000
     21 H5         1.2109    5.6616    2.4012 H         1 RES1    0.0000
     22 C10        4.3679    4.6555    2.9374 C.3       1 RES1    0.0000
     23 H6         4.7952    3.9942    3.5209 H         1 RES1    0.0000
     24 H7         4.7232    5.5465    3.1387 H         1 RES1    0.0000
     25 H8         4.5541    4.4337    2.0012 H         1 RES1    0.0000
     26 C11        1.8587    1.3840    4.7263 C.3       1 RES1    0.0000
     27 H9         0.9842    1.5891    5.1184 H         1 RES1    0.0000
     28 H10        2.3860    0.8564    5.3618 H         1 RES1    0.0000
     29 H11        1.7341    0.8713    3.9004 H         1 RES1    0.0000
     30 C12        2.9214    2.3340    2.0242 C.2       1 RES1    0.0000
     31 H12        3.8413    2.1061    2.0928 H         1 RES1    0.0000
     32 C13        2.2370    1.8826    0.9787 C.2       1 RES1    0.0000
     33 H13        2.6770    1.3550    0.3228 H         1 RES1    0.0000
     34 C14        0.8227    2.1846    0.8247 C.ar      1 RES1    0.0000
     35 C15        0.0613    1.7723   -0.2599 C.ar      1 RES1    0.0000
     36 H14        0.4578    1.2648   -0.9584 H         1 RES1    0.0000
     37 C16       -1.2786    2.1065   -0.3152 C.ar      1 RES1    0.0000
     38 C17       -1.8951    2.8395    0.6788 C.ar      1 RES1    0.0000
     39 H15       -2.8158    3.0625    0.6132 H         1 RES1    0.0000
     40 C18       -1.1515    3.2440    1.7707 C.ar      1 RES1    0.0000
     41 H16       -1.5587    3.7478    2.4652 H         1 RES1    0.0000
     42 C19        0.1919    2.9116    1.8481 C.ar      1 RES1    0.0000
     43 C20        2.3290    7.4754    4.6587 C.ar      1 RES1    0.0000
     44 C21        3.4392    8.0488    4.0401 C.ar      1 RES1    0.0000
     45 H17        4.2741    7.5959    4.0325 H         1 RES1    0.0000
     46 C22        3.3059    9.2872    3.4377 C.ar      1 RES1    0.0000
     47 H18        4.0678    9.6526    3.0031 H         1 RES1    0.0000
     48 C23        1.1393    9.4562    4.0585 C.ar      1 RES1    0.0000
     49 H19        0.3260    9.9477    4.0832 H         1 RES1    0.0000
     50 C24        1.1643    8.2238    4.6798 C.ar      1 RES1    0.0000
     51 H20        0.3893    7.8920    5.1179 H         1 RES1    0.0000
     52 C25        2.6923    2.4402    7.5335 C.ar      1 RES1    0.0000
     53 C26        3.7654    1.5997    7.2461 C.ar      1 RES1    0.0000
     54 H21        4.3519    1.7984    6.5257 H         1 RES1    0.0000
     55 C27        3.9656    0.4756    8.0196 C.ar      1 RES1    0.0000
     56 H22        4.6900   -0.0952    7.7906 H         1 RES1    0.0000
     57 C28        2.2117    0.9699    9.3601 C.ar      1 RES1    0.0000
     58 H23        1.6730    0.7697   10.1163 H         1 RES1    0.0000
     59 C29        1.9094    2.1074    8.6329 C.ar      1 RES1    0.0000
     60 H24        1.1743    2.6552    8.8823 H         1 RES1    0.0000
@<TRIPOS>BOND
     1    1    8 1
     2    2    5 2
     3    3    5 2
     4    4    8 1
     5    5   37 1
     6    6   46 ar
     7    7   55 ar
     8    8    9 1
     9    9   10 1
    10   10   11 ar
    11   11   12 ar
    12   12   13 1
    13   14   12 ar
    14   15   14 1
    15   16   14 ar
    16   17    4 1
    17   18    9 1
    18   19   18 1
    19   20   18 1
    20   21   18 1
    21   22    9 1
    22   23   22 1
    23   24   22 1
    24   25   22 1
    25   26    4 1
    26   27   26 1
    27   28   26 1
    28   29   26 1
    29   30    8 1
    30   31   30 1
    31   32   30 2
    32   33   32 1
    33   34   32 1
    34   35   34 ar
    35   36   35 1
    36   37   35 ar
    37   38   37 ar
    38   39   38 1
    39   40   38 ar
    40   41   40 1
    41   42    1 1
    42   43   11 1
    43   44   43 ar
    44   45   44 1
    45   46   44 ar
    46   47   46 1
    47   48    6 ar
    48   49   48 1
    49   50   43 ar
    50   51   50 1
    51   52   16 1
    52   53   52 ar
    53   54   53 1
    54   55   53 ar
    55   56   55 1
    56   57    7 ar
    57   58   57 1
    58   59   52 ar
    59   60   59 1
    60   10   17 ar
    61   16   17 ar
    62   34   42 ar
    63   40   42 ar
    64   48   50 ar
    65   57   59 ar
@<TRIPOS>SUBSTRUCTURE
     1 RES1 1

@<TRIPOS>CRYSIN
   8.9034   10.0040   15.0137  92.4060 105.7170 113.9040   2 1

