# MOL2 file generated by ConQuest
# Please check atom types

@<TRIPOS>MOLECULE
MIFLEV
   100   109     1
SMALL
NO_CHARGES
****
Generated from CSD

@<TRIPOS>ATOM
      1 O1        11.1936    3.5161    6.3203 O.3       1 RES1    0.0000
      2 O2         8.6948    0.8235    1.2802 O.2       1 RES1    0.0000
      3 O3         6.9028    1.4074    2.3519 O.2       1 RES1    0.0000
      4 O4         6.9662    1.0963    9.1018 O.3       1 RES1    0.0000
      5 O5         2.9635    3.1001    4.7757 O.2       1 RES1    0.0000
      6 O6         4.1844    1.8079    3.5849 O.2       1 RES1    0.0000
      7 N1        11.9258    2.1792    8.1246 N.3       1 RES1    0.0000
      8 N2         8.1263    1.3382    2.2375 N.pl3     1 RES1    0.0000
      9 N3         8.0868    2.6076   10.5236 N.3       1 RES1    0.0000
     10 N4         3.9065    2.3458    4.6380 N.pl3     1 RES1    0.0000
     11 N5        15.1680    8.8677    8.8610 N.ar      1 RES1    0.0000
     12 N6         7.8254   -3.9260   14.0117 N.ar      1 RES1    0.0000
     13 C1        12.3603    2.8309    6.9065 C.3       1 RES1    0.0000
     14 C2        13.2907    3.9796    7.4062 C.3       1 RES1    0.0000
     15 C3        12.6453    4.2766    8.7546 C.ar      1 RES1    0.0000
     16 C4        12.7266    5.3905    9.5772 C.ar      1 RES1    0.0000
     17 C5        11.9743    5.3949   10.7580 C.ar      1 RES1    0.0000
     18 H1        11.9643    6.1702   11.3069 H         1 RES1    0.0000
     19 C6        11.2474    4.2839   11.1317 C.ar      1 RES1    0.0000
     20 H2        10.7658    4.3066   11.9502 H         1 RES1    0.0000
     21 C7        11.1929    3.1266   10.3514 C.ar      1 RES1    0.0000
     22 C8        11.8729    3.1678    9.1355 C.ar      1 RES1    0.0000
     23 C9        13.3306    5.1523    6.4234 C.3       1 RES1    0.0000
     24 H3        12.4488    5.5780    6.3867 H         1 RES1    0.0000
     25 H4        13.5721    4.8235    5.5323 H         1 RES1    0.0000
     26 H5        13.9969    5.8061    6.7219 H         1 RES1    0.0000
     27 C10       14.7154    3.4381    7.6292 C.3       1 RES1    0.0000
     28 H6        15.1269    3.2348    6.7634 H         1 RES1    0.0000
     29 H7        14.6738    2.6224    8.1708 H         1 RES1    0.0000
     30 H8        15.2520    4.1127    8.0955 H         1 RES1    0.0000
     31 C11       10.8845    1.1617    7.9823 C.3       1 RES1    0.0000
     32 H9        11.0628    0.6211    7.1846 H         1 RES1    0.0000
     33 H10       10.0116    1.5980    7.8929 H         1 RES1    0.0000
     34 H11       10.8816    0.5845    8.7743 H         1 RES1    0.0000
     35 C12       12.9575    1.8531    5.9423 C.2       1 RES1    0.0000
     36 H12       13.8346    1.5289    6.1102 H         1 RES1    0.0000
     37 C13       12.3169    1.4187    4.8627 C.2       1 RES1    0.0000
     38 H13       12.7330    0.7826    4.2930 H         1 RES1    0.0000
     39 C14       10.9905    1.9053    4.5460 C.ar      1 RES1    0.0000
     40 C15       10.2166    1.3989    3.5061 C.ar      1 RES1    0.0000
     41 H14       10.5612    0.7217    2.9358 H         1 RES1    0.0000
     42 C16        8.9426    1.8929    3.3137 C.ar      1 RES1    0.0000
     43 C17        8.4117    2.9024    4.1055 C.ar      1 RES1    0.0000
     44 H15        7.5285    3.2195    3.9571 H         1 RES1    0.0000
     45 C18        9.1916    3.4374    5.1134 C.ar      1 RES1    0.0000
     46 H16        8.8563    4.1457    5.6506 H         1 RES1    0.0000
     47 C19       10.4643    2.9369    5.3376 C.ar      1 RES1    0.0000
     48 C20        6.8820    1.8207   10.4015 C.3       1 RES1    0.0000
     49 C21        7.0441    0.7203   11.4934 C.3       1 RES1    0.0000
     50 C22        8.5592    0.5758   11.5031 C.ar      1 RES1    0.0000
     51 C23        9.3559   -0.4287   12.0213 C.ar      1 RES1    0.0000
     52 C24       10.7449   -0.2623   11.9457 C.ar      1 RES1    0.0000
     53 H17       11.3187   -0.9428   12.2776 H         1 RES1    0.0000
     54 C25       11.2873    0.8777   11.3952 C.ar      1 RES1    0.0000
     55 H18       12.2328    0.9627   11.3599 H         1 RES1    0.0000
     56 C26       10.4981    1.9171   10.8851 C.ar      1 RES1    0.0000
     57 C27        9.1173    1.7364   10.9487 C.ar      1 RES1    0.0000
     58 C28        6.6052    1.2683   12.8671 C.3       1 RES1    0.0000
     59 H19        5.6325    1.3870   12.8759 H         1 RES1    0.0000
     60 H20        7.0410    2.1311   13.0291 H         1 RES1    0.0000
     61 H21        6.8635    0.6352   13.5691 H         1 RES1    0.0000
     62 C29        6.2250   -0.5221   11.1531 C.3       1 RES1    0.0000
     63 H22        6.6399   -0.9906   10.3990 H         1 RES1    0.0000
     64 H23        5.3135   -0.2560   10.9107 H         1 RES1    0.0000
     65 H24        6.1956   -1.1171   11.9312 H         1 RES1    0.0000
     66 C30        8.2875    3.6538    9.5245 C.3       1 RES1    0.0000
     67 H25        7.4413    4.1230    9.3682 H         1 RES1    0.0000
     68 H26        8.5968    3.2504    8.6866 H         1 RES1    0.0000
     69 H27        8.9589    4.2902    9.8479 H         1 RES1    0.0000
     70 C31        5.6287    2.6281   10.5012 C.2       1 RES1    0.0000
     71 H28        5.4246    3.0448   11.3303 H         1 RES1    0.0000
     72 C32        4.7847    2.7920    9.4864 C.2       1 RES1    0.0000
     73 H29        3.9699    3.2599    9.6267 H         1 RES1    0.0000
     74 C33        5.0890    2.2681    8.1715 C.ar      1 RES1    0.0000
     75 C34        4.3346    2.5555    7.0390 C.ar      1 RES1    0.0000
     76 H30        3.5564    3.0960    7.1067 H         1 RES1    0.0000
     77 C35        4.7250    2.0497    5.8170 C.ar      1 RES1    0.0000
     78 C36        5.8570    1.2650    5.6687 C.ar      1 RES1    0.0000
     79 H31        6.1067    0.9327    4.8143 H         1 RES1    0.0000
     80 C37        6.6181    0.9738    6.7890 C.ar      1 RES1    0.0000
     81 H32        7.4026    0.4439    6.7085 H         1 RES1    0.0000
     82 C38        6.2277    1.4616    8.0338 C.ar      1 RES1    0.0000
     83 C39       13.5788    6.5884    9.2950 C.ar      1 RES1    0.0000
     84 C40       14.9603    6.5529    9.4662 C.ar      1 RES1    0.0000
     85 H33       15.3926    5.7488    9.7288 H         1 RES1    0.0000
     86 C41       15.6949    7.7064    9.2485 C.ar      1 RES1    0.0000
     87 H34       16.6342    7.6676    9.3842 H         1 RES1    0.0000
     88 C42       13.8393    8.8902    8.7216 C.ar      1 RES1    0.0000
     89 H35       13.4322    9.7081    8.4611 H         1 RES1    0.0000
     90 C43       13.0189    7.7946    8.9337 C.ar      1 RES1    0.0000
     91 H36       12.0777    7.8741    8.8311 H         1 RES1    0.0000
     92 C44        8.8156   -1.6513   12.6944 C.ar      1 RES1    0.0000
     93 C45        8.4961   -2.8041   11.9987 C.ar      1 RES1    0.0000
     94 H37        8.6114   -2.8428   11.0566 H         1 RES1    0.0000
     95 C46        8.0076   -3.8993   12.6869 C.ar      1 RES1    0.0000
     96 H38        7.7886   -4.6786   12.1897 H         1 RES1    0.0000
     97 C47        8.1452   -2.8142   14.6701 C.ar      1 RES1    0.0000
     98 H39        8.0239   -2.8062   15.6122 H         1 RES1    0.0000
     99 C48        8.6426   -1.6691   14.0726 C.ar      1 RES1    0.0000
    100 H40        8.8622   -0.9077   14.5966 H         1 RES1    0.0000
@<TRIPOS>BOND
     1    1   13 1
     2    2    8 2
     3    3    8 2
     4    4   48 1
     5    5   10 2
     6    6   10 2
     7    7   13 1
     8    8   42 1
     9    9   48 1
    10   10   77 1
    11   11   86 ar
    12   12   95 ar
    13   13   14 1
    14   14   15 1
    15   15   16 ar
    16   16   17 ar
    17   17   18 1
    18   19   17 ar
    19   20   19 1
    20   21   19 ar
    21   22    7 1
    22   23   14 1
    23   24   23 1
    24   25   23 1
    25   26   23 1
    26   27   14 1
    27   28   27 1
    28   29   27 1
    29   30   27 1
    30   31    7 1
    31   32   31 1
    32   33   31 1
    33   34   31 1
    34   35   13 1
    35   36   35 1
    36   37   35 2
    37   38   37 1
    38   39   37 1
    39   40   39 ar
    40   41   40 1
    41   42   40 ar
    42   43   42 ar
    43   44   43 1
    44   45   43 ar
    45   46   45 1
    46   47    1 1
    47   48   49 1
    48   49   50 1
    49   50   51 ar
    50   51   52 ar
    51   52   53 1
    52   54   52 ar
    53   55   54 1
    54   56   21 1
    55   57    9 1
    56   58   49 1
    57   59   58 1
    58   60   58 1
    59   61   58 1
    60   62   49 1
    61   63   62 1
    62   64   62 1
    63   65   62 1
    64   66    9 1
    65   67   66 1
    66   68   66 1
    67   69   66 1
    68   70   48 1
    69   71   70 1
    70   72   70 2
    71   73   72 1
    72   74   72 1
    73   75   74 ar
    74   76   75 1
    75   77   75 ar
    76   78   77 ar
    77   79   78 1
    78   80   78 ar
    79   81   80 1
    80   82    4 1
    81   83   16 1
    82   84   83 ar
    83   85   84 1
    84   86   84 ar
    85   87   86 1
    86   88   11 ar
    87   89   88 1
    88   90   83 ar
    89   91   90 1
    90   92   51 1
    91   93   92 ar
    92   94   93 1
    93   95   93 ar
    94   96   95 1
    95   97   12 ar
    96   98   97 1
    97   99   92 ar
    98  100   99 1
    99   15   22 ar
   100   21   22 ar
   101   39   47 ar
   102   45   47 ar
   103   50   57 ar
   104   54   56 ar
   105   56   57 ar
   106   74   82 ar
   107   80   82 ar
   108   88   90 ar
   109   97   99 ar
@<TRIPOS>SUBSTRUCTURE
     1 RES1 1

@<TRIPOS>CRYSIN
  17.2113    9.6042   25.5421  90.0000 109.4660  90.0000  14 1

