# MOL2 file generated by ConQuest
# Please check atom types

@<TRIPOS>MOLECULE
MIFMIA
   156   114     3
SMALL
NO_CHARGES
****
Generated from CSD

@<TRIPOS>ATOM
      1 C1         1.8061    7.2302    6.5762 C.2       1 RES1    0.0000
      2 C2         1.1153    5.9076    6.5875 C.ar      1 RES1    0.0000
      3 C3         0.0916    5.6514    7.5154 C.ar      1 RES1    0.0000
      4 H1        -0.1664    6.3354    8.1228 H         1 RES1    0.0000
      5 C4        -0.5475    4.4304    7.5636 C.ar      1 RES1    0.0000
      6 H2        -1.2389    4.2784    8.1976 H         1 RES1    0.0000
      7 C5        -0.1753    3.4196    6.6791 C.ar      1 RES1    0.0000
      8 H3        -0.6144    2.5771    6.7070 H         1 RES1    0.0000
      9 C6         0.8376    3.6448    5.7563 C.ar      1 RES1    0.0000
     10 H4         1.0965    2.9537    5.1584 H         1 RES1    0.0000
     11 C7         1.4753    4.8800    5.7049 C.ar      1 RES1    0.0000
     12 H5         2.1620    5.0292    5.0652 H         1 RES1    0.0000
     13 C8         2.6732    7.6151    5.4009 C.3       1 RES1    0.0000
     14 H6         2.5363    8.5420    5.1938 H         1 RES1    0.0000
     15 H7         2.4193    7.0968    4.6333 H         1 RES1    0.0000
     16 C9         4.1694    7.3727    5.7117 C.3       1 RES1    0.0000
     17 H8         4.3873    7.8090    6.5729 H         1 RES1    0.0000
     18 H9         4.3150    6.4001    5.8242 H         1 RES1    0.0000
     19 C10        5.1412    7.8904    4.6434 C.3       1 RES1    0.0000
     20 H10        4.9503    8.8571    4.4743 H         1 RES1    0.0000
     21 C11        5.0567    7.1353    3.3283 C.3       1 RES1    0.0000
     22 H11        4.1462    6.9052    2.9847 H         1 RES1    0.0000
     23 C12        5.9877    8.1649    2.4147 C.3       1 RES1    0.0000
     24 H12        5.7824    8.0711    1.4510 H         1 RES1    0.0000
     25 H13        5.8490    9.1068    2.6855 H         1 RES1    0.0000
     26 C13        7.4221    7.7060    2.7225 C.3       1 RES1    0.0000
     27 H14        8.0078    8.4768    2.9277 H         1 RES1    0.0000
     28 H15        7.8061    7.2001    1.9630 H         1 RES1    0.0000
     29 C14        7.2409    6.7935    3.9669 C.3       1 RES1    0.0000
     30 H16        8.0469    6.2653    4.2317 H         1 RES1    0.0000
     31 C15        6.6732    7.7319    5.0615 C.3       1 RES1    0.0000
     32 H17        7.1363    8.6065    5.0579 H         1 RES1    0.0000
     33 H18        6.7576    7.3242    5.9598 H         1 RES1    0.0000
     34 C16        6.0372    5.9797    3.5702 C.3       1 RES1    0.0000
     35 H19        5.7359    5.3812    4.2980 H         1 RES1    0.0000
     36 H20        6.1995    5.4520    2.7481 H         1 RES1    0.0000
     37 C17        2.0727    9.9953    8.7221 C.ar      1 RES1    0.0000
     38 C18        2.7703   11.2242    8.8735 C.ar      1 RES1    0.0000
     39 C19        2.5338   12.0742    9.9479 C.ar      1 RES1    0.0000
     40 H21        3.0136   12.8893   10.0313 H         1 RES1    0.0000
     41 C20        1.5984   11.7182   10.8871 C.ar      1 RES1    0.0000
     42 C21        0.8805   10.5109   10.7788 C.ar      1 RES1    0.0000
     43 H22        0.2396   10.2738   11.4391 H         1 RES1    0.0000
     44 C22        1.1129    9.6853    9.7170 C.ar      1 RES1    0.0000
     45 H23        0.6159    8.8787    9.6428 H         1 RES1    0.0000
     46 N1         1.6237    7.9453    7.6384 N.2       1 RES1    0.0000
     47 N2         2.2936    9.1486    7.6858 N.pl3     1 RES1    0.0000
     48 H24        2.8603    9.3660    7.0487 H         1 RES1    0.0000
     49 N3         3.7825   11.6589    7.9251 N.pl3     1 RES1    0.0000
     50 N4         1.3688   12.5953   12.0255 N.pl3     1 RES1    0.0000
     51 O1         4.0435   10.9406    6.9462 O.2       1 RES1    0.0000
     52 O2         4.3578   12.7284    8.1246 O.2       1 RES1    0.0000
     53 O3         1.9398   13.6865   12.0541 O.2       1 RES1    0.0000
     54 O4         0.6078   12.2047   12.9134 O.2       1 RES1    0.0000
     55 H25        2.8562    8.5566    5.4315 Du        3 SUP3    0.0000
     56 H26        2.2044    7.4277    4.5843 Du        3 SUP3    0.0000
     57 C23        4.0701    6.7883    5.4187 Du        3 SUP3    0.0000
     58 H27        4.5633    7.0251    6.2437 Du        3 SUP3    0.0000
     59 H28        3.8609    5.8213    5.4651 Du        3 SUP3    0.0000
     60 C24        4.9782    7.0242    4.2336 Du        3 SUP3    0.0000
     61 H29        4.4772    6.7938    3.3990 Du        3 SUP3    0.0000
     62 C25        6.2876    6.1796    4.2714 Du        3 SUP3    0.0000
     63 H30        6.3456    5.3783    4.8669 Du        3 SUP3    0.0000
     64 C26        6.1268    5.9827    2.6188 Du        3 SUP3    0.0000
     65 H31        6.6538    5.2079    2.2984 Du        3 SUP3    0.0000
     66 H32        5.1785    5.8570    2.3638 Du        3 SUP3    0.0000
     67 C27        6.6792    7.3015    2.0592 Du        3 SUP3    0.0000
     68 H33        7.5309    7.1398    1.5753 Du        3 SUP3    0.0000
     69 H34        6.0343    7.7091    1.4316 Du        3 SUP3    0.0000
     70 C28        6.9204    8.2291    3.2558 Du        3 SUP3    0.0000
     71 H35        7.5065    9.0237    3.1006 Du        3 SUP3    0.0000
     72 C29        5.5994    8.4739    4.0607 Du        3 SUP3    0.0000
     73 H36        4.9839    9.0649    3.5584 Du        3 SUP3    0.0000
     74 H37        5.7918    8.8833    4.9409 Du        3 SUP3    0.0000
     75 C30        7.4282    7.1846    4.2402 Du        3 SUP3    0.0000
     76 H38        8.2662    6.7670    3.9188 Du        3 SUP3    0.0000
     77 H39        7.5841    7.5805    5.1341 Du        3 SUP3    0.0000
     78 C31        5.1235   15.4730   16.7055 C.ar      2 RES2    0.0000
     79 C32        5.9742   16.4525   16.1936 C.ar      2 RES2    0.0000
     80 H40        6.2119   16.4331   15.2744 H         2 RES2    0.0000
     81 C33        6.4762   17.4504   17.0034 C.ar      2 RES2    0.0000
     82 H41        7.0509   18.1101   16.6344 H         2 RES2    0.0000
     83 C34        6.1500   17.5006   18.3564 C.ar      2 RES2    0.0000
     84 H42        6.4983   18.1870   18.9127 H         2 RES2    0.0000
     85 C35        5.3023   16.5221   18.8766 C.ar      2 RES2    0.0000
     86 H43        5.0757   16.5393   19.7997 H         2 RES2    0.0000
     87 C36        4.7903   15.5353   18.0684 C.ar      2 RES2    0.0000
     88 H44        4.2027   14.8857   18.4364 H         2 RES2    0.0000
     89 C37        4.4557   14.4859   15.8495 C.2       2 RES2    0.0000
     90 C38        4.4849   14.6309   14.3418 C.3       2 RES2    0.0000
     91 H45        4.5647   15.5934   14.1255 H         2 RES2    0.0000
     92 H46        3.6165   14.3182   13.9843 H         2 RES2    0.0000
     93 C39        5.6161   13.8712   13.6011 C.3       2 RES2    0.0000
     94 H47        5.5280   12.8990   13.7645 H         2 RES2    0.0000
     95 H48        6.4967   14.1641   13.9474 H         2 RES2    0.0000
     96 C40        5.5286   14.1663   12.0291 C.3       2 RES2    0.0000
     97 H49        4.5746   14.1396   11.7291 H         2 RES2    0.0000
     98 C41        6.1075   15.5308   11.7740 C.3       2 RES2    0.0000
     99 H50        5.8654   16.2444   12.4319 H         2 RES2    0.0000
    100 C42        7.6216   15.1904   11.6538 C.3       2 RES2    0.0000
    101 H51        8.1677   15.9633   11.3654 H         2 RES2    0.0000
    102 H52        7.9939   14.7976   12.4835 H         2 RES2    0.0000
    103 C43        7.4241   14.1522   10.5428 C.3       2 RES2    0.0000
    104 H53        8.2592   13.7059   10.2203 H         2 RES2    0.0000
    105 C44        6.6786   15.0176    9.4811 C.3       2 RES2    0.0000
    106 H54        7.3056   15.6337    9.0269 H         2 RES2    0.0000
    107 H55        6.2464   14.4419    8.8006 H         2 RES2    0.0000
    108 C45        5.6545   15.7797   10.2564 C.3       2 RES2    0.0000
    109 H56        4.7440   15.4274   10.0921 H         2 RES2    0.0000
    110 H57        5.6762   16.7428   10.0292 H         2 RES2    0.0000
    111 C46        6.3835   13.2250   11.1518 C.3       2 RES2    0.0000
    112 H58        6.8119   12.5206   11.6989 H         2 RES2    0.0000
    113 H59        5.8333   12.7975   10.4480 H         2 RES2    0.0000
    114 C47        2.7244   11.4445   16.1299 C.ar      2 RES2    0.0000
    115 C48        2.2939   10.3372   15.3557 C.ar      2 RES2    0.0000
    116 C49        1.5196    9.3199   15.8973 C.ar      2 RES2    0.0000
    117 H60        1.2469    8.5835   15.3629 H         2 RES2    0.0000
    118 C50        1.1535    9.3967   17.2227 C.ar      2 RES2    0.0000
    119 C51        1.5749   10.4645   18.0318 C.ar      2 RES2    0.0000
    120 H61        1.3323   10.4880   18.9501 H         2 RES2    0.0000
    121 C52        2.3351   11.4716   17.4985 C.ar      2 RES2    0.0000
    122 H62        2.6052   12.1967   18.0490 H         2 RES2    0.0000
    123 N5         3.9434   13.4615   16.4189 N.2       2 RES2    0.0000
    124 N6         3.4717   12.4481   15.6119 N.pl3     2 RES2    0.0000
    125 H63        3.6576   12.4532   14.7518 H         2 RES2    0.0000
    126 N7         2.6931   10.1561   13.9652 N.pl3     2 RES2    0.0000
    127 N8         0.3259    8.3365   17.7810 N.pl3     2 RES2    0.0000
    128 O5         3.3768   11.0409   13.4218 O.2       2 RES2    0.0000
    129 O6         2.3509    9.1361   13.3688 O.2       2 RES2    0.0000
    130 O7         0.0416    7.3727   17.0704 O.2       2 RES2    0.0000
    131 O8        -0.0509    8.4633   18.9515 O.2       2 RES2    0.0000
    132 C53        4.8794   14.1914   15.8430 Du        3 SUP3    0.0000
    133 C54        5.6008   14.0198   14.5113 Du        3 SUP3    0.0000
    134 H64        5.6765   13.0549   14.3067 Du        3 SUP3    0.0000
    135 H65        6.5174   14.3859   14.5919 Du        3 SUP3    0.0000
    136 C55        4.8773   14.7268   13.3509 Du        3 SUP3    0.0000
    137 H66        4.9848   15.7033   13.4708 Du        3 SUP3    0.0000
    138 H67        3.9107   14.5260   13.4242 Du        3 SUP3    0.0000
    139 C56        5.3497   14.3552   11.8612 Du        3 SUP3    0.0000
    140 H68        5.0451   13.4319   11.6244 Du        3 SUP3    0.0000
    141 C57        6.8495   14.4509   11.7411 Du        3 SUP3    0.0000
    142 H69        7.3828   14.0669   12.4955 Du        3 SUP3    0.0000
    143 C58        7.0278   15.9714   11.4678 Du        3 SUP3    0.0000
    144 H70        6.7387   16.5328   12.2308 Du        3 SUP3    0.0000
    145 H71        7.9533   16.2060   11.2047 Du        3 SUP3    0.0000
    146 C59        6.0435   16.0270   10.2843 Du        3 SUP3    0.0000
    147 H72        5.9099   16.9273    9.8717 Du        3 SUP3    0.0000
    148 C60        6.7006   14.9481    9.3659 Du        3 SUP3    0.0000
    149 H73        6.0456   14.5982    8.7110 Du        3 SUP3    0.0000
    150 H74        7.4717   15.3280    8.8745 Du        3 SUP3    0.0000
    151 C61        7.1458   13.8686   10.2975 Du        3 SUP3    0.0000
    152 H75        8.1114   13.6808   10.1848 Du        3 SUP3    0.0000
    153 H76        6.6359   13.0350   10.1420 Du        3 SUP3    0.0000
    154 C62        4.7923   15.3660   10.8522 Du        3 SUP3    0.0000
    155 H77        4.2762   14.9116   10.1405 Du        3 SUP3    0.0000
    156 H78        4.2108   16.0307   11.2993 Du        3 SUP3    0.0000
@<TRIPOS>BOND
     1    1    2 1
     2    2    3 ar
     3    3    4 1
     4    5    3 ar
     5    6    5 1
     6    7    5 ar
     7    8    7 1
     8    9    7 ar
     9   10    9 1
    10   11    2 ar
    11   12   11 1
    12   13    1 1
    13   14   13 1
    14   15   13 1
    15   16   13 1
    16   17   16 1
    17   18   16 1
    18   19   16 1
    19   20   19 1
    20   21   19 1
    21   22   21 1
    22   23   21 1
    23   24   23 1
    24   25   23 1
    25   26   23 1
    26   27   26 1
    27   28   26 1
    28   29   26 1
    29   30   29 1
    30   31   19 1
    31   32   31 1
    32   33   31 1
    33   34   21 1
    34   35   34 1
    35   36   34 1
    36   37   38 ar
    37   38   39 ar
    38   39   40 1
    39   41   39 ar
    40   42   41 ar
    41   43   42 1
    42   44   37 ar
    43   45   44 1
    44   46    1 2
    45   47   37 1
    46   48   47 1
    47   49   38 1
    48   50   41 1
    49   51   49 2
    50   52   49 2
    51   53   50 2
    52   54   50 2
    53   78   79 ar
    54   79   80 1
    55   81   79 ar
    56   82   81 1
    57   83   81 ar
    58   84   83 1
    59   85   83 ar
    60   86   85 1
    61   87   78 ar
    62   88   87 1
    63   89   78 1
    64   90   89 1
    65   91   90 1
    66   92   90 1
    67   93   90 1
    68   94   93 1
    69   95   93 1
    70   96   93 1
    71   97   96 1
    72   98   96 1
    73   99   98 1
    74  100   98 1
    75  101  100 1
    76  102  100 1
    77  103  100 1
    78  104  103 1
    79  105  103 1
    80  106  105 1
    81  107  105 1
    82  108   98 1
    83  109  108 1
    84  110  108 1
    85  111   96 1
    86  112  111 1
    87  113  111 1
    88  114  115 ar
    89  115  116 ar
    90  116  117 1
    91  118  116 ar
    92  119  118 ar
    93  120  119 1
    94  121  114 ar
    95  122  121 1
    96  123   89 2
    97  124  114 1
    98  125  124 1
    99  126  115 1
   100  127  118 1
   101  128  126 2
   102  129  126 2
   103  130  127 2
   104  131  127 2
   105    9   11 ar
   106   29   31 1
   107   29   34 1
   108   42   44 ar
   109   46   47 1
   110   85   87 ar
   111  103  111 1
   112  105  108 1
   113  119  121 ar
   114  123  124 1
@<TRIPOS>SUBSTRUCTURE
     1 RES1 1
     2 RES2 78
     3 SUP3 55

@<TRIPOS>CRYSIN
   8.7271   13.9770   16.6800  92.7570  98.8330  91.0760   2 1

