# MOL2 file generated by ConQuest
# Please check atom types

@<TRIPOS>MOLECULE
MIFWOO
    32    34     1
SMALL
NO_CHARGES
****
Generated from CSD

@<TRIPOS>ATOM
      1 O1         2.6788    1.4687    6.4795 O.2       1 RES1    0.0000
      2 O2         1.9335    2.3295   -0.7746 O.2       1 RES1    0.0000
      3 O3         3.5162    0.9173   -1.0844 O.2       1 RES1    0.0000
      4 N1         3.1578    3.6633    6.6275 N.am      1 RES1    0.0000
      5 H1         2.3904    3.8283    7.1448 H         1 RES1    0.0000
      6 N2         3.8233    5.9744    6.6427 N.2       1 RES1    0.0000
      7 N3         4.7531    6.6591    5.9112 N.pl3     1 RES1    0.0000
      8 H2         4.9234    7.5114    6.0746 H         1 RES1    0.0000
      9 N4         2.9656    1.7846   -0.4207 N.pl3     1 RES1    0.0000
     10 C1         5.4607    5.8743    5.0580 C.2       1 RES1    0.0000
     11 C2         4.9618    4.5878    5.2288 C.2       1 RES1    0.0000
     12 C3         5.3123    3.2396    4.6419 C.3       1 RES1    0.0000
     13 H3         6.3583    3.1395    4.5201 H         1 RES1    0.0000
     14 C4         4.8484    2.1797    5.6868 C.3       1 RES1    0.0000
     15 H4         4.8356    1.2889    5.3346 H         1 RES1    0.0000
     16 H5         5.4564    2.1866    6.3577 H         1 RES1    0.0000
     17 C5         3.4660    2.3900    6.2723 C.2       1 RES1    0.0000
     18 C6         3.9669    4.7286    6.2055 C.2       1 RES1    0.0000
     19 C7         4.7092    2.9249    3.2795 C.ar      1 RES1    0.0000
     20 C8         3.6412    3.6422    2.7398 C.ar      1 RES1    0.0000
     21 H6         3.2292    4.3615    3.2078 H         1 RES1    0.0000
     22 C9         3.0559    3.2717    1.5369 C.ar      1 RES1    0.0000
     23 H7         2.2862    3.7022    1.1418 H         1 RES1    0.0000
     24 C10        3.5704    2.1853    0.8638 C.ar      1 RES1    0.0000
     25 C11        4.6315    1.4589    1.3586 C.ar      1 RES1    0.0000
     26 H8         4.9969    0.6978    0.8678 H         1 RES1    0.0000
     27 C12        5.1947    1.8317    2.5656 C.ar      1 RES1    0.0000
     28 H9         6.0158    1.3583    2.8926 H         1 RES1    0.0000
     29 C13        6.5127    6.4188    4.1581 C.3       1 RES1    0.0000
     30 H10        7.3550    6.4752    4.5978 H         1 RES1    0.0000
     31 H11        6.2620    7.2795    3.8670 H         1 RES1    0.0000
     32 H12        6.6135    5.8429    3.4103 H         1 RES1    0.0000
@<TRIPOS>BOND
     1    1   17 2
     2    2    9 2
     3    3    9 2
     4    4    5 1
     5    6    7 1
     6    7    8 1
     7    9   24 1
     8   10    7 1
     9   11   10 2
    10   12   11 1
    11   13   12 1
    12   14   12 1
    13   15   14 1
    14   16   14 1
    15   17    4 1
    16   18    4 1
    17   19   12 1
    18   20   19 ar
    19   21   20 1
    20   22   20 ar
    21   23   22 1
    22   24   22 ar
    23   25   24 ar
    24   26   25 1
    25   27   19 ar
    26   28   27 1
    27   29   10 1
    28   30   29 1
    29   31   29 1
    30   32   29 1
    31    6   18 2
    32   11   18 1
    33   14   17 1
    34   25   27 ar
@<TRIPOS>SUBSTRUCTURE
     1 RES1 1

@<TRIPOS>CRYSIN
   5.2990    8.3190   15.6070  78.4600  81.4300  71.9900   2 1

