# MOL2 file generated by ConQuest
# Please check atom types

@<TRIPOS>MOLECULE
MIGBAI
    61    63     1
SMALL
NO_CHARGES
****
Generated from CSD

@<TRIPOS>ATOM
      1 O1         1.2299    6.9302    4.0926 O.3       1 RES1    0.0000
      2 O2        -0.7098    6.2080    2.2860 O.2       1 RES1    0.0000
      3 O3         3.7682    4.2344   -1.2268 O.3       1 RES1    0.0000
      4 N1         1.7666    8.1679    4.6488 N.3       1 RES1    0.0000
      5 N2         2.4288    5.1389    1.1044 N.3       1 RES1    0.0000
      6 C1         0.6106    9.0672    4.9517 C.3       1 RES1    0.0000
      7 C2         1.1838   10.3079    5.6429 C.3       1 RES1    0.0000
      8 H1         1.7221   10.8016    5.0059 H         1 RES1    0.0000
      9 H2         0.4502   10.8804    5.9159 H         1 RES1    0.0000
     10 C3         2.0286    9.9890    6.8498 C.3       1 RES1    0.0000
     11 H3         1.4855    9.5632    7.5299 H         1 RES1    0.0000
     12 H4         2.3970   10.8064    7.2200 H         1 RES1    0.0000
     13 C4         3.1465    9.0660    6.4295 C.3       1 RES1    0.0000
     14 H5         3.6785    8.8416    7.2089 H         1 RES1    0.0000
     15 H6         3.7222    9.5341    5.8052 H         1 RES1    0.0000
     16 C5         2.6575    7.7760    5.7795 C.3       1 RES1    0.0000
     17 C6         0.0405    9.5050    3.6042 C.3       1 RES1    0.0000
     18 H7         0.7583    9.7646    3.0222 H         1 RES1    0.0000
     19 H8        -0.5518   10.2497    3.7329 H         1 RES1    0.0000
     20 H9        -0.4438    8.7761    3.2103 H         1 RES1    0.0000
     21 C7        -0.5153    8.4559    5.7864 C.3       1 RES1    0.0000
     22 H10       -0.7217    7.5790    5.4532 H         1 RES1    0.0000
     23 H11       -1.2958    9.0114    5.7277 H         1 RES1    0.0000
     24 H12       -0.2358    8.3904    6.7019 H         1 RES1    0.0000
     25 C8         2.0239    6.8453    6.8159 C.3       1 RES1    0.0000
     26 H13        1.3656    7.3304    7.3196 H         1 RES1    0.0000
     27 H14        2.7027    6.5166    7.4081 H         1 RES1    0.0000
     28 H15        1.6038    6.1066    6.3676 H         1 RES1    0.0000
     29 C9         3.8627    7.0612    5.1859 C.3       1 RES1    0.0000
     30 H16        3.6063    6.1782    4.9063 H         1 RES1    0.0000
     31 H17        4.5559    6.9993    5.8473 H         1 RES1    0.0000
     32 H18        4.1867    7.5548    4.4281 H         1 RES1    0.0000
     33 C10        1.5514    6.7895    2.7078 C.3       1 RES1    0.0000
     34 H19        2.1445    7.5123    2.4133 H         1 RES1    0.0000
     35 C11        0.2795    6.7507    1.8573 C.2       1 RES1    0.0000
     36 C12        0.2882    7.3012    0.4696 C.ar      1 RES1    0.0000
     37 C13        1.0520    8.3989    0.0855 C.ar      1 RES1    0.0000
     38 H20        1.6023    8.8222    0.7041 H         1 RES1    0.0000
     39 C14        0.9933    8.8634   -1.2184 C.ar      1 RES1    0.0000
     40 H21        1.4903    9.6081   -1.4679 H         1 RES1    0.0000
     41 C15        0.2064    8.2291   -2.1401 C.ar      1 RES1    0.0000
     42 H22        0.1786    8.5384   -3.0177 H         1 RES1    0.0000
     43 C16       -0.5439    7.1339   -1.7754 C.ar      1 RES1    0.0000
     44 H23       -1.0671    6.6985   -2.4089 H         1 RES1    0.0000
     45 C17       -0.5224    6.6803   -0.4740 C.ar      1 RES1    0.0000
     46 H24       -1.0520    5.9575   -0.2258 H         1 RES1    0.0000
     47 C18        2.2192    5.4250    2.5156 C.3       1 RES1    0.0000
     48 H25        3.0727    5.4165    2.9757 H         1 RES1    0.0000
     49 H26        1.6602    4.7349    2.9048 H         1 RES1    0.0000
     50 C19        3.5427    5.8689    0.5311 C.3       1 RES1    0.0000
     51 H27        4.3693    5.5876    0.9542 H         1 RES1    0.0000
     52 H28        3.4284    6.8186    0.6908 H         1 RES1    0.0000
     53 C20        3.6158    5.6094   -0.9474 C.3       1 RES1    0.0000
     54 H29        2.8051    5.9344   -1.3705 H         1 RES1    0.0000
     55 H30        4.3645    6.0982   -1.3218 H         1 RES1    0.0000
     56 C21        2.7146    3.4990   -0.6445 C.3       1 RES1    0.0000
     57 H31        2.8504    2.5542   -0.8214 H         1 RES1    0.0000
     58 H32        1.8770    3.7610   -1.0583 H         1 RES1    0.0000
     59 C22        2.6209    3.7161    0.8460 C.3       1 RES1    0.0000
     60 H33        1.8762    3.2116    1.2066 H         1 RES1    0.0000
     61 H34        3.4348    3.4093    1.2753 H         1 RES1    0.0000
@<TRIPOS>BOND
     1    1    4 1
     2    2   35 2
     3    3   53 1
     4    4    6 1
     5    5   47 1
     6    6    7 1
     7    7    8 1
     8    9    7 1
     9   10    7 1
    10   11   10 1
    11   12   10 1
    12   13   10 1
    13   14   13 1
    14   15   13 1
    15   16    4 1
    16   17    6 1
    17   18   17 1
    18   19   17 1
    19   20   17 1
    20   21    6 1
    21   22   21 1
    22   23   21 1
    23   24   21 1
    24   25   16 1
    25   26   25 1
    26   27   25 1
    27   28   25 1
    28   29   16 1
    29   30   29 1
    30   31   29 1
    31   32   29 1
    32   33    1 1
    33   34   33 1
    34   35   33 1
    35   36   35 1
    36   37   36 ar
    37   38   37 1
    38   39   37 ar
    39   40   39 1
    40   41   39 ar
    41   42   41 1
    42   43   41 ar
    43   44   43 1
    44   45   36 ar
    45   46   45 1
    46   47   33 1
    47   48   47 1
    48   49   47 1
    49   50    5 1
    50   51   50 1
    51   52   50 1
    52   53   50 1
    53   54   53 1
    54   55   53 1
    55   56    3 1
    56   57   56 1
    57   58   56 1
    58   59    5 1
    59   60   59 1
    60   61   59 1
    61   13   16 1
    62   43   45 ar
    63   56   59 1
@<TRIPOS>SUBSTRUCTURE
     1 RES1 1

@<TRIPOS>CRYSIN
   7.9398   12.1284   22.1403  90.0000  90.0000  90.0000  19 1

