# MOL2 file generated by ConQuest
# Please check atom types

@<TRIPOS>MOLECULE
MIGNUM01
    18    18     1
SMALL
NO_CHARGES
****
Generated from CSD

@<TRIPOS>ATOM
      1 O1         1.4129    0.0378   -2.3336 O.3       1 RES1    0.0000
      2 H1         0.9108   -0.6084   -2.2724 H         1 RES1    0.0000
      3 O2         0.7291    1.5669    1.3085 O.3       1 RES1    0.0000
      4 H2         0.6318    1.1590    0.6042 H         1 RES1    0.0000
      5 O3         1.3285    3.2410    3.4151 O.3       1 RES1    0.0000
      6 H3         0.6006    2.9091    3.2365 H         1 RES1    0.0000
      7 N1         1.4757    0.7035   -1.0915 N.2       1 RES1    0.0000
      8 C1         2.4796    1.4779   -1.0088 C.2       1 RES1    0.0000
      9 H4         3.0696    1.5203   -1.7273 H         1 RES1    0.0000
     10 C2         2.7453    2.2974    0.1550 C.ar      1 RES1    0.0000
     11 C3         3.8927    3.0802    0.1957 C.ar      1 RES1    0.0000
     12 H5         4.4844    3.0578   -0.5215 H         1 RES1    0.0000
     13 C4         4.1698    3.8811    1.2662 C.ar      1 RES1    0.0000
     14 H6         4.9465    4.3925    1.2780 H         1 RES1    0.0000
     15 C5         3.2899    3.9287    2.3341 C.ar      1 RES1    0.0000
     16 H7         3.4721    4.4779    3.0618 H         1 RES1    0.0000
     17 C6         2.1471    3.1641    2.3183 C.ar      1 RES1    0.0000
     18 C7         1.8692    2.3329    1.2413 C.ar      1 RES1    0.0000
@<TRIPOS>BOND
     1    1    2 1
     2    3    4 1
     3    5    6 1
     4    7    1 1
     5    8    7 2
     6    9    8 1
     7   10    8 1
     8   11   10 ar
     9   12   11 1
    10   13   11 ar
    11   14   13 1
    12   15   13 ar
    13   16   15 1
    14   17    5 1
    15   18    3 1
    16   10   18 ar
    17   15   17 ar
    18   17   18 ar
@<TRIPOS>SUBSTRUCTURE
     1 RES1 1

@<TRIPOS>CRYSIN
  11.2110    4.6620   14.1460  90.0000 111.7930  90.0000  14 1

