# MOL2 file generated by ConQuest
# Please check atom types

@<TRIPOS>MOLECULE
MIGNUM
    18    18     1
SMALL
NO_CHARGES
****
Generated from CSD

@<TRIPOS>ATOM
      1 O1         5.5408    0.8949    0.8390 O.3       1 RES1    0.0000
      2 N1         4.5097    1.1402    1.7695 N.2       1 RES1    0.0000
      3 C1         3.4994    1.6908    1.2148 C.2       1 RES1    0.0000
      4 C2         2.3093    2.0310    1.9813 C.ar      1 RES1    0.0000
      5 C3         2.2370    1.8420    3.3664 C.ar      1 RES1    0.0000
      6 O2         3.2695    1.3176    4.1061 O.3       1 RES1    0.0000
      7 C4         1.0768    2.1803    4.0613 C.ar      1 RES1    0.0000
      8 O3         0.9676    2.0032    5.4063 O.3       1 RES1    0.0000
      9 C5         0.0005    2.7155    3.3828 C.ar      1 RES1    0.0000
     10 C6         0.0567    2.8892    2.0061 C.ar      1 RES1    0.0000
     11 C7         1.2016    2.5557    1.3152 C.ar      1 RES1    0.0000
     12 H1         6.1336    0.5063    1.3365 H         1 RES1    0.0000
     13 H2         3.4923    1.8712    0.2727 H         1 RES1    0.0000
     14 H3         3.9106    1.1102    3.5236 H         1 RES1    0.0000
     15 H4         1.6338    1.6653    5.7106 H         1 RES1    0.0000
     16 H5        -0.7790    2.9552    3.8746 H         1 RES1    0.0000
     17 H6        -0.6725    3.2417    1.5444 H         1 RES1    0.0000
     18 H7         1.2648    2.6739    0.3875 H         1 RES1    0.0000
@<TRIPOS>BOND
     1    1    2 1
     2    2    3 2
     3    3    4 1
     4    4    5 ar
     5    5    6 1
     6    6   14 1
     7    7    5 ar
     8    8    7 1
     9    9    7 ar
    10   10    9 ar
    11   11    4 ar
    12   12    1 1
    13   13    3 1
    14   15    8 1
    15   16    9 1
    16   17   10 1
    17   18   11 1
    18   10   11 ar
@<TRIPOS>SUBSTRUCTURE
     1 RES1 1

@<TRIPOS>CRYSIN
  13.4603    3.7507   14.8398  90.0000 114.5310  90.0000  14 1

