# MOL2 file generated by ConQuest
# Please check atom types

@<TRIPOS>MOLECULE
MIGVIK
    47    51     1
SMALL
NO_CHARGES
****
Generated from CSD

@<TRIPOS>ATOM
      1 O1         0.9310    1.8391    7.4792 O.2       1 RES1    0.0000
      2 O2         1.9693    2.9386    9.0123 O.2       1 RES1    0.0000
      3 N1         7.6566    2.1731    5.2694 N.ar      1 RES1    0.0000
      4 N2        11.2277    1.8946    3.1162 N.ar      1 RES1    0.0000
      5 N3        10.1624    2.7128    1.2446 N.pl3     1 RES1    0.0000
      6 N4         9.0705    3.2063    0.5839 N.2       1 RES1    0.0000
      7 N5         1.9102    2.4163    7.9039 N.pl3     1 RES1    0.0000
      8 N6        10.0605    0.8521    7.6529 N.1       1 RES1    0.0000
      9 N7        12.3122    1.0058    4.9122 N.3       1 RES1    0.0000
     10 C1         6.5745    2.5851    4.6152 C.ar      1 RES1    0.0000
     11 C2         8.8251    2.0974    4.6005 C.ar      1 RES1    0.0000
     12 C3         9.9968    1.6313    5.2010 C.ar      1 RES1    0.0000
     13 C4        11.1632    1.4956    4.4311 C.ar      1 RES1    0.0000
     14 C5        10.1284    2.3218    2.5649 C.ar      1 RES1    0.0000
     15 C6         7.9456    3.2619    1.2050 C.2       1 RES1    0.0000
     16 C7         7.7437    2.9213    2.5796 C.ar      1 RES1    0.0000
     17 C8         6.5323    3.0021    3.2595 C.ar      1 RES1    0.0000
     18 C9         8.8937    2.4350    3.2218 C.ar      1 RES1    0.0000
     19 C10        5.3331    2.5570    5.4666 C.ar      1 RES1    0.0000
     20 C11        4.1238    2.0591    4.9750 C.ar      1 RES1    0.0000
     21 C12        3.0000    2.0231    5.7575 C.ar      1 RES1    0.0000
     22 C13        3.1084    2.4733    7.0483 C.ar      1 RES1    0.0000
     23 C14        4.2771    2.9632    7.5797 C.ar      1 RES1    0.0000
     24 C15        5.3724    2.9920    6.7721 C.ar      1 RES1    0.0000
     25 C16       10.0246    1.2150    6.5441 C.1       1 RES1    0.0000
     26 C17       11.3541    2.7561    0.4247 C.ar      1 RES1    0.0000
     27 C18       12.1972    1.6674    0.3640 C.ar      1 RES1    0.0000
     28 C19       13.2871    1.7388   -0.4686 C.ar      1 RES1    0.0000
     29 C20       13.5152    2.8975   -1.1946 C.ar      1 RES1    0.0000
     30 C21       12.7015    3.9870   -1.1172 C.ar      1 RES1    0.0000
     31 C22       11.6199    3.8831   -0.2887 C.ar      1 RES1    0.0000
     32 C23        5.3300    3.5865    2.5816 C.3       1 RES1    0.0000
     33 H1         7.2051    3.5476    0.7218 H         1 RES1    0.0000
     34 H2        13.0056    0.9625    4.4080 H         1 RES1    0.0000
     35 H3        12.3561    0.7338    5.7282 H         1 RES1    0.0000
     36 H4         4.0821    1.7460    4.1005 H         1 RES1    0.0000
     37 H5         2.1925    1.7042    5.4269 H         1 RES1    0.0000
     38 H6         4.3163    3.2640    8.4583 H         1 RES1    0.0000
     39 H7         6.1742    3.3160    7.1152 H         1 RES1    0.0000
     40 H8        12.0359    0.9062    0.8724 H         1 RES1    0.0000
     41 H9        13.8643    1.0159   -0.5460 H         1 RES1    0.0000
     42 H10       14.2536    2.9314   -1.7574 H         1 RES1    0.0000
     43 H11       12.8757    4.7611   -1.6025 H         1 RES1    0.0000
     44 H12       11.0427    4.6089   -0.2113 H         1 RES1    0.0000
     45 H13        4.7185    3.9191    3.2448 H         1 RES1    0.0000
     46 H14        4.8964    2.9090    2.0586 H         1 RES1    0.0000
     47 H15        5.6036    4.3066    2.0105 H         1 RES1    0.0000
@<TRIPOS>BOND
     1    1    7 2
     2    2    7 2
     3    3   10 ar
     4    4   13 ar
     5    5    6 1
     6    6   15 2
     7    7   22 1
     8    8   25 3
     9    9   13 1
    10   10   17 ar
    11   11    3 ar
    12   12   11 ar
    13   13   12 ar
    14   14    4 ar
    15   15   16 1
    16   16   17 ar
    17   17   32 1
    18   18   11 ar
    19   19   10 1
    20   20   19 ar
    21   21   20 ar
    22   22   21 ar
    23   23   22 ar
    24   24   19 ar
    25   25   12 1
    26   26    5 1
    27   27   26 ar
    28   28   27 ar
    29   29   28 ar
    30   30   29 ar
    31   31   26 ar
    32   32   45 1
    33   33   15 1
    34   34    9 1
    35   35    9 1
    36   36   20 1
    37   37   21 1
    38   38   23 1
    39   39   24 1
    40   40   27 1
    41   41   28 1
    42   42   29 1
    43   43   30 1
    44   44   31 1
    45   46   32 1
    46   47   32 1
    47    5   14 1
    48   14   18 ar
    49   16   18 ar
    50   23   24 ar
    51   30   31 ar
@<TRIPOS>SUBSTRUCTURE
     1 RES1 1

@<TRIPOS>CRYSIN
  32.3950    7.2149   22.7380  90.0000 113.0610  90.0000  15 1

