# MOL2 file generated by ConQuest
# Please check atom types

@<TRIPOS>MOLECULE
MIGXUW
    50    53     1
SMALL
NO_CHARGES
****
Generated from CSD

@<TRIPOS>ATOM
      1 O1        -0.5708    3.8503    3.3210 O.2       1 RES1    0.0000
      2 O2        -4.2376    5.3492    8.2394 O.2       1 RES1    0.0000
      3 O3        -4.6142    3.3882    9.0969 O.2       1 RES1    0.0000
      4 O4        -2.7298   -0.5728    6.9297 O.2       1 RES1    0.0000
      5 O5        -0.7964   -0.2012    6.0154 O.2       1 RES1    0.0000
      6 N1        -1.7434    5.7073    3.8878 N.am      1 RES1    0.0000
      7 H1        -2.3941    6.0584    4.3730 H         1 RES1    0.0000
      8 N2        -4.1090    4.1290    8.2577 N.pl3     1 RES1    0.0000
      9 N3        -1.8803    0.1738    6.4403 N.pl3     1 RES1    0.0000
     10 N4        -3.0990    7.8882    3.7106 N.ar      1 RES1    0.0000
     11 N5        -2.9883    5.2231    1.5241 N.ar      1 RES1    0.0000
     12 N6         0.7268    7.4909    1.8203 N.ar      1 RES1    0.0000
     13 C1        -1.3628    4.4288    4.0564 C.2       1 RES1    0.0000
     14 C2        -1.9431    3.7042    5.2423 C.ar      1 RES1    0.0000
     15 C3        -2.7503    4.3043    6.2100 C.ar      1 RES1    0.0000
     16 H2        -2.9329    5.2358    6.1827 H         1 RES1    0.0000
     17 C4        -3.2790    3.5047    7.2138 C.ar      1 RES1    0.0000
     18 C5        -3.0462    2.1433    7.3092 C.ar      1 RES1    0.0000
     19 H3        -3.4476    1.6098    7.9843 H         1 RES1    0.0000
     20 C6        -2.1946    1.6062    6.3628 C.ar      1 RES1    0.0000
     21 C7        -1.6287    2.3466    5.3419 C.ar      1 RES1    0.0000
     22 H4        -1.0377    1.9396    4.7196 H         1 RES1    0.0000
     23 C8        -1.3244    6.4931    2.7354 C.3       1 RES1    0.0000
     24 C9        -2.1528    7.8003    2.7728 C.ar      1 RES1    0.0000
     25 C10       -1.9280    8.8039    1.8270 C.ar      1 RES1    0.0000
     26 H5        -1.2537    8.7078    1.1653 H         1 RES1    0.0000
     27 C11       -2.7143    9.9432    1.8791 C.ar      1 RES1    0.0000
     28 H6        -2.5765   10.6490    1.2580 H         1 RES1    0.0000
     29 C12       -3.7046   10.0456    2.8445 C.ar      1 RES1    0.0000
     30 H7        -4.2588   10.8156    2.8920 H         1 RES1    0.0000
     31 C13       -3.8654    8.9982    3.7381 C.ar      1 RES1    0.0000
     32 H8        -4.5449    9.0653    4.3990 H         1 RES1    0.0000
     33 C14       -1.7588    5.7533    1.4396 C.ar      1 RES1    0.0000
     34 C15       -0.9911    5.6703    0.2858 C.ar      1 RES1    0.0000
     35 H9        -0.1301    6.0701    0.2490 H         1 RES1    0.0000
     36 C16       -1.5032    4.9924   -0.8173 C.ar      1 RES1    0.0000
     37 H10       -0.9926    4.9153   -1.6144 H         1 RES1    0.0000
     38 C17       -2.7652    4.4326   -0.7363 C.ar      1 RES1    0.0000
     39 H11       -3.1412    3.9649   -1.4728 H         1 RES1    0.0000
     40 C18       -3.4629    4.5740    0.4506 C.ar      1 RES1    0.0000
     41 H12       -4.3297    4.1886    0.5078 H         1 RES1    0.0000
     42 C19        0.1830    6.8171    2.8430 C.ar      1 RES1    0.0000
     43 C20        0.9235    6.4650    3.9702 C.ar      1 RES1    0.0000
     44 H13        0.5093    6.0180    4.6984 H         1 RES1    0.0000
     45 C21        2.2763    6.7781    4.0110 C.ar      1 RES1    0.0000
     46 H14        2.8032    6.5302    4.7619 H         1 RES1    0.0000
     47 C22        2.8484    7.4549    2.9484 C.ar      1 RES1    0.0000
     48 H15        3.7730    7.6741    2.9473 H         1 RES1    0.0000
     49 C23        2.0294    7.8017    1.8875 C.ar      1 RES1    0.0000
     50 H16        2.4113    8.2873    1.1669 H         1 RES1    0.0000
@<TRIPOS>BOND
     1    1   13 2
     2    2    8 2
     3    3    8 2
     4    4    9 2
     5    5    9 2
     6    6    7 1
     7    8   17 1
     8    9   20 1
     9   10   24 ar
    10   11   33 ar
    11   12   42 ar
    12   13    6 1
    13   14   13 1
    14   15   14 ar
    15   16   15 1
    16   17   15 ar
    17   18   17 ar
    18   19   18 1
    19   20   18 ar
    20   21   14 ar
    21   22   21 1
    22   23    6 1
    23   24   23 1
    24   25   24 ar
    25   26   25 1
    26   27   25 ar
    27   28   27 1
    28   29   27 ar
    29   30   29 1
    30   31   10 ar
    31   32   31 1
    32   33   23 1
    33   34   33 ar
    34   35   34 1
    35   36   34 ar
    36   37   36 1
    37   38   36 ar
    38   39   38 1
    39   40   11 ar
    40   41   40 1
    41   42   23 1
    42   43   42 ar
    43   44   43 1
    44   45   43 ar
    45   46   45 1
    46   47   45 ar
    47   48   47 1
    48   49   12 ar
    49   50   49 1
    50   20   21 ar
    51   29   31 ar
    52   38   40 ar
    53   47   49 ar
@<TRIPOS>SUBSTRUCTURE
     1 RES1 1

@<TRIPOS>CRYSIN
  14.7680    8.4109   16.7738  90.0000 104.0150  90.0000 231 1

