# MOL2 file generated by ConQuest
# Please check atom types

@<TRIPOS>MOLECULE
MIGZAF
   102   108     2
SMALL
NO_CHARGES
****
Generated from CSD

@<TRIPOS>ATOM
      1 O1         7.4890    5.2265    7.7465 O.2       1 RES1    0.0000
      2 O2         6.1227    6.7162    6.9990 O.2       1 RES1    0.0000
      3 O3         5.0504    0.6480    3.1933 O.2       1 RES1    0.0000
      4 O4         3.4985    2.1839    2.6297 O.3       1 RES1    0.0000
      5 O5         3.3423    4.1274    0.0322 O.3       1 RES1    0.0000
      6 O6         4.1669    0.1916   -3.2917 O.2       1 RES1    0.0000
      7 N1         6.6237    5.5926    6.9753 N.pl3     1 RES1    0.0000
      8 C1         6.1280    4.6287    5.9820 C.ar      1 RES1    0.0000
      9 C2         6.5550    3.3168    6.0747 C.ar      1 RES1    0.0000
     10 H1         7.1820    3.0543    6.7373 H         1 RES1    0.0000
     11 C3         6.0466    2.3997    5.1799 C.ar      1 RES1    0.0000
     12 H2         6.3289    1.4939    5.2203 H         1 RES1    0.0000
     13 C4         5.1184    2.7974    4.2144 C.ar      1 RES1    0.0000
     14 C5         4.7225    4.1330    4.1320 C.ar      1 RES1    0.0000
     15 H3         4.1037    4.4047    3.4649 H         1 RES1    0.0000
     16 C6         5.2300    5.0564    5.0197 C.ar      1 RES1    0.0000
     17 H4         4.9692    5.9685    4.9717 H         1 RES1    0.0000
     18 C7         4.5727    1.7459    3.3006 C.2       1 RES1    0.0000
     19 C8         2.8504    1.2566    1.7217 C.3       1 RES1    0.0000
     20 H5         1.9079    1.1271    1.9921 H         1 RES1    0.0000
     21 H6         3.3070    0.3787    1.7588 H         1 RES1    0.0000
     22 C9         2.9069    1.8040    0.3075 C.3       1 RES1    0.0000
     23 H7         2.4732    1.1439   -0.3065 H         1 RES1    0.0000
     24 C10        2.2531    3.1950    0.0780 C.3       1 RES1    0.0000
     25 H8         1.8158    3.1866   -0.8207 H         1 RES1    0.0000
     26 C11        4.4200    3.4610   -0.6673 C.3       1 RES1    0.0000
     27 C12        4.1396    3.5541   -2.1513 C.2       1 RES1    0.0000
     28 H9         4.0090    4.4201   -2.5182 H         1 RES1    0.0000
     29 C13        4.0606    2.5194   -2.9817 C.2       1 RES1    0.0000
     30 H10        3.8246    2.6749   -3.8888 H         1 RES1    0.0000
     31 C14        4.3259    1.1390   -2.5412 C.2       1 RES1    0.0000
     32 C15        4.8637    0.9682   -1.1493 C.3       1 RES1    0.0000
     33 H11        5.8529    1.0074   -1.1850 H         1 RES1    0.0000
     34 H12        4.6114    0.0693   -0.8207 H         1 RES1    0.0000
     35 C16        4.3684    2.0126   -0.1480 C.3       1 RES1    0.0000
     36 H13        4.9514    1.9580    0.6623 H         1 RES1    0.0000
     37 C17        1.2243    3.6395    1.0941 C.ar      1 RES1    0.0000
     38 C18        1.4225    4.7428    1.9165 C.ar      1 RES1    0.0000
     39 H14        2.2302    5.2405    1.8559 H         1 RES1    0.0000
     40 C19        0.4398    5.1194    2.8276 C.ar      1 RES1    0.0000
     41 H15        0.5753    5.8824    3.3780 H         1 RES1    0.0000
     42 C20       -0.7351    4.3928    2.9404 C.ar      1 RES1    0.0000
     43 H16       -1.3992    4.6511    3.5687 H         1 RES1    0.0000
     44 C21       -0.9334    3.2804    2.1271 C.ar      1 RES1    0.0000
     45 H17       -1.7309    2.7694    2.2066 H         1 RES1    0.0000
     46 C22        0.0362    2.9178    1.1976 C.ar      1 RES1    0.0000
     47 H18       -0.1133    2.1715    0.6283 H         1 RES1    0.0000
     48 C23        5.7152    4.1652   -0.2961 C.3       1 RES1    0.0000
     49 H19        5.7668    5.0228   -0.7679 H         1 RES1    0.0000
     50 H20        6.4761    3.6052   -0.5517 H         1 RES1    0.0000
     51 H21        5.7365    4.3227    0.6708 H         1 RES1    0.0000
     52 O7         5.0897    3.9367   16.1391 O.2       2 RES2    0.0000
     53 O8         4.6721    5.6560   14.8982 O.2       2 RES2    0.0000
     54 O9         2.3169   -0.1698   11.2536 O.2       2 RES2    0.0000
     55 O10        1.0854    1.6499   10.7249 O.3       2 RES2    0.0000
     56 O11        0.8236    4.2213    8.2792 O.3       2 RES2    0.0000
     57 O12        2.0464    0.3421    4.9232 O.2       2 RES2    0.0000
     58 N2         4.6435    4.4544   15.1230 N.pl3     2 RES2    0.0000
     59 C24        4.0197    3.5709   14.1191 C.ar      2 RES2    0.0000
     60 C25        4.1170    2.1981   14.2965 C.ar      2 RES2    0.0000
     61 H22        4.6035    1.8334   15.0274 H         2 RES2    0.0000
     62 C26        3.4889    1.3756   13.3827 C.ar      2 RES2    0.0000
     63 H23        3.5591    0.4319   13.4695 H         2 RES2    0.0000
     64 C27        2.7509    1.9202   12.3313 C.ar      2 RES2    0.0000
     65 C28        2.6823    3.3042   12.1731 C.ar      2 RES2    0.0000
     66 H24        2.1893    3.6745   11.4502 H         2 RES2    0.0000
     67 C29        3.3282    4.1372   13.0631 C.ar      2 RES2    0.0000
     68 H25        3.2982    5.0802   12.9536 H         2 RES2    0.0000
     69 C30        2.0458    0.9934   11.3915 C.2       2 RES2    0.0000
     70 C31        0.4261    0.9682    9.6316 C.3       2 RES2    0.0000
     71 H26       -0.5185    0.7903    9.8651 H         2 RES2    0.0000
     72 H27        0.8709    0.1022    9.4564 H         2 RES2    0.0000
     73 C32        0.4970    1.8481    8.3933 C.3       2 RES2    0.0000
     74 H28        0.1122    1.3315    7.6295 H         2 RES2    0.0000
     75 C33       -0.2120    3.2412    8.4345 C.3       2 RES2    0.0000
     76 H29       -0.8140    3.3028    7.6380 H         2 RES2    0.0000
     77 C34        1.8964    3.6234    7.5173 C.3       2 RES2    0.0000
     78 C35        1.5435    3.6626    6.0525 C.2       2 RES2    0.0000
     79 H30        1.2757    4.4992    5.6902 H         2 RES2    0.0000
     80 C36        1.5754    2.6244    5.2276 C.2       2 RES2    0.0000
     81 H31        1.2835    2.7365    4.3298 H         2 RES2    0.0000
     82 C37        2.0528    1.3014    5.6681 C.2       2 RES2    0.0000
     83 C38        2.6074    1.2223    7.0647 C.3       2 RES2    0.0000
     84 H32        3.5792    1.4057    7.0336 H         2 RES2    0.0000
     85 H33        2.4861    0.2996    7.4048 H         2 RES2    0.0000
     86 C39        1.9545    2.1946    8.0405 C.3       2 RES2    0.0000
     87 H34        2.4882    2.1939    8.8860 H         2 RES2    0.0000
     88 C40       -1.0292    3.5800    9.6635 C.ar      2 RES2    0.0000
     89 C41       -0.6416    4.5664   10.5584 C.ar      2 RES2    0.0000
     90 H35        0.1759    5.0319   10.4235 H         2 RES2    0.0000
     91 C42       -1.4437    4.8772   11.6528 C.ar      2 RES2    0.0000
     92 H36       -1.1823    5.5695   12.2487 H         2 RES2    0.0000
     93 C43       -2.6224    4.1806   11.8769 C.ar      2 RES2    0.0000
     94 H37       -3.1652    4.3865   12.6284 H         2 RES2    0.0000
     95 C44       -3.0004    3.1817   10.9946 C.ar      2 RES2    0.0000
     96 H38       -3.7989    2.6917   11.1522 H         2 RES2    0.0000
     97 C45       -2.2229    2.8919    9.8851 C.ar      2 RES2    0.0000
     98 H39       -2.5033    2.2219    9.2725 H         2 RES2    0.0000
     99 C46        3.1645    4.4054    7.8178 C.3       2 RES2    0.0000
    100 H40        3.1424    5.2608    7.3401 H         2 RES2    0.0000
    101 H41        3.9433    3.8887    7.5256 H         2 RES2    0.0000
    102 H42        3.2250    4.5713    8.7822 H         2 RES2    0.0000
@<TRIPOS>BOND
     1    1    7 2
     2    2    7 2
     3    3   18 2
     4    4   18 1
     5    5   24 1
     6    6   31 2
     7    7    8 1
     8    8    9 ar
     9    9   10 1
    10   11    9 ar
    11   12   11 1
    12   13   11 ar
    13   14   13 ar
    14   15   14 1
    15   16    8 ar
    16   17   16 1
    17   18   13 1
    18   19    4 1
    19   20   19 1
    20   21   19 1
    21   22   19 1
    22   23   22 1
    23   24   22 1
    24   25   24 1
    25   26    5 1
    26   27   26 1
    27   28   27 1
    28   29   27 2
    29   30   29 1
    30   31   29 1
    31   32   31 1
    32   33   32 1
    33   34   32 1
    34   35   22 1
    35   36   35 1
    36   37   24 1
    37   38   37 ar
    38   39   38 1
    39   40   38 ar
    40   41   40 1
    41   42   40 ar
    42   43   42 1
    43   44   42 ar
    44   45   44 1
    45   46   37 ar
    46   47   46 1
    47   48   26 1
    48   49   48 1
    49   50   48 1
    50   51   48 1
    51   52   58 2
    52   53   58 2
    53   54   69 2
    54   55   69 1
    55   56   75 1
    56   57   82 2
    57   58   59 1
    58   59   60 ar
    59   60   61 1
    60   62   60 ar
    61   63   62 1
    62   64   62 ar
    63   65   64 ar
    64   66   65 1
    65   67   59 ar
    66   68   67 1
    67   69   64 1
    68   70   55 1
    69   71   70 1
    70   72   70 1
    71   73   70 1
    72   74   73 1
    73   75   73 1
    74   76   75 1
    75   77   56 1
    76   78   77 1
    77   79   78 1
    78   80   78 2
    79   81   80 1
    80   82   80 1
    81   83   82 1
    82   84   83 1
    83   85   83 1
    84   86   73 1
    85   87   86 1
    86   88   75 1
    87   89   88 ar
    88   90   89 1
    89   91   89 ar
    90   92   91 1
    91   93   91 ar
    92   94   93 1
    93   95   93 ar
    94   96   95 1
    95   97   88 ar
    96   98   97 1
    97   99   77 1
    98  100   99 1
    99  101   99 1
   100  102   99 1
   101   14   16 ar
   102   26   35 1
   103   32   35 1
   104   44   46 ar
   105   65   67 ar
   106   77   86 1
   107   83   86 1
   108   95   97 ar
@<TRIPOS>SUBSTRUCTURE
     1 RES1 1
     2 RES2 52

@<TRIPOS>CRYSIN
  16.5029    7.0004   17.5337  90.0000 103.8170  90.0000   4 1

