# MOL2 file generated by ConQuest
# Please check atom types

@<TRIPOS>MOLECULE
MIHTUU
    32    33     1
SMALL
USER_CHARGES
****
Generated from CSD

@<TRIPOS>ATOM
      1 O1         3.6546    1.7368    2.2938 O.2       1 RES1   -1.0000
      2 C1         4.5926    2.4461    2.5555 C.2       1 RES1    0.0000
      3 C2         5.3357    2.2949    3.7919 C.2       1 RES1    0.0000
      4 N1         5.0977    1.3466    4.7214 N.pl3     1 RES1    1.0000
      5 N2         5.8920    1.3630    5.7401 N.2       1 RES1    0.0000
      6 O2         6.7263    2.4195    5.5151 O.3       1 RES1    0.0000
      7 C3         6.4054    3.0616    4.2994 C.2       1 RES1    0.0000
      8 O3         7.0191    4.0323    3.9496 O.2       1 RES1    0.0000
      9 C4         4.1338    0.2709    4.7314 C.ar      1 RES1    0.0000
     10 C5         4.6425   -0.9922    4.5407 C.ar      1 RES1    0.0000
     11 C6         3.7832   -2.0710    4.5961 C.ar      1 RES1    0.0000
     12 C7         2.4497   -1.8766    4.8366 C.ar      1 RES1    0.0000
     13 C8         1.9535   -0.6040    5.0289 C.ar      1 RES1    0.0000
     14 C9         2.7867    0.5007    4.9877 C.ar      1 RES1    0.0000
     15 C10        2.2532    1.8657    5.2325 C.2       1 RES1    0.0000
     16 O4         0.9471    1.8429    5.4631 O.3       1 RES1    0.0000
     17 C11        0.3252    3.1391    5.6706 C.3       1 RES1    0.0000
     18 C12       -1.0899    2.8973    6.0790 C.3       1 RES1    0.0000
     19 O5         2.9148    2.8676    5.2360 O.2       1 RES1    0.0000
     20 C13        5.0689    3.5132    1.6421 C.3       1 RES1    0.0000
     21 H1         5.5642   -1.0998    4.3482 H         1 RES1    0.0000
     22 H2         4.0987   -2.9450    4.4791 H         1 RES1    0.0000
     23 H3         1.8794   -2.6003    4.8742 H         1 RES1    0.0000
     24 H4         1.0403   -0.4742    5.1993 H         1 RES1    0.0000
     25 H5         0.8096    3.5771    6.3875 H         1 RES1    0.0000
     26 H6         0.3602    3.6370    4.8365 H         1 RES1    0.0000
     27 H7        -1.5181    3.7519    6.2216 H         1 RES1    0.0000
     28 H8        -1.1134    2.4069    6.8973 H         1 RES1    0.0000
     29 H9        -1.5711    2.4190    5.3827 H         1 RES1    0.0000
     30 H10        5.3153    4.3022    2.1269 H         1 RES1    0.0000
     31 H11        5.8572    3.2008    1.1788 H         1 RES1    0.0000
     32 H12        4.4162    3.7179    1.0048 H         1 RES1    0.0000
@<TRIPOS>BOND
     1    1    2 1
     2    2    3 2
     3    3    4 1
     4    4    5 2
     5    5    6 1
     6    6    7 1
     7    7    3 1
     8    8    7 2
     9    9    4 1
    10   10    9 ar
    11   11   10 ar
    12   12   11 ar
    13   13   12 ar
    14   14    9 ar
    15   15   14 1
    16   16   15 1
    17   17   16 1
    18   18   17 1
    19   19   15 2
    20   20    2 1
    21   21   10 1
    22   22   11 1
    23   23   12 1
    24   24   13 1
    25   25   17 1
    26   26   17 1
    27   27   18 1
    28   28   18 1
    29   29   18 1
    30   30   20 1
    31   31   20 1
    32   32   20 1
    33   13   14 ar
@<TRIPOS>SUBSTRUCTURE
     1 RES1 1

@<TRIPOS>CRYSIN
  11.3530    8.0930   14.6070  90.0000 112.5820  90.0000 231 1

