# MOL2 file generated by ConQuest
# Please check atom types

@<TRIPOS>MOLECULE
MIJJAR
    12    13     1
SMALL
NO_CHARGES
****
Generated from CSD

@<TRIPOS>ATOM
      1 O1         3.0935    1.1810    6.6248 O.3       1 RES1    0.0000
      2 N1         3.0935    2.0792    5.5475 N.2       1 RES1    0.0000
      3 C1         3.0935    3.2244    6.1465 C.2       1 RES1    0.0000
      4 N2         3.0935    3.1787    7.5191 N.2       1 RES1    0.0000
      5 C2         3.0935    1.9148    7.7303 C.2       1 RES1    0.0000
      6 H1         3.0935    1.5363    8.6016 H         1 RES1    0.0000
      7 O1H        3.0935    6.5120    4.9102 O.3       1 RES1    0.0000
      8 N1H        3.0935    5.6138    5.9875 N.2       1 RES1    0.0000
      9 C1H        3.0935    4.4686    5.3885 C.2       1 RES1    0.0000
     10 N2H        3.0935    4.5143    4.0159 N.2       1 RES1    0.0000
     11 C2H        3.0935    5.7782    3.8047 C.2       1 RES1    0.0000
     12 H1H        3.0935    6.1567    2.9334 H         1 RES1    0.0000
@<TRIPOS>BOND
     1    1    2 1
     2    2    3 2
     3    3    4 1
     4    4    5 2
     5    5    1 1
     6    6    5 1
     7    7    8 1
     8    8    9 2
     9    9    3 1
    10   10    9 1
    11   11    7 1
    12   12   11 1
    13   10   11 2
@<TRIPOS>SUBSTRUCTURE
     1 RES1 1

@<TRIPOS>CRYSIN
   6.1870    7.6930   11.5350  90.0000  90.0000  90.0000  64 1

