# MOL2 file generated by ConQuest
# Please check atom types

@<TRIPOS>MOLECULE
MIJVEH
    61    63     1
SMALL
NO_CHARGES
****
Generated from CSD

@<TRIPOS>ATOM
      1 O1        11.3965    7.3842   18.9463 O.2       1 RES1    0.0000
      2 O2        11.4389   11.4488   18.6262 O.2       1 RES1    0.0000
      3 O3        14.1018   11.1492   20.3824 O.2       1 RES1    0.0000
      4 O4        10.4421    8.4834   26.3488 O.2       1 RES1    0.0000
      5 O5        11.0543   10.5503   26.5125 O.2       1 RES1    0.0000
      6 N1        11.4478    6.0805   17.0988 N.am      1 RES1    0.0000
      7 N2        12.3432    9.5986   17.7334 N.am      1 RES1    0.0000
      8 N3        12.6333    9.4036   20.5327 N.am      1 RES1    0.0000
      9 H1        12.2918    8.7415   20.0648 H         1 RES1    0.0000
     10 N4        10.9397    9.5015   25.8779 N.pl3     1 RES1    0.0000
     11 C1        11.8761    5.7876   15.7279 C.3       1 RES1    0.0000
     12 H2        12.6461    5.1654   15.7467 H         1 RES1    0.0000
     13 H3        12.1690    6.6241   15.2872 H         1 RES1    0.0000
     14 C2        10.7389    5.1651   14.9323 C.3       1 RES1    0.0000
     15 H4        10.0299    5.8413   14.7897 H         1 RES1    0.0000
     16 H5        11.0749    4.8848   14.0459 H         1 RES1    0.0000
     17 C3        10.1488    3.9622   15.6487 C.3       1 RES1    0.0000
     18 H6         9.3605    3.6314   15.1476 H         1 RES1    0.0000
     19 H7        10.8199    3.2343   15.6832 H         1 RES1    0.0000
     20 C4         9.7340    4.3386   17.0599 C.3       1 RES1    0.0000
     21 H8         9.0005    5.0022   17.0236 H         1 RES1    0.0000
     22 H9         9.3997    3.5359   17.5313 H         1 RES1    0.0000
     23 C5        10.9104    4.9225   17.8212 C.3       1 RES1    0.0000
     24 H10       10.6182    5.1998   18.7244 H         1 RES1    0.0000
     25 H11       11.6154    4.2356   17.9223 H         1 RES1    0.0000
     26 C6        11.6655    7.2294   17.7468 C.2       1 RES1    0.0000
     27 C7        12.2376    8.3898   16.9381 C.3       1 RES1    0.0000
     28 H12       13.1346    8.1420   16.5997 H         1 RES1    0.0000
     29 H13       11.6549    8.5629   16.1580 H         1 RES1    0.0000
     30 C8        11.2976   10.4418   17.9355 C.2       1 RES1    0.0000
     31 C9         9.9807   10.0824   17.3026 C.3       1 RES1    0.0000
     32 H14        9.2926   10.7118   17.6024 H         1 RES1    0.0000
     33 H15        9.7283    9.1729   17.5669 H         1 RES1    0.0000
     34 H16       10.0643   10.1276   16.3280 H         1 RES1    0.0000
     35 C10       13.6242    9.8995   18.3802 C.3       1 RES1    0.0000
     36 H17       14.1752    9.0660   18.3386 H         1 RES1    0.0000
     37 C11       14.4059   10.9884   17.6402 C.3       1 RES1    0.0000
     38 H18       13.8900   11.8325   17.6633 H         1 RES1    0.0000
     39 H19       15.2652   11.1452   18.1050 H         1 RES1    0.0000
     40 C12       14.6789   10.6118   16.2077 C.ar      1 RES1    0.0000
     41 C13       13.8788   11.0869   15.1862 C.ar      1 RES1    0.0000
     42 H20       13.1530   11.6655   15.3888 H         1 RES1    0.0000
     43 C14       14.1206   10.7318   13.8730 C.ar      1 RES1    0.0000
     44 H21       13.5570   11.0621   13.1828 H         1 RES1    0.0000
     45 C15       15.1698    9.9032   13.5608 C.ar      1 RES1    0.0000
     46 H22       15.3390    9.6665   12.6573 H         1 RES1    0.0000
     47 C16       15.9735    9.4202   14.5632 C.ar      1 RES1    0.0000
     48 H23       16.7032    8.8493   14.3505 H         1 RES1    0.0000
     49 C17       15.7266    9.7623   15.8764 C.ar      1 RES1    0.0000
     50 H24       16.2816    9.4116   16.5641 H         1 RES1    0.0000
     51 C18       13.4606   10.2549   19.8597 C.2       1 RES1    0.0000
     52 C19       12.2651    9.4601   21.8776 C.ar      1 RES1    0.0000
     53 C20       11.5511    8.3768   22.3932 C.ar      1 RES1    0.0000
     54 H25       11.3581    7.6331   21.8342 H         1 RES1    0.0000
     55 C21       11.1247    8.3738   23.7031 C.ar      1 RES1    0.0000
     56 H26       10.6462    7.6322   24.0554 H         1 RES1    0.0000
     57 C22       11.4074    9.4723   24.4951 C.ar      1 RES1    0.0000
     58 C23       12.1187   10.5451   24.0141 C.ar      1 RES1    0.0000
     59 H27       12.3050   11.2846   24.5809 H         1 RES1    0.0000
     60 C24       12.5617   10.5476   22.7080 C.ar      1 RES1    0.0000
     61 H28       13.0632   11.2817   22.3749 H         1 RES1    0.0000
@<TRIPOS>BOND
     1    1   26 2
     2    2   30 2
     3    3   51 2
     4    4   10 2
     5    5   10 2
     6    6   11 1
     7    7   27 1
     8    8    9 1
     9   10   57 1
    10   11   12 1
    11   13   11 1
    12   14   11 1
    13   15   14 1
    14   16   14 1
    15   17   14 1
    16   18   17 1
    17   19   17 1
    18   20   17 1
    19   21   20 1
    20   22   20 1
    21   23    6 1
    22   24   23 1
    23   25   23 1
    24   26    6 1
    25   27   26 1
    26   28   27 1
    27   29   27 1
    28   30    7 1
    29   31   30 1
    30   32   31 1
    31   33   31 1
    32   34   31 1
    33   35    7 1
    34   36   35 1
    35   37   35 1
    36   38   37 1
    37   39   37 1
    38   40   37 1
    39   41   40 ar
    40   42   41 1
    41   43   41 ar
    42   44   43 1
    43   45   43 ar
    44   46   45 1
    45   47   45 ar
    46   48   47 1
    47   49   40 ar
    48   50   49 1
    49   51    8 1
    50   52    8 1
    51   53   52 ar
    52   54   53 1
    53   55   53 ar
    54   56   55 1
    55   57   55 ar
    56   58   57 ar
    57   59   58 1
    58   60   52 ar
    59   61   60 1
    60   20   23 1
    61   35   51 1
    62   47   49 ar
    63   58   60 ar
@<TRIPOS>SUBSTRUCTURE
     1 RES1 1

@<TRIPOS>CRYSIN
  19.3520    9.5462   25.3870  90.0000  90.5930  90.0000  15 1

