# MOL2 file generated by ConQuest
# Please check atom types

@<TRIPOS>MOLECULE
MIKPIH
   104   112     2
SMALL
NO_CHARGES
****
Generated from CSD

@<TRIPOS>ATOM
      1 O1         9.9233   -0.1587    2.0754 O.3       1 RES1    0.0000
      2 H1         9.9530   -0.5095    1.3351 H         1 RES1    0.0000
      3 C1         8.8818   -0.6734    2.7812 C.2       1 RES1    0.0000
      4 C2         8.0344   -1.6652    2.2356 C.2       1 RES1    0.0000
      5 C3         8.2410   -2.1904    0.9033 C.2       1 RES1    0.0000
      6 H2         7.6350   -2.8016    0.5538 H         1 RES1    0.0000
      7 N1         9.2482   -1.8256    0.1944 N.2       1 RES1    0.0000
      8 O2         9.2608   -2.3938   -1.0656 O.3       1 RES1    0.0000
      9 H3         9.9195   -2.1325   -1.4763 H         1 RES1    0.0000
     10 C4         6.9818   -2.1632    3.0183 C.2       1 RES1    0.0000
     11 H4         6.4201   -2.8077    2.6537 H         1 RES1    0.0000
     12 C5         6.7483   -1.7300    4.3150 C.2       1 RES1    0.0000
     13 C6         5.6043   -2.2491    5.1895 C.3       1 RES1    0.0000
     14 C7         6.1844   -2.7928    6.5026 C.3       1 RES1    0.0000
     15 H5         6.6774   -2.0983    6.9467 H         1 RES1    0.0000
     16 H6         6.7711   -3.5294    6.3121 H         1 RES1    0.0000
     17 H7         5.4690   -3.0909    7.0687 H         1 RES1    0.0000
     18 C8         4.6419   -1.0943    5.4993 C.3       1 RES1    0.0000
     19 H8         5.1248   -0.3806    5.9228 H         1 RES1    0.0000
     20 H9         3.9478   -1.4039    6.0859 H         1 RES1    0.0000
     21 H10        4.2526   -0.7751    4.6810 H         1 RES1    0.0000
     22 C9         4.8183   -3.3671    4.5233 C.3       1 RES1    0.0000
     23 H11        5.4081   -4.0993    4.3273 H         1 RES1    0.0000
     24 H12        4.4294   -3.0427    3.7078 H         1 RES1    0.0000
     25 H13        4.1240   -3.6653    5.1141 H         1 RES1    0.0000
     26 C10        7.6130   -0.7523    4.8084 C.2       1 RES1    0.0000
     27 H14        7.4823   -0.4525    5.6788 H         1 RES1    0.0000
     28 C11        8.6583   -0.1982    4.0792 C.2       1 RES1    0.0000
     29 C12        9.5383    0.8488    4.6960 C.3       1 RES1    0.0000
     30 H15        9.8376    0.5410    5.5664 H         1 RES1    0.0000
     31 H16       10.3217    0.9733    4.1395 H         1 RES1    0.0000
     32 N2         8.8414    2.1457    4.8523 N.2       1 RES1    0.0000
     33 C13       11.4094    5.7084    3.4268 C.3       1 RES1    0.0000
     34 H17       11.6125    6.5598    3.7407 H         1 RES1    0.0000
     35 C14        9.4730    2.8901    6.0818 C.3       1 RES1    0.0000
     36 H18        9.5242    2.2886    6.8289 H         1 RES1    0.0000
     37 H19        8.9278    3.6451    6.3148 H         1 RES1    0.0000
     38 H20       10.3556    3.1918    5.8543 H         1 RES1    0.0000
     39 C15        8.7129    2.9638    3.7530 C.3       1 RES1    0.0000
     40 H21        8.0072    3.6039    3.9339 H         1 RES1    0.0000
     41 H22        8.4258    2.4193    3.0032 H         1 RES1    0.0000
     42 C16        9.9423    3.7275    3.3349 C.3       1 RES1    0.0000
     43 C17       10.1651    5.0753    3.7831 C.3       1 RES1    0.0000
     44 H23        9.5271    5.5242    4.2876 H         1 RES1    0.0000
     45 C18       12.2548    5.0595    2.6482 C.3       1 RES1    0.0000
     46 H24       13.0346    5.5111    2.4083 H         1 RES1    0.0000
     47 C19       12.1021    3.8231    2.1685 C.3       1 RES1    0.0000
     48 C20       10.9093    3.1435    2.5248 C.2       1 RES1    0.0000
     49 H25       10.7718    2.2798    2.2082 H         1 RES1    0.0000
     50 C21        9.6368    3.1435    5.4458 Du        2 SUP2    0.0000
     51 H26        9.0347    3.8354    5.7638 Du        2 SUP2    0.0000
     52 H27       10.0477    2.7490    6.2312 Du        2 SUP2    0.0000
     53 C22        8.4700    2.6481    3.3815 Du        2 SUP2    0.0000
     54 H28        8.0880    1.9186    2.8840 Du        2 SUP2    0.0000
     55 H29        9.2651    2.9506    2.9374 Du        2 SUP2    0.0000
     56 H30        7.8383    3.3645    3.4377 Du        2 SUP2    0.0000
     57 O1A       12.8955   -0.1587    4.7781 O.3       1 RES1    0.0000
     58 H1A       12.8657   -0.5095    5.5185 H         1 RES1    0.0000
     59 C1A       13.9369   -0.6734    4.0724 C.2       1 RES1    0.0000
     60 C2A       14.7843   -1.6652    4.6179 C.2       1 RES1    0.0000
     61 C3A       14.5778   -2.1904    5.9502 C.2       1 RES1    0.0000
     62 H2A       15.1838   -2.8016    6.2998 H         1 RES1    0.0000
     63 N1A       13.5706   -1.8256    6.6592 N.2       1 RES1    0.0000
     64 O2A       13.5580   -2.3938    7.9191 O.3       1 RES1    0.0000
     65 H3A       12.8993   -2.1325    8.3298 H         1 RES1    0.0000
     66 C4A       15.8370   -2.1632    3.8352 C.2       1 RES1    0.0000
     67 H4A       16.3987   -2.8077    4.1998 H         1 RES1    0.0000
     68 C5A       16.0705   -1.7300    2.5385 C.2       1 RES1    0.0000
     69 C6A       17.2145   -2.2491    1.6640 C.3       1 RES1    0.0000
     70 C7A       16.6343   -2.7928    0.3509 C.3       1 RES1    0.0000
     71 H5A       16.1414   -2.0983   -0.0932 H         1 RES1    0.0000
     72 H6A       16.0476   -3.5294    0.5414 H         1 RES1    0.0000
     73 H7A       17.3498   -3.0909   -0.2152 H         1 RES1    0.0000
     74 C8A       18.1769   -1.0943    1.3543 C.3       1 RES1    0.0000
     75 H8A       17.6939   -0.3806    0.9307 H         1 RES1    0.0000
     76 H9A       18.8710   -1.4039    0.7676 H         1 RES1    0.0000
     77 H10A      18.5662   -0.7751    2.1726 H         1 RES1    0.0000
     78 C9A       18.0005   -3.3671    2.3302 C.3       1 RES1    0.0000
     79 H11A      17.4107   -4.0993    2.5262 H         1 RES1    0.0000
     80 H12A      18.3894   -3.0427    3.1458 H         1 RES1    0.0000
     81 H13A      18.6948   -3.6653    1.7394 H         1 RES1    0.0000
     82 C10A      15.2057   -0.7523    2.0451 C.2       1 RES1    0.0000
     83 H14A      15.3365   -0.4525    1.1747 H         1 RES1    0.0000
     84 C11A      14.1605   -0.1982    2.7743 C.2       1 RES1    0.0000
     85 C12A      13.2805    0.8488    2.1575 C.3       1 RES1    0.0000
     86 H15A      12.9812    0.5410    1.2871 H         1 RES1    0.0000
     87 H16A      12.4970    0.9733    2.7140 H         1 RES1    0.0000
     88 N2A       13.9774    2.1457    2.0012 N.2       1 RES1    0.0000
     89 H17A      11.2063    6.5598    3.1129 H         1 RES1    0.0000
     90 C14A      13.3458    2.8901    0.7717 C.3       1 RES1    0.0000
     91 H18A      13.2945    2.2886    0.0247 H         1 RES1    0.0000
     92 H19A      13.8910    3.6451    0.5387 H         1 RES1    0.0000
     93 H20A      12.4631    3.1918    0.9992 H         1 RES1    0.0000
     94 C15A      14.1059    2.9638    3.1005 C.3       1 RES1    0.0000
     95 H21A      14.8116    3.6039    2.9196 H         1 RES1    0.0000
     96 H22A      14.3929    2.4193    3.8503 H         1 RES1    0.0000
     97 C16A      12.8765    3.7275    3.5186 C.3       1 RES1    0.0000
     98 C17A      12.6536    5.0753    3.0704 C.3       1 RES1    0.0000
     99 H23A      13.2917    5.5242    2.5660 H         1 RES1    0.0000
    100 C18A      10.5640    5.0595    4.2053 C.3       1 RES1    0.0000
    101 H24A       9.7841    5.5111    4.4452 H         1 RES1    0.0000
    102 C19A      10.7167    3.8231    4.6851 C.3       1 RES1    0.0000
    103 C20A      11.9094    3.1435    4.3287 C.2       1 RES1    0.0000
    104 H25A      12.0469    2.2798    4.6453 H         1 RES1    0.0000
@<TRIPOS>BOND
     1    1    2 1
     2    3    1 1
     3    4    3 1
     4    5    4 1
     5    6    5 1
     6    7    5 1
     7    8    7 1
     8    9    8 1
     9   10    4 1
    10   11   10 1
    11   12   10 1
    12   13   12 1
    13   14   13 1
    14   15   14 1
    15   16   14 1
    16   17   14 1
    17   18   13 1
    18   19   18 1
    19   20   18 1
    20   21   18 1
    21   22   13 1
    22   23   22 1
    23   24   22 1
    24   25   22 1
    25   26   12 1
    26   27   26 1
    27   28    3 1
    28   29   28 1
    29   30   29 1
    30   31   29 1
    31   32   29 1
    32   33   34 1
    33   35   32 1
    34   36   35 1
    35   37   35 1
    36   38   35 1
    37   39   32 1
    38   40   39 1
    39   41   39 1
    40   42   39 1
    41   43   33 1
    42   44   43 1
    43   45   33 1
    44   46   45 1
    45   47   45 1
    46   48   42 1
    47   49   48 1
    48   57   58 1
    49   59   57 1
    50   60   59 1
    51   61   60 1
    52   62   61 1
    53   63   61 1
    54   64   63 1
    55   65   64 1
    56   66   60 1
    57   67   66 1
    58   68   66 1
    59   69   68 1
    60   70   69 1
    61   71   70 1
    62   72   70 1
    63   73   70 1
    64   74   69 1
    65   75   74 1
    66   76   74 1
    67   77   74 1
    68   78   69 1
    69   79   78 1
    70   80   78 1
    71   81   78 1
    72   82   68 1
    73   83   82 1
    74   84   59 1
    75   85   84 1
    76   86   85 1
    77   87   85 1
    78   88   85 1
    79   89   33 1
    80   90   88 1
    81   91   90 1
    82   92   90 1
    83   93   90 1
    84   94   88 1
    85   95   94 1
    86   96   94 1
    87   97   45 1
    88   98   33 1
    89   99   45 1
    90  100   33 1
    91  101   43 1
    92  102   42 1
    93  103   97 1
    94  104  103 1
    95   26   28 1
    96   42   43 1
    97   42  100 1
    98   43  100 1
    99   43  102 1
   100   44  100 1
   101   45   98 1
   102   46   98 1
   103   47   48 1
   104   47   97 1
   105   47   98 1
   106   82   84 1
   107   94   97 1
   108   97   98 1
   109   98   99 1
   110  100  101 1
   111  100  102 1
   112  102  103 1
@<TRIPOS>SUBSTRUCTURE
     1 RES1 1
     2 SUP2 50

@<TRIPOS>CRYSIN
  25.7501    8.7686   14.9082  90.0000 113.1570  90.0000  15 1

