# MOL2 file generated by ConQuest
# Please check atom types

@<TRIPOS>MOLECULE
MIKTIK
    14    13     1
SMALL
USER_CHARGES
****
Generated from CSD

@<TRIPOS>ATOM
      1 N1         0.9898    0.6547    1.4147 N.3       1 RES1    0.0000
      2 N2         2.2708    0.7700    1.0312 N.pl3     1 RES1    0.0000
      3 N3         0.8892    0.8590    3.8267 N.2       1 RES1    0.0000
      4 N4         1.9650    1.2102    4.3011 N.1       1 RES1    1.0000
      5 N5         2.9061    1.4492    4.8686 N.2       1 RES1   -1.0000
      6 O1         2.6502    0.0783    0.0929 O.2       1 RES1    0.0000
      7 O2         2.9803    1.5709    1.6372 O.2       1 RES1    0.0000
      8 C1         0.2253   -0.4615    0.8865 C.3       1 RES1    0.0000
      9 H1         0.2773   -0.4605   -0.0721 H         1 RES1    0.0000
     10 H2        -0.6916   -0.3743    1.1572 H         1 RES1    0.0000
     11 H3         0.5824   -1.2854    1.2262 H         1 RES1    0.0000
     12 C2         0.5500    1.4568    2.5160 C.3       1 RES1    0.0000
     13 H4        -0.4021    1.5656    2.4632 H         1 RES1    0.0000
     14 H5         0.9504    2.3274    2.4540 H         1 RES1    0.0000
@<TRIPOS>BOND
     1    1    2 1
     2    2    6 2
     3    3    4 2
     4    4    5 2
     5    7    2 2
     6    8    1 1
     7    9    8 1
     8   10    8 1
     9   11    8 1
    10   12    1 1
    11   13   12 1
    12   14   12 1
    13    3   12 1
@<TRIPOS>SUBSTRUCTURE
     1 RES1 1

@<TRIPOS>CRYSIN
   5.7776    6.5782   15.3472  90.0000  90.0000  90.0000  19 1

