# MOL2 file generated by ConQuest
# Please check atom types

@<TRIPOS>MOLECULE
MILDAM
    58    60     1
SMALL
NO_CHARGES
****
Generated from CSD

@<TRIPOS>ATOM
      1 O1         6.7821   10.0285    2.3323 O.2       1 RES1    0.0000
      2 O2         3.9193    7.1449    0.3696 O.2       1 RES1    0.0000
      3 O3         4.7046    5.3492    4.9088 O.3       1 RES1    0.0000
      4 O4         6.1381    9.6841    5.1505 O.3       1 RES1    0.0000
      5 O5         4.8831   12.0261    5.8099 O.3       1 RES1    0.0000
      6 O6         4.4762   14.2946    6.1085 O.3       1 RES1    0.0000
      7 O7         9.1679    8.8171    5.5649 O.3       1 RES1    0.0000
      8 O8         9.3407   11.0760    5.5457 O.3       1 RES1    0.0000
      9 N1         6.3394    8.0903    3.4463 N.am      1 RES1    0.0000
     10 N2         5.4256    8.5083    1.3366 N.am      1 RES1    0.0000
     11 N3         5.9268    6.0713    4.6089 N.3       1 RES1    0.0000
     12 C1         6.2323    8.9549    2.3630 C.2       1 RES1    0.0000
     13 C2         4.6489    7.3563    1.3225 C.2       1 RES1    0.0000
     14 C3         4.8160    6.5321    2.4634 C.2       1 RES1    0.0000
     15 C4         5.6741    6.8622    3.4584 C.2       1 RES1    0.0000
     16 C5         7.0291    5.0665    4.4950 C.3       1 RES1    0.0000
     17 C6         8.2827    5.6960    3.9073 C.3       1 RES1    0.0000
     18 C7         7.3175    4.5748    5.8898 C.3       1 RES1    0.0000
     19 C8         6.6121    3.8884    3.5812 C.3       1 RES1    0.0000
     20 C9         6.9705    8.6508    4.6613 C.3       1 RES1    0.0000
     21 C10        8.3669    9.2375    4.4701 C.3       1 RES1    0.0000
     22 C11        8.2384   10.7292    4.7093 C.3       1 RES1    0.0000
     23 C12        6.8963   10.8717    5.4396 C.3       1 RES1    0.0000
     24 C13        6.0996   12.0499    5.0648 C.3       1 RES1    0.0000
     25 C14        4.0464   13.1045    5.5828 C.3       1 RES1    0.0000
     26 C15        4.4704   14.2993    7.5269 C.3       1 RES1    0.0000
     27 C16       10.0346    9.8765    5.8866 C.3       1 RES1    0.0000
     28 C17       11.3153    9.8147    5.0776 C.3       1 RES1    0.0000
     29 C18       10.2744    9.8409    7.3862 C.3       1 RES1    0.0000
     30 H1         5.2115    9.1449    0.8186 H         1 RES1    0.0000
     31 H2         4.4690    5.7482    2.4301 H         1 RES1    0.0000
     32 H3         4.2977    5.8432    5.5636 H         1 RES1    0.0000
     33 H4         7.9814    6.0808    3.1336 H         1 RES1    0.0000
     34 H5         8.5525    6.3658    4.5021 H         1 RES1    0.0000
     35 H6         9.0380    4.9881    3.8946 H         1 RES1    0.0000
     36 H7         7.6530    5.3919    6.4590 H         1 RES1    0.0000
     37 H8         7.8672    3.9905    5.9474 H         1 RES1    0.0000
     38 H9         6.5964    4.2993    6.3950 H         1 RES1    0.0000
     39 H10        7.2818    3.0879    3.7155 H         1 RES1    0.0000
     40 H11        5.8111    3.4679    4.1568 H         1 RES1    0.0000
     41 H12        6.3252    4.1805    2.9417 H         1 RES1    0.0000
     42 H13        6.9391    7.9335    5.2311 H         1 RES1    0.0000
     43 H14        8.6810    8.9311    3.6643 H         1 RES1    0.0000
     44 H15        8.2955   11.2114    3.9905 H         1 RES1    0.0000
     45 H16        7.1247   10.8789    6.3374 H         1 RES1    0.0000
     46 H17        5.8825   11.9953    4.1823 H         1 RES1    0.0000
     47 H18        6.5964   12.8504    5.0648 H         1 RES1    0.0000
     48 H19        3.1269   12.7554    5.8706 H         1 RES1    0.0000
     49 H20        3.9693   13.2542    4.6044 H         1 RES1    0.0000
     50 H21        3.6837   14.1568    7.8659 H         1 RES1    0.0000
     51 H22        4.8974   15.3207    7.6740 H         1 RES1    0.0000
     52 H23        5.3114   13.7530    7.9938 H         1 RES1    0.0000
     53 H24       11.2082    9.7625    4.2207 H         1 RES1    0.0000
     54 H25       11.7936   10.5463    5.3079 H         1 RES1    0.0000
     55 H26       11.7936    9.0736    5.2951 H         1 RES1    0.0000
     56 H27       10.8798   10.5226    7.7188 H         1 RES1    0.0000
     57 H28       10.6086    8.9311    7.5461 H         1 RES1    0.0000
     58 H29        9.3521   10.0000    7.8531 H         1 RES1    0.0000
@<TRIPOS>BOND
     1    1   12 2
     2    2   13 2
     3    3   11 1
     4    4   20 1
     5    5   24 1
     6    6   25 1
     7    7   21 1
     8    8   22 1
     9    9   12 1
    10   10   12 1
    11   11   15 1
    12   13   10 1
    13   14   13 1
    14   15    9 1
    15   16   11 1
    16   17   16 1
    17   18   16 1
    18   19   16 1
    19   20    9 1
    20   21   20 1
    21   22   21 1
    22   23    4 1
    23   24   23 1
    24   25    5 1
    25   26    6 1
    26   27    7 1
    27   28   27 1
    28   29   27 1
    29   30   10 1
    30   31   14 1
    31   32    3 1
    32   33   17 1
    33   34   17 1
    34   35   17 1
    35   36   18 1
    36   37   18 1
    37   38   18 1
    38   39   19 1
    39   40   19 1
    40   41   19 1
    41   42   20 1
    42   43   21 1
    43   44   22 1
    44   45   23 1
    45   46   24 1
    46   47   24 1
    47   48   25 1
    48   49   25 1
    49   50   26 1
    50   51   26 1
    51   52   26 1
    52   53   28 1
    53   54   28 1
    54   55   28 1
    55   56   29 1
    56   57   29 1
    57   58   29 1
    58    8   27 1
    59   14   15 2
    60   22   23 1
@<TRIPOS>SUBSTRUCTURE
     1 RES1 1

@<TRIPOS>CRYSIN
  14.2780   23.7530    6.3950  90.0000  90.0000  90.0000  19 1

