# MOL2 file generated by ConQuest
# Please check atom types

@<TRIPOS>MOLECULE
MILGAR
    44    46     1
SMALL
NO_CHARGES
****
Generated from CSD

@<TRIPOS>ATOM
      1 O1         8.8698    4.0996    7.9225 O.2       1 RES1    0.0000
      2 N1         9.0236    5.7120    4.7817 N.2       1 RES1    0.0000
      3 C1         8.4543    4.5892    5.5299 C.3       1 RES1    0.0000
      4 O2         9.9515    5.7789    6.8628 O.3       1 RES1    0.0000
      5 N2         4.8281    4.6712    4.2751 N.pl3     1 RES1    0.0000
      6 C2         9.0548    4.7311    6.9257 C.2       1 RES1    0.0000
      7 O3         4.2821    3.7979    4.9418 O.2       1 RES1    0.0000
      8 C3         9.8366    6.2979    5.5687 C.2       1 RES1    0.0000
      9 O4         4.2192    5.5388    3.6578 O.2       1 RES1    0.0000
     10 C4         8.9431    3.2639    4.9306 C.3       1 RES1    0.0000
     11 H1         9.9167    3.2007    5.0284 H         1 RES1    0.0000
     12 H2         8.7073    3.2288    3.9804 H         1 RES1    0.0000
     13 H3         8.5189    2.5167    5.4006 H         1 RES1    0.0000
     14 O5         5.2032    9.1674    8.7068 O.3       1 RES1    0.0000
     15 C5         6.9087    4.6961    5.6137 C.3       1 RES1    0.0000
     16 H4         6.5754    3.8854    6.0954 H         1 RES1    0.0000
     17 C6         6.3258    4.6654    4.1979 C.3       1 RES1    0.0000
     18 H5         6.6377    5.4551    3.6899 H         1 RES1    0.0000
     19 H6         6.6335    3.8513    3.7264 H         1 RES1    0.0000
     20 C7         6.4470    5.9178    6.3952 C.ar      1 RES1    0.0000
     21 C8         5.9561    5.7733    7.6992 C.ar      1 RES1    0.0000
     22 H7         5.8988    4.9049    8.0804 H         1 RES1    0.0000
     23 C9         5.5538    6.8693    8.4439 C.ar      1 RES1    0.0000
     24 H8         5.2406    6.7505    9.3328 H         1 RES1    0.0000
     25 C10        5.6072    8.1457    7.8903 C.ar      1 RES1    0.0000
     26 C11        6.0815    8.3177    6.5886 C.ar      1 RES1    0.0000
     27 H9         6.1150    9.1846    6.2019 H         1 RES1    0.0000
     28 C12        6.5048    7.2054    5.8626 C.ar      1 RES1    0.0000
     29 H10        6.8407    7.3279    4.9831 H         1 RES1    0.0000
     30 C13        5.4097   10.4986    8.2344 C.3       1 RES1    0.0000
     31 H11        4.8556   10.6538    7.4411 H         1 RES1    0.0000
     32 H12        6.3544   10.6197    8.0016 H         1 RES1    0.0000
     33 H13        5.1609   11.1367    8.9358 H         1 RES1    0.0000
     34 C14       10.6704    7.4620    5.2701 C.ar      1 RES1    0.0000
     35 C15       10.3997    8.2113    4.1196 C.ar      1 RES1    0.0000
     36 H14        9.6635    7.9829    3.5644 H         1 RES1    0.0000
     37 C16       11.2087    9.2869    3.7934 C.ar      1 RES1    0.0000
     38 H15       11.0327    9.7944    3.0097 H         1 RES1    0.0000
     39 C17       12.2793    9.6232    4.6141 C.ar      1 RES1    0.0000
     40 H16       12.8343   10.3608    4.3891 H         1 RES1    0.0000
     41 C18       12.5400    8.8891    5.7554 C.ar      1 RES1    0.0000
     42 H17       13.2690    9.1293    6.3143 H         1 RES1    0.0000
     43 C19       11.7439    7.8037    6.0913 C.ar      1 RES1    0.0000
     44 H18       11.9284    7.2981    6.8733 H         1 RES1    0.0000
@<TRIPOS>BOND
     1    1    6 2
     2    2    3 1
     3    3    6 1
     4    4    6 1
     5    5    7 2
     6    8    2 2
     7    9    5 2
     8   10    3 1
     9   11   10 1
    10   12   10 1
    11   13   10 1
    12   14   25 1
    13   15    3 1
    14   16   15 1
    15   17    5 1
    16   18   17 1
    17   19   17 1
    18   20   15 1
    19   21   20 ar
    20   22   21 1
    21   23   21 ar
    22   24   23 1
    23   25   23 ar
    24   26   25 ar
    25   27   26 1
    26   28   20 ar
    27   29   28 1
    28   30   14 1
    29   31   30 1
    30   32   30 1
    31   33   30 1
    32   34    8 1
    33   35   34 ar
    34   36   35 1
    35   37   35 ar
    36   38   37 1
    37   39   37 ar
    38   40   39 1
    39   41   39 ar
    40   42   41 1
    41   43   34 ar
    42   44   43 1
    43    4    8 1
    44   15   17 1
    45   26   28 ar
    46   41   43 ar
@<TRIPOS>SUBSTRUCTURE
     1 RES1 1

@<TRIPOS>CRYSIN
  13.8539    8.5169   15.8337  90.0000 112.8030  90.0000  14 1

