# MOL2 file generated by ConQuest
# Please check atom types

@<TRIPOS>MOLECULE
MILXAH
    35    36     1
SMALL
NO_CHARGES
****
Generated from CSD

@<TRIPOS>ATOM
      1 O1         4.9261    2.7213    3.4256 O.3       1 RES1    0.0000
      2 O2         3.5852    1.2454   -1.7009 O.3       1 RES1    0.0000
      3 H1         4.2519    1.2859   -2.2104 H         1 RES1    0.0000
      4 O3         6.0306    1.5383   -2.2472 O.2       1 RES1    0.0000
      5 O4         7.3164    2.6649   -0.9564 O.2       1 RES1    0.0000
      6 N1         6.2641    2.0670   -1.1429 N.pl3     1 RES1    0.0000
      7 C1         4.0573    2.3421    4.5361 C.3       1 RES1    0.0000
      8 C2         2.6238    2.6554    4.1417 C.3       1 RES1    0.0000
      9 H2         2.0202    2.4119    4.8877 H         1 RES1    0.0000
     10 H3         2.5350    3.6280    3.9826 H         1 RES1    0.0000
     11 C3         2.2021    1.9048    2.8934 C.3       1 RES1    0.0000
     12 H4         1.9951    0.9661    3.1327 H         1 RES1    0.0000
     13 H5         1.3775    2.3147    2.5306 H         1 RES1    0.0000
     14 C4         3.2746    1.9221    1.8310 C.ar      1 RES1    0.0000
     15 C5         2.9760    1.5323    0.5328 C.ar      1 RES1    0.0000
     16 C6         3.9565    1.5813   -0.4482 C.ar      1 RES1    0.0000
     17 C7         5.2705    1.9891   -0.0970 C.ar      1 RES1    0.0000
     18 C8         5.6093    2.3248    1.2262 C.ar      1 RES1    0.0000
     19 C9         4.5833    2.3104    2.1616 C.ar      1 RES1    0.0000
     20 C10        4.5070    3.2296    5.6745 C.3       1 RES1    0.0000
     21 H6         4.4042    4.1697    5.4175 H         1 RES1    0.0000
     22 H7         5.4490    3.0488    5.8767 H         1 RES1    0.0000
     23 H8         3.9612    3.0466    6.4674 H         1 RES1    0.0000
     24 C11        4.2781    0.8767    4.8469 C.3       1 RES1    0.0000
     25 H9         5.2255    0.7240    5.0478 H         1 RES1    0.0000
     26 H10        4.0168    0.3357    4.0721 H         1 RES1    0.0000
     27 H11        3.7354    0.6217    5.6214 H         1 RES1    0.0000
     28 C12        1.5871    1.0734    0.1568 C.3       1 RES1    0.0000
     29 H12        1.2325    0.4935    0.8632 H         1 RES1    0.0000
     30 H13        1.6242    0.5763   -0.6860 H         1 RES1    0.0000
     31 H14        1.0032    1.8536    0.0514 H         1 RES1    0.0000
     32 C13        7.0039    2.6425    1.7079 C.3       1 RES1    0.0000
     33 H15        7.6449    2.0438    1.2710 H         1 RES1    0.0000
     34 H16        7.0503    2.5186    2.6792 H         1 RES1    0.0000
     35 H17        7.2218    3.5718    1.4863 H         1 RES1    0.0000
@<TRIPOS>BOND
     1    1    7 1
     2    2    3 1
     3    4    6 2
     4    5    6 2
     5    6   17 1
     6    7    8 1
     7    8    9 1
     8   10    8 1
     9   11    8 1
    10   12   11 1
    11   13   11 1
    12   14   11 1
    13   15   14 ar
    14   16    2 1
    15   17   16 ar
    16   18   17 ar
    17   19    1 1
    18   20    7 1
    19   21   20 1
    20   22   20 1
    21   23   20 1
    22   24    7 1
    23   25   24 1
    24   26   24 1
    25   27   24 1
    26   28   15 1
    27   29   28 1
    28   30   28 1
    29   31   28 1
    30   32   18 1
    31   33   32 1
    32   34   32 1
    33   35   32 1
    34   14   19 ar
    35   15   16 ar
    36   18   19 ar
@<TRIPOS>SUBSTRUCTURE
     1 RES1 1

@<TRIPOS>CRYSIN
   8.8349    7.2041   19.1130  90.0000  94.4480  90.0000 231 1

