# MOL2 file generated by ConQuest
# Please check atom types

@<TRIPOS>MOLECULE
MILXIP
    32    33     1
SMALL
NO_CHARGES
****
Generated from CSD

@<TRIPOS>ATOM
      1 O1         1.6610    0.8365    1.7029 O.3       1 RES1    0.0000
      2 O2         0.7817    4.9504    5.2468 O.3       1 RES1    0.0000
      3 H1         0.7383    4.7110    6.0506 H         1 RES1    0.0000
      4 O3         0.5955    1.1677    6.7260 O.2       1 RES1    0.0000
      5 O4         0.8321    3.2555    7.1210 O.2       1 RES1    0.0000
      6 N1         0.8246    2.2933    6.3270 N.pl3     1 RES1    0.0000
      7 C1         1.4442   -0.5674    2.0156 C.3       1 RES1    0.0000
      8 C2         2.0596   -0.8457    3.3756 C.3       1 RES1    0.0000
      9 H2         3.0337   -0.6717    3.3333 H         1 RES1    0.0000
     10 H3         1.9316   -1.8011    3.6018 H         1 RES1    0.0000
     11 C3         1.4453    0.0153    4.4735 C.3       1 RES1    0.0000
     12 H4         0.5583   -0.3506    4.7181 H         1 RES1    0.0000
     13 H5         2.0224   -0.0182    5.2772 H         1 RES1    0.0000
     14 C4         1.2878    1.4514    4.0292 C.ar      1 RES1    0.0000
     15 C5         1.0487    2.5447    4.9179 C.ar      1 RES1    0.0000
     16 C6         0.9889    3.8667    4.4644 C.ar      1 RES1    0.0000
     17 C7         1.1213    4.1076    3.1080 C.ar      1 RES1    0.0000
     18 H6         1.0776    5.0026    2.7926 H         1 RES1    0.0000
     19 C8         1.3146    3.0868    2.1995 C.ar      1 RES1    0.0000
     20 C9         1.4092    1.7669    2.6837 C.ar      1 RES1    0.0000
     21 C10        2.1753   -1.3159    0.9149 C.3       1 RES1    0.0000
     22 H7         3.1308   -1.1042    0.9545 H         1 RES1    0.0000
     23 H8         1.8167   -1.0469    0.0432 H         1 RES1    0.0000
     24 H9         2.0488   -2.2807    1.0354 H         1 RES1    0.0000
     25 C11       -0.0493   -0.8478    1.9816 C.3       1 RES1    0.0000
     26 H10       -0.5001   -0.2985    2.6565 H         1 RES1    0.0000
     27 H11       -0.2089   -1.7956    2.1738 H         1 RES1    0.0000
     28 H12       -0.4024   -0.6303    1.0942 H         1 RES1    0.0000
     29 C12        1.4189    3.3626    0.7329 C.3       1 RES1    0.0000
     30 H13        1.3512    4.3282    0.5765 H         1 RES1    0.0000
     31 H14        0.6918    2.9042    0.2621 H         1 RES1    0.0000
     32 H15        2.2810    3.0376    0.4000 H         1 RES1    0.0000
@<TRIPOS>BOND
     1    1    7 1
     2    2    3 1
     3    4    6 2
     4    5    6 2
     5    6   15 1
     6    7    8 1
     7    8    9 1
     8   10    8 1
     9   11    8 1
    10   12   11 1
    11   13   11 1
    12   14   11 1
    13   15   14 ar
    14   16    2 1
    15   17   16 ar
    16   18   17 1
    17   19   17 ar
    18   20    1 1
    19   21    7 1
    20   22   21 1
    21   23   21 1
    22   24   21 1
    23   25    7 1
    24   26   25 1
    25   27   25 1
    26   28   25 1
    27   29   19 1
    28   30   29 1
    29   31   29 1
    30   32   29 1
    31   14   20 ar
    32   15   16 ar
    33   19   20 ar
@<TRIPOS>SUBSTRUCTURE
     1 RES1 1

@<TRIPOS>CRYSIN
   6.7561    9.3500    9.6965 108.1010  91.7170  96.3120   2 1

