# MOL2 file generated by ConQuest
# Please check atom types

@<TRIPOS>MOLECULE
MILXEL
    50    36     2
SMALL
NO_CHARGES
****
Generated from CSD

@<TRIPOS>ATOM
      1 O1         9.3091    8.0174    1.7788 O.3       1 RES1    0.0000
      2 O2         3.9992    9.3021    1.7788 O.3       1 RES1    0.0000
      3 H1         3.5177    8.6817    1.5443 H         1 RES1    0.0000
      4 O3         4.9413    5.3995    1.8851 O.2       1 RES1    0.0000
      5 O4         3.4486    6.8775    1.7788 O.2       1 RES1    0.0000
      6 N1         4.6405    6.5430    1.7717 N.pl3     1 RES1    0.0000
      7 C1         7.0343    7.1827    1.7434 C.ar      1 RES1    0.0000
      8 C2         5.6787    7.5629    1.7859 C.ar      1 RES1    0.0000
      9 C3         5.2777    8.8893    1.8143 C.ar      1 RES1    0.0000
     10 C4         6.2479    9.8880    1.8214 C.ar      1 RES1    0.0000
     11 C5         7.5756    9.5519    1.8143 C.ar      1 RES1    0.0000
     12 C6         7.9532    8.1990    1.7859 C.ar      1 RES1    0.0000
     13 C7         5.7845   11.3373    1.7717 C.3       1 RES1    0.0000
     14 H2         4.8867   11.3741    1.4330 H         1 RES1    0.0000
     15 H3         6.3637   11.8387    1.1913 H         1 RES1    0.0000
     16 H4         5.8101   11.7135    2.6527 H         1 RES1    0.0000
     17 C8         8.6628   10.6020    1.8284 C.3       1 RES1    0.0000
     18 H5         9.4849   10.2141    1.5180 H         1 RES1    0.0000
     19 H6         8.7809   10.9308    2.7214 H         1 RES1    0.0000
     20 H7         8.4133   11.3279    1.2501 H         1 RES1    0.0000
     21 C9         9.8168    6.6419    1.8632 C.3       1 RES1    0.0000
     22 C10        8.8767    5.7455    0.9709 C.3       1 RES1    0.0000
     23 H8         9.2253    4.8442    0.8923 H         1 RES1    0.0000
     24 H9         8.7731    6.1245    0.0836 H         1 RES1    0.0000
     25 C11        7.5077    5.7571    1.7576 C.3       1 RES1    0.0000
     26 H10        6.8616    5.1804    1.3189 H         1 RES1    0.0000
     27 H11        7.6358    5.4489    2.6654 H         1 RES1    0.0000
     28 C12       11.2237    6.8264    1.3678 C.3       1 RES1    0.0000
     29 H12       11.7249    7.3323    2.0120 H         1 RES1    0.0000
     30 H13       11.2092    7.2977    0.5322 H         1 RES1    0.0000
     31 H14       11.6358    5.9680    1.2452 H         1 RES1    0.0000
     32 C13        9.7600    6.3288    3.3323 C.3       1 RES1    0.0000
     33 H15       10.3337    6.9335    3.8100 H         1 RES1    0.0000
     34 H16       10.0518    5.4259    3.4790 H         1 RES1    0.0000
     35 H17        8.8577    6.4293    3.6463 H         1 RES1    0.0000
     36 C14        9.8179    6.6402    1.8065 Du        2 SUP2    0.0000
     37 C15        8.8611    5.6368    2.5584 Du        2 SUP2    0.0000
     38 H18        8.7419    5.8938    3.4826 Du        2 SUP2    0.0000
     39 H19        9.2075    4.7305    2.5194 Du        2 SUP2    0.0000
     40 C16        7.5077    5.7571    1.7576 Du        2 SUP2    0.0000
     41 H20        7.6402    5.4506    0.8441 Du        2 SUP2    0.0000
     42 H21        6.8349    5.1936    2.1672 Du        2 SUP2    0.0000
     43 C17       11.1657    6.5990    2.4734 Du        2 SUP2    0.0000
     44 H22       11.7717    7.1774    2.0007 Du        2 SUP2    0.0000
     45 H23       11.5044    5.7010    2.4535 Du        2 SUP2    0.0000
     46 H24       11.0833    6.8923    3.3805 Du        2 SUP2    0.0000
     47 C18        9.8803    6.2728    0.3515 Du        2 SUP2    0.0000
     48 H25       10.4640    6.8824   -0.1077 Du        2 SUP2    0.0000
     49 H26        9.0014    6.3222   -0.0298 Du        2 SUP2    0.0000
     50 H27       10.2189    5.3781    0.2608 Du        2 SUP2    0.0000
@<TRIPOS>BOND
     1    1   12 1
     2    2    3 1
     3    4    6 2
     4    5    6 2
     5    6    8 1
     6    7    8 ar
     7    8    9 ar
     8    9    2 1
     9   10    9 ar
    10   11   10 ar
    11   12    7 ar
    12   13   10 1
    13   14   13 1
    14   15   13 1
    15   16   13 1
    16   17   11 1
    17   18   17 1
    18   19   17 1
    19   20   17 1
    20   21    1 1
    21   22   21 1
    22   23   22 1
    23   24   22 1
    24   25    7 1
    25   26   25 1
    26   27   25 1
    27   28   21 1
    28   29   28 1
    29   30   28 1
    30   31   28 1
    31   32   21 1
    32   33   32 1
    33   34   32 1
    34   35   32 1
    35   11   12 ar
    36   22   25 1
@<TRIPOS>SUBSTRUCTURE
     1 RES1 1
     2 SUP2 36

@<TRIPOS>CRYSIN
  11.1390   16.4770    7.0870  90.0000  90.0000  90.0000  33 1

