# MOL2 file generated by ConQuest
# Please check atom types

@<TRIPOS>MOLECULE
MIMVIO
    68    55     2
SMALL
NO_CHARGES
****
Generated from CSD

@<TRIPOS>ATOM
      1 O1        -0.7034   16.0738   -5.4709 O.3       1 RES1    0.0000
      2 H1        -0.6413   16.6345   -6.0935 H         1 RES1    0.0000
      3 C1        -0.8514   14.8330   -5.9930 C.ar      1 RES1    0.0000
      4 C2        -1.1012   14.5742   -7.3281 C.ar      1 RES1    0.0000
      5 N1        -1.2703   15.6568   -8.2802 N.pl3     1 RES1    0.0000
      6 O2        -1.1237   16.8238   -7.8857 O.2       1 RES1    0.0000
      7 O3        -1.5440   15.4141   -9.4353 O.2       1 RES1    0.0000
      8 C3        -1.2172   13.2714   -7.8272 C.ar      1 RES1    0.0000
      9 H2        -1.3834   13.1322   -8.7521 H         1 RES1    0.0000
     10 C4        -1.0911   12.1848   -6.9807 C.ar      1 RES1    0.0000
     11 C5        -0.8700   12.4600   -5.6248 C.ar      1 RES1    0.0000
     12 H3        -0.7994   11.7262   -5.0252 H         1 RES1    0.0000
     13 C6        -0.7492   13.7399   -5.1068 C.ar      1 RES1    0.0000
     14 C7        -0.5001   13.9738   -3.6797 C.2       1 RES1    0.0000
     15 H4        -0.3873   14.8551   -3.3418 H         1 RES1    0.0000
     16 N2        -0.4388   12.9659   -2.9076 N.2       1 RES1    0.0000
     17 N3        -0.1828   13.2038   -1.5820 N.am      1 RES1    0.0000
     18 H5        -0.0430   14.0290   -1.3110 H         1 RES1    0.0000
     19 C8        -0.1407   12.1986   -0.6905 C.2       1 RES1    0.0000
     20 O4         0.0871   12.4453    0.4928 O.2       1 RES1    0.0000
     21 C9        -0.3595   10.7969   -1.1948 C.3       1 RES1    0.0000
     22 H6         0.0052   10.7276   -2.1135 H         1 RES1    0.0000
     23 H7        -1.3324   10.6201   -1.2430 H         1 RES1    0.0000
     24 C10        0.2919    9.7318   -0.3243 C.3       1 RES1    0.0000
     25 H8         1.2766    9.7968   -0.4070 H         1 RES1    0.0000
     26 H9         0.0534    9.8930    0.6236 H         1 RES1    0.0000
     27 C11       -0.1526    8.3399   -0.7230 C.3       1 RES1    0.0000
     28 H10        0.3736    8.0485   -1.5087 H         1 RES1    0.0000
     29 H11       -1.1048    8.3710   -0.9919 H         1 RES1    0.0000
     30 C12        0.0210    7.2762    0.4342 C.3       1 RES1    0.0000
     31 H12       -0.3492    7.6213    1.2859 H         1 RES1    0.0000
     32 H13       -0.4437    6.4331    0.2051 H         1 RES1    0.0000
     33 C13        1.0468    7.2762   -0.3369 Du        2 SUP2    0.0000
     34 H14        0.9856    6.4586   -0.8935 Du        2 SUP2    0.0000
     35 H15        1.9380    7.6864   -0.4698 Du        2 SUP2    0.0000
     36 C14        1.4923    7.0612    0.5441 C.3       1 RES1    0.0000
     37 H16        1.9000    7.8703    0.9406 H         1 RES1    0.0000
     38 H17        1.8623    6.9565   -0.3704 H         1 RES1    0.0000
     39 C15        0.8165    6.9480    1.1300 Du        2 SUP2    0.0000
     40 H18        0.9985    7.7571    1.6719 Du        2 SUP2    0.0000
     41 H19       -0.1287    6.6991    1.2597 Du        2 SUP2    0.0000
     42 C16        1.8822    5.8645    1.3602 C.3       1 RES1    0.0000
     43 H20        1.3310    5.8532    2.1846 H         1 RES1    0.0000
     44 H21        1.6679    5.0469    0.8485 H         1 RES1    0.0000
     45 C17        1.6942    5.8306    1.6113 Du        2 SUP2    0.0000
     46 H22        1.4348    5.6071    2.5403 Du        2 SUP2    0.0000
     47 H23        1.5231    5.0328    1.0515 Du        2 SUP2    0.0000
     48 C18        3.3057    5.7995    1.7577 C.3       1 RES1    0.0000
     49 H24        3.8611    6.1389    1.0285 H         1 RES1    0.0000
     50 H25        3.5477    4.8744    1.9544 H         1 RES1    0.0000
     51 H26        3.4441    6.3511    2.5581 H         1 RES1    0.0000
     52 C19        3.1491    6.1389    1.5799 Du        2 SUP2    0.0000
     53 H27        3.3538    6.8349    2.2369 Du        2 SUP2    0.0000
     54 H28        3.4020    6.4473    0.6853 Du        2 SUP2    0.0000
     55 H29        3.6596    5.3270    1.7975 Du        2 SUP2    0.0000
     56 C20       -1.1745   10.7361   -7.4672 C.3       1 RES1    0.0000
     57 C21        0.1202   10.0401   -7.0749 C.3       1 RES1    0.0000
     58 H30        0.2423   10.0995   -6.1039 H         1 RES1    0.0000
     59 H31        0.8747   10.4730   -7.5258 H         1 RES1    0.0000
     60 H32        0.0779    9.0981   -7.3406 H         1 RES1    0.0000
     61 C22       -1.3316   10.6568   -8.9760 C.3       1 RES1    0.0000
     62 H33       -2.1442   11.1349   -9.2448 H         1 RES1    0.0000
     63 H34       -1.4000    9.7204   -9.2490 H         1 RES1    0.0000
     64 H35       -0.5532   11.0670   -9.4070 H         1 RES1    0.0000
     65 C23       -2.3825   10.0712   -6.8206 C.3       1 RES1    0.0000
     66 H36       -3.1986   10.5352   -7.1000 H         1 RES1    0.0000
     67 H37       -2.2977   10.1165   -5.8455 H         1 RES1    0.0000
     68 H38       -2.4277    9.1320   -7.1010 H         1 RES1    0.0000
@<TRIPOS>BOND
     1    1    2 1
     2    3    1 1
     3    4    3 ar
     4    5    4 1
     5    6    5 2
     6    7    5 2
     7    8    4 ar
     8    9    8 1
     9   10    8 ar
    10   11   10 ar
    11   12   11 1
    12   13    3 ar
    13   14   13 1
    14   15   14 1
    15   16   14 2
    16   17   16 1
    17   18   17 1
    18   19   17 1
    19   20   19 2
    20   21   19 1
    21   22   21 1
    22   23   21 1
    23   24   21 1
    24   25   24 1
    25   26   24 1
    26   27   24 1
    27   28   27 1
    28   29   27 1
    29   30   27 1
    30   31   30 1
    31   32   30 1
    32   36   30 1
    33   37   36 1
    34   38   36 1
    35   42   36 1
    36   43   42 1
    37   44   42 1
    38   48   42 1
    39   49   48 1
    40   50   48 1
    41   51   48 1
    42   56   10 1
    43   57   56 1
    44   58   57 1
    45   59   57 1
    46   60   57 1
    47   61   56 1
    48   62   61 1
    49   63   61 1
    50   64   61 1
    51   65   56 1
    52   66   65 1
    53   67   65 1
    54   68   65 1
    55   11   13 ar
@<TRIPOS>SUBSTRUCTURE
     1 RES1 1
     2 SUP2 33

@<TRIPOS>CRYSIN
   6.6500   28.2900   10.6060  90.0000  99.4290  90.0000  14 1

