# MOL2 file generated by ConQuest
# Please check atom types

@<TRIPOS>MOLECULE
MIMXOW
    19    19     1
SMALL
NO_CHARGES
****
Generated from CSD

@<TRIPOS>ATOM
      1 C1         2.0171    2.7365    2.5502 C.ar      1 RES1    0.0000
      2 C2         1.1478    2.3611    3.7019 C.2       1 RES1    0.0000
      3 C3         0.5701    3.4982    4.5168 C.3       1 RES1    0.0000
      4 N1        -0.1396    2.9404    5.6960 N.pl3     1 RES1    0.0000
      5 O1         0.4278    2.9958    6.7724 O.2       1 RES1    0.0000
      6 O2        -1.2331    2.4272    5.5171 O.2       1 RES1    0.0000
      7 O3         0.9271    1.2051    3.9891 O.2       1 RES1    0.0000
      8 C4         2.3171    4.0695    2.2602 C.ar      1 RES1    0.0000
      9 C5         3.1669    4.3699    1.2077 C.ar      1 RES1    0.0000
     10 C6         3.7015    3.3543    0.4432 C.ar      1 RES1    0.0000
     11 C7         3.3874    2.0267    0.7213 C.ar      1 RES1    0.0000
     12 C8         2.5534    1.7236    1.7748 C.ar      1 RES1    0.0000
     13 H1         1.3075    4.0999    4.8233 H         1 RES1    0.0000
     14 H2        -0.0732    4.0203    3.9552 H         1 RES1    0.0000
     15 H3         1.9215    4.8044    2.8127 H         1 RES1    0.0000
     16 H4         3.3920    5.3238    1.0030 H         1 RES1    0.0000
     17 H5         4.3152    3.5742   -0.3148 H         1 RES1    0.0000
     18 H6         3.7662    1.2945    0.1560 H         1 RES1    0.0000
     19 H7         2.3370    0.7688    1.9813 H         1 RES1    0.0000
@<TRIPOS>BOND
     1    1    2 1
     2    2    3 1
     3    3    4 1
     4    4    5 2
     5    6    4 2
     6    7    2 2
     7    8    1 ar
     8    9    8 ar
     9   10    9 ar
    10   11   10 ar
    11   12    1 ar
    12   13    3 1
    13   14    3 1
    14   15    8 1
    15   16    9 1
    16   17   10 1
    17   18   11 1
    18   19   12 1
    19   11   12 ar
@<TRIPOS>SUBSTRUCTURE
     1 RES1 1

@<TRIPOS>CRYSIN
   4.6550    8.9400    9.1990  90.0000  93.9870  90.0000   4 1

