# MOL2 file generated by ConQuest
# Please check atom types

@<TRIPOS>MOLECULE
MIMXOW02
    19    19     1
SMALL
NO_CHARGES
****
Generated from CSD

@<TRIPOS>ATOM
      1 O1         0.5520    3.1319    8.5736 O.2       1 RES1    0.0000
      2 O2        -1.6109    4.3583   10.1053 O.2       1 RES1    0.0000
      3 O3         0.0548    4.9286   11.3705 O.2       1 RES1    0.0000
      4 N1        -0.5153    4.8706   10.2868 N.pl3     1 RES1    0.0000
      5 C1         0.7824    4.2915    8.2829 C.2       1 RES1    0.0000
      6 C2         0.1949    5.4388    9.1033 C.3       1 RES1    0.0000
      7 H1         0.9185    6.0446    9.4025 H         1 RES1    0.0000
      8 H2        -0.4380    5.9605    8.5492 H         1 RES1    0.0000
      9 C3         1.6496    4.6751    7.1356 C.ar      1 RES1    0.0000
     10 C4         1.9546    6.0112    6.8479 C.ar      1 RES1    0.0000
     11 H3         1.5789    6.7099    7.3710 H         1 RES1    0.0000
     12 C5         2.8117    6.3109    5.7908 C.ar      1 RES1    0.0000
     13 H4         3.0259    7.2161    5.5973 H         1 RES1    0.0000
     14 C6         3.3528    5.2915    5.0198 C.ar      1 RES1    0.0000
     15 H5         3.9382    5.5008    4.3017 H         1 RES1    0.0000
     16 C7         3.0398    3.9612    5.2964 C.ar      1 RES1    0.0000
     17 H6         3.4043    3.2660    4.7614 H         1 RES1    0.0000
     18 C8         2.1937    3.6521    6.3562 C.ar      1 RES1    0.0000
     19 H7         1.9859    2.7455    6.5497 H         1 RES1    0.0000
@<TRIPOS>BOND
     1    1    5 2
     2    2    4 2
     3    3    4 2
     4    4    6 1
     5    5    6 1
     6    6    7 1
     7    8    6 1
     8    9    5 1
     9   10    9 ar
    10   11   10 1
    11   12   10 ar
    12   13   12 1
    13   14   12 ar
    14   15   14 1
    15   16   14 ar
    16   17   16 1
    17   18    9 ar
    18   19   18 1
    19   16   18 ar
@<TRIPOS>SUBSTRUCTURE
     1 RES1 1

@<TRIPOS>CRYSIN
   4.6433    8.9430    9.2020  90.0000  94.3180  90.0000   4 1

