# MOL2 file generated by ConQuest
# Please check atom types

@<TRIPOS>MOLECULE
MINFUM
    36    29     2
SMALL
NO_CHARGES
****
Generated from CSD

@<TRIPOS>ATOM
      1 O1        -1.3084    7.2480    5.5133 O.2       1 RES1    0.0000
      2 O2        -1.0853    7.4306    7.6476 O.2       1 RES1    0.0000
      3 O3         2.9529    6.2798    9.8933 O.2       1 RES1    0.0000
      4 O4         4.3377    4.9642    8.8859 O.2       1 RES1    0.0000
      5 O5         4.0921    4.5546    4.0145 O.2       1 RES1    0.0000
      6 O6         3.1260    6.2501    3.0811 O.2       1 RES1    0.0000
      7 O7         0.6180    6.2039    4.0578 O.3       1 RES1    0.0000
      8 O8         0.8321    8.4381    3.7903 O.2       1 RES1    0.0000
      9 N1        -0.6601    7.1435    6.5373 N.pl3     1 RES1    0.0000
     10 N2         3.3780    5.7091    8.8992 N.pl3     1 RES1    0.0000
     11 N3         3.3191    5.5018    4.0229 N.pl3     1 RES1    0.0000
     12 C1         1.3061    6.2577    5.2491 C.ar      1 RES1    0.0000
     13 C2         0.7283    6.6382    6.4609 C.ar      1 RES1    0.0000
     14 C3         1.4047    6.4955    7.6583 C.ar      1 RES1    0.0000
     15 H1         1.0115    6.7715    8.4776 H         1 RES1    0.0000
     16 C4         2.6689    5.9401    7.6288 C.ar      1 RES1    0.0000
     17 C5         3.2957    5.5570    6.4574 C.ar      1 RES1    0.0000
     18 H2         4.1588    5.1613    6.4627 H         1 RES1    0.0000
     19 C6         2.6107    5.7770    5.2788 C.ar      1 RES1    0.0000
     20 C7         0.4451    7.3814    3.3779 C.2       1 RES1    0.0000
     21 C8        -0.2271    7.1351    2.1132 C.2       1 RES1    0.0000
     22 O9        -0.3734    8.2239    1.2913 O.3       1 RES1    0.0000
     23 C9        -0.7538    6.0055    1.5906 C.2       1 RES1    0.0000
     24 H3        -0.7914    5.1451    1.9923 H         1 RES1    0.0000
     25 C10       -1.2450    6.3860    0.2931 C.2       1 RES1    0.0000
     26 H4        -1.6560    5.8161   -0.3464 H         1 RES1    0.0000
     27 C11       -1.0115    7.7066    0.1578 C.2       1 RES1    0.0000
     28 H5        -1.2479    8.2196   -0.6067 H         1 RES1    0.0000
     29 C12       -0.3123    7.0917    2.1522 Du        2 SUP2    0.0000
     30 O10       -0.5466    7.9410    1.0904 Du        2 SUP2    0.0000
     31 C13       -0.7311    5.8348    1.9677 Du        2 SUP2    0.0000
     32 H6        -0.6403    5.0772    2.5375 Du        2 SUP2    0.0000
     33 C14       -1.3345    5.9180    0.7440 Du        2 SUP2    0.0000
     34 H7        -1.7916    5.1935    0.3341 Du        2 SUP2    0.0000
     35 C15       -1.2138    7.1342    0.1804 Du        2 SUP2    0.0000
     36 H8        -1.5268    7.3873   -0.6805 Du        2 SUP2    0.0000
@<TRIPOS>BOND
     1    1    9 2
     2    2    9 2
     3    3   10 2
     4    4   10 2
     5    5   11 2
     6    6   11 2
     7    7   12 1
     8    8   20 2
     9    9   13 1
    10   10   16 1
    11   11   19 1
    12   12   13 ar
    13   13   14 ar
    14   14   15 1
    15   16   14 ar
    16   17   16 ar
    17   18   17 1
    18   19   12 ar
    19   20    7 1
    20   21   20 1
    21   22   21 1
    22   23   21 2
    23   24   23 1
    24   25   23 1
    25   26   25 1
    26   27   22 1
    27   28   27 1
    28   17   19 ar
    29   25   27 2
@<TRIPOS>SUBSTRUCTURE
     1 RES1 1
     2 SUP2 29

@<TRIPOS>CRYSIN
   7.0982    8.4931   20.4970  90.0000  90.0000  90.0000  19 1

