# MOL2 file generated by ConQuest
# Please check atom types

@<TRIPOS>MOLECULE
MINHEY
    34    35     1
SMALL
NO_CHARGES
****
Generated from CSD

@<TRIPOS>ATOM
      1 O1        11.9471    6.8158   19.1575 O.2       1 RES1    0.0000
      2 O2        12.6026    4.7960   19.5404 O.2       1 RES1    0.0000
      3 N1        10.6400    4.5531    8.4290 N.3       1 RES1    0.0000
      4 N2        10.3660    4.7539   11.2587 N.3       1 RES1    0.0000
      5 N3        10.6473    5.1397   12.5410 N.2       1 RES1    0.0000
      6 N4        12.1797    5.6682   18.7963 N.pl3     1 RES1    0.0000
      7 C1         9.7413    5.5390    9.0188 C.3       1 RES1    0.0000
      8 H1         8.8288    5.1598    9.0876 H         1 RES1    0.0000
      9 H2         9.6994    6.3406    8.4403 H         1 RES1    0.0000
     10 C2        10.2373    5.9288   10.3949 C.3       1 RES1    0.0000
     11 H3        11.1161    6.3756   10.3143 H         1 RES1    0.0000
     12 H4         9.6030    6.5705   10.8031 H         1 RES1    0.0000
     13 C3        11.1251    3.6632   10.6589 C.3       1 RES1    0.0000
     14 H5        11.0411    2.8533   11.2226 H         1 RES1    0.0000
     15 H6        12.0815    3.9109   10.6176 H         1 RES1    0.0000
     16 C4        10.6195    3.3635    9.2657 C.3       1 RES1    0.0000
     17 H7        11.1866    2.6626    8.8538 H         1 RES1    0.0000
     18 H8         9.6931    3.0157    9.3200 H         1 RES1    0.0000
     19 C5        11.2440    4.3315   13.3488 C.2       1 RES1    0.0000
     20 H9        11.5359    3.4837   13.0362 H         1 RES1    0.0000
     21 C6        11.4729    4.7090   14.7404 C.ar      1 RES1    0.0000
     22 C7        11.0745    5.9478   15.2582 C.ar      1 RES1    0.0000
     23 H10       10.6452    6.5770   14.6914 H         1 RES1    0.0000
     24 C8        11.3006    6.2636   16.5809 C.ar      1 RES1    0.0000
     25 H11       11.0316    7.1043   16.9305 H         1 RES1    0.0000
     26 C9        11.9304    5.3305   17.3919 C.ar      1 RES1    0.0000
     27 C10       12.3393    4.1011   16.9182 C.ar      1 RES1    0.0000
     28 H12       12.7657    3.4760   17.4933 H         1 RES1    0.0000
     29 C11       12.1175    3.7983   15.5858 C.ar      1 RES1    0.0000
     30 H13       12.4062    2.9612   15.2406 H         1 RES1    0.0000
     31 C12       10.2299    4.2279    7.0652 C.3       1 RES1    0.0000
     32 H14        9.3168    3.8730    7.0749 H         1 RES1    0.0000
     33 H15       10.8371    3.5560    6.6931 H         1 RES1    0.0000
     34 H16       10.2605    5.0372    6.5136 H         1 RES1    0.0000
@<TRIPOS>BOND
     1    1    6 2
     2    2    6 2
     3    3    7 1
     4    4    5 1
     5    5   19 2
     6    6   26 1
     7    7    8 1
     8    9    7 1
     9   10    4 1
    10   11   10 1
    11   12   10 1
    12   13    4 1
    13   14   13 1
    14   15   13 1
    15   16    3 1
    16   17   16 1
    17   18   16 1
    18   19   20 1
    19   21   19 1
    20   22   21 ar
    21   23   22 1
    22   24   22 ar
    23   25   24 1
    24   26   24 ar
    25   27   26 ar
    26   28   27 1
    27   29   21 ar
    28   30   29 1
    29   31    3 1
    30   32   31 1
    31   33   31 1
    32   34   31 1
    33    7   10 1
    34   13   16 1
    35   27   29 ar
@<TRIPOS>SUBSTRUCTURE
     1 RES1 1

@<TRIPOS>CRYSIN
  27.9353    5.9247   18.7763  90.0000 126.5270  90.0000  15 1

