# MOL2 file generated by ConQuest
# Please check atom types

@<TRIPOS>MOLECULE
MINPEF
    33    34     1
SMALL
NO_CHARGES
****
Generated from CSD

@<TRIPOS>ATOM
      1 C1        12.2145    0.3409   15.7100 C.ar      1 RES1    0.0000
      2 C2        12.3276   -0.8710   15.0755 C.ar      1 RES1    0.0000
      3 H1        11.5943   -1.2592   14.6555 H         1 RES1    0.0000
      4 C3        13.5503   -1.4956   15.0760 C.ar      1 RES1    0.0000
      5 H2        13.6489   -2.3187   14.6544 H         1 RES1    0.0000
      6 C4        14.6263   -0.9141   15.6937 C.ar      1 RES1    0.0000
      7 H3        15.4533   -1.3390   15.6725 H         1 RES1    0.0000
      8 C5        14.4963    0.3025   16.3502 C.ar      1 RES1    0.0000
      9 C6        13.2688    0.9437   16.3559 C.ar      1 RES1    0.0000
     10 H4        13.1602    1.7609   16.7857 H         1 RES1    0.0000
     11 C7        15.6591    0.9029   17.0226 C.2       1 RES1    0.0000
     12 H5        16.4987    0.5336   16.8700 H         1 RES1    0.0000
     13 C8        16.7120    2.4333   18.4150 C.ar      1 RES1    0.0000
     14 C9        16.5211    3.6009   19.1607 C.ar      1 RES1    0.0000
     15 C10       17.6392    4.2048   19.7281 C.ar      1 RES1    0.0000
     16 H6        17.5189    4.9884   20.2147 H         1 RES1    0.0000
     17 C11       18.9097    3.7026   19.6057 C.ar      1 RES1    0.0000
     18 C12       19.0693    2.5107   18.9111 C.ar      1 RES1    0.0000
     19 H7        19.9143    2.1278   18.8420 H         1 RES1    0.0000
     20 C13       17.9944    1.8915   18.3259 C.ar      1 RES1    0.0000
     21 H8        18.1228    1.0955   17.8614 H         1 RES1    0.0000
     22 C14       15.1531    4.1653   19.3796 C.3       1 RES1    0.0000
     23 H9        14.5070    3.6258   18.9179 H         1 RES1    0.0000
     24 H10       15.1199    5.0634   19.0422 H         1 RES1    0.0000
     25 H11       14.9548    4.1688   20.3187 H         1 RES1    0.0000
     26 C15       20.1040    4.3928   20.2025 C.3       1 RES1    0.0000
     27 H12       20.8962    3.8863   20.0085 H         1 RES1    0.0000
     28 H13       19.9924    4.4601   21.1535 H         1 RES1    0.0000
     29 H14       20.1864    5.2720   19.8266 H         1 RES1    0.0000
     30 N1        15.5727    1.8743   17.7790 N.2       1 RES1    0.0000
     31 N2        10.9141    1.0134   15.7196 N.pl3     1 RES1    0.0000
     32 O1         9.9627    0.4420   15.1908 O.2       1 RES1    0.0000
     33 O2        10.8275    2.1101   16.2341 O.2       1 RES1    0.0000
@<TRIPOS>BOND
     1    1    2 ar
     2    2    3 1
     3    4    2 ar
     4    5    4 1
     5    6    4 ar
     6    7    6 1
     7    8    6 ar
     8    9    1 ar
     9   10    9 1
    10   11    8 1
    11   12   11 1
    12   13   14 ar
    13   14   15 ar
    14   15   16 1
    15   17   15 ar
    16   18   17 ar
    17   19   18 1
    18   20   13 ar
    19   21   20 1
    20   22   14 1
    21   23   22 1
    22   24   22 1
    23   25   22 1
    24   26   17 1
    25   27   26 1
    26   28   26 1
    27   29   26 1
    28   30   11 2
    29   31    1 1
    30   32   31 2
    31   33   31 2
    32    8    9 ar
    33   13   30 1
    34   18   20 ar
@<TRIPOS>SUBSTRUCTURE
     1 RES1 1

@<TRIPOS>CRYSIN
  15.7010    5.9090   28.3000  90.0000  94.7400  90.0000  15 1

