# MOL2 file generated by ConQuest
# Please check atom types

@<TRIPOS>MOLECULE
MINPAB
    66    68     2
SMALL
NO_CHARGES
****
Generated from CSD

@<TRIPOS>ATOM
      1 C1         5.9234    1.3754   19.0285 C.ar      1 RES1    0.0000
      2 C2         5.9626    0.2408   19.7865 C.ar      1 RES1    0.0000
      3 H1         5.7349    0.2820   20.6873 H         1 RES1    0.0000
      4 C3         6.3360   -0.9657   19.2325 C.ar      1 RES1    0.0000
      5 H2         6.3673   -1.7361   19.7525 H         1 RES1    0.0000
      6 C4         6.6529   -1.0080   17.9306 C.ar      1 RES1    0.0000
      7 H3         6.9064   -1.8140   17.5420 H         1 RES1    0.0000
      8 C5         6.6043    0.1435   17.1614 C.ar      1 RES1    0.0000
      9 H4         6.8417    0.0943   16.2635 H         1 RES1    0.0000
     10 C6         6.2142    1.3656   17.6845 C.ar      1 RES1    0.0000
     11 C7         6.0867    2.5213   16.8003 C.2       1 RES1    0.0000
     12 H5         5.6188    3.2723   17.0869 H         1 RES1    0.0000
     13 C8         6.4651    3.6937   14.8980 C.ar      1 RES1    0.0000
     14 C9         6.1687    3.5255   13.5520 C.ar      1 RES1    0.0000
     15 C10        6.1378    4.6510   12.7810 C.ar      1 RES1    0.0000
     16 H6         5.9110    4.5530   11.8844 H         1 RES1    0.0000
     17 C11        6.4192    5.9283   13.2355 C.ar      1 RES1    0.0000
     18 C12        6.7143    6.0404   14.5651 C.ar      1 RES1    0.0000
     19 H7         6.9016    6.8778   14.9237 H         1 RES1    0.0000
     20 C13        6.7381    4.9535   15.3667 C.ar      1 RES1    0.0000
     21 H8         6.9465    5.0631   16.2662 H         1 RES1    0.0000
     22 C14        5.8881    2.1724   12.9861 C.3       1 RES1    0.0000
     23 H9         5.9581    1.5141   13.6813 H         1 RES1    0.0000
     24 H10        6.5245    1.9765   12.2945 H         1 RES1    0.0000
     25 H11        5.0013    2.1567   12.6186 H         1 RES1    0.0000
     26 C15        6.4157    7.1297   12.3595 C.3       1 RES1    0.0000
     27 H12        6.1894    6.8713   11.4631 H         1 RES1    0.0000
     28 H13        7.2868    7.5331   12.3660 H         1 RES1    0.0000
     29 H14        5.7686    7.7603   12.6838 H         1 RES1    0.0000
     30 C16        3.1197    2.1416    8.4251 C.ar      2 RES2    0.0000
     31 C17        3.0339    1.0240    9.1835 C.ar      2 RES2    0.0000
     32 H15        3.2184    1.0749   10.0937 H         2 RES2    0.0000
     33 C18        2.6797   -0.1822    8.6350 C.ar      2 RES2    0.0000
     34 H16        2.6301   -0.9467    9.1623 H         2 RES2    0.0000
     35 C19        2.4038   -0.2376    7.3103 C.ar      2 RES2    0.0000
     36 H17        2.1498   -1.0419    6.9184 H         2 RES2    0.0000
     37 C20        2.5011    0.8965    6.5525 C.ar      2 RES2    0.0000
     38 H18        2.3246    0.8395    5.6410 H         2 RES2    0.0000
     39 C21        2.8555    2.1411    7.0908 C.ar      2 RES2    0.0000
     40 C22        3.0211    3.2892    6.1997 C.2       2 RES2    0.0000
     41 H19        3.4951    4.0352    6.4892 H         2 RES2    0.0000
     42 C23        2.7194    4.3887    4.2332 C.ar      2 RES2    0.0000
     43 C24        3.0526    4.1554    2.9238 C.ar      2 RES2    0.0000
     44 C25        3.1473    5.2494    2.0968 C.ar      2 RES2    0.0000
     45 H20        3.3931    5.1022    1.2120 H         2 RES2    0.0000
     46 C26        2.9029    6.5531    2.4873 C.ar      2 RES2    0.0000
     47 C27        2.5479    6.7472    3.7767 C.ar      2 RES2    0.0000
     48 H21        2.3585    7.6068    4.0768 H         2 RES2    0.0000
     49 C28        2.4639    5.6955    4.6440 C.ar      2 RES2    0.0000
     50 H22        2.2308    5.8553    5.5300 H         2 RES2    0.0000
     51 C29        3.3029    2.7547    2.4453 C.3       2 RES2    0.0000
     52 H23        3.5229    2.7702    1.5109 H         2 RES2    0.0000
     53 H24        2.5136    2.2249    2.5795 H         2 RES2    0.0000
     54 H25        4.0322    2.3733    2.9395 H         2 RES2    0.0000
     55 C30        2.9708    7.6950    1.5247 C.3       2 RES2    0.0000
     56 H26        3.2382    7.3705    0.6616 H         2 RES2    0.0000
     57 H27        3.6106    8.3391    1.8367 H         2 RES2    0.0000
     58 H28        2.1071    8.1087    1.4574 H         2 RES2    0.0000
     59 N1         6.5972    2.5084   15.6717 N.2       1 RES1    0.0000
     60 N2         5.5645    2.6260   19.6859 N.pl3     1 RES1    0.0000
     61 N3         2.5365    3.2728    5.0695 N.2       2 RES2    0.0000
     62 N4         3.4558    3.4152    9.0889 N.pl3     2 RES2    0.0000
     63 O1         5.9765    3.6836   19.2607 O.2       1 RES1    0.0000
     64 O2         4.8878    2.5570   20.6846 O.2       1 RES1    0.0000
     65 O3         2.9907    4.4595    8.6741 O.2       2 RES2    0.0000
     66 O4         4.1523    3.3335   10.0755 O.2       2 RES2    0.0000
@<TRIPOS>BOND
     1    1    2 ar
     2    2    3 1
     3    4    2 ar
     4    5    4 1
     5    6    4 ar
     6    7    6 1
     7    8    6 ar
     8    9    8 1
     9   10    1 ar
    10   11   10 1
    11   12   11 1
    12   13   14 ar
    13   14   15 ar
    14   15   16 1
    15   17   15 ar
    16   18   17 ar
    17   19   18 1
    18   20   13 ar
    19   21   20 1
    20   22   14 1
    21   23   22 1
    22   24   22 1
    23   25   22 1
    24   26   17 1
    25   27   26 1
    26   28   26 1
    27   29   26 1
    28   30   31 ar
    29   31   32 1
    30   33   31 ar
    31   34   33 1
    32   35   33 ar
    33   36   35 1
    34   37   35 ar
    35   38   37 1
    36   39   30 ar
    37   40   39 1
    38   41   40 1
    39   42   43 ar
    40   43   44 ar
    41   44   45 1
    42   46   44 ar
    43   47   46 ar
    44   48   47 1
    45   49   42 ar
    46   50   49 1
    47   51   43 1
    48   52   51 1
    49   53   51 1
    50   54   51 1
    51   55   46 1
    52   56   55 1
    53   57   55 1
    54   58   55 1
    55   59   11 2
    56   60    1 1
    57   61   40 2
    58   62   30 1
    59   63   60 2
    60   64   60 2
    61   65   62 2
    62   66   62 2
    63    8   10 ar
    64   13   59 1
    65   18   20 ar
    66   37   39 ar
    67   42   61 1
    68   47   49 ar
@<TRIPOS>SUBSTRUCTURE
     1 RES1 1
     2 RES2 30

@<TRIPOS>CRYSIN
   7.4990    8.3830   21.2870  94.0600  90.4800 103.3200   2 1

