# MOL2 file generated by ConQuest
# Please check atom types

@<TRIPOS>MOLECULE
MINSAN
    48    48     2
SMALL
NO_CHARGES
****
Generated from CSD

@<TRIPOS>ATOM
      1 C1        -1.2935   -9.9038   -0.5363 C.ar      1 RES1    0.0000
      2 C2        -2.9331   -7.7218    2.0466 C.2       1 RES1    0.0000
      3 C3        -1.7760   -3.0276    1.0140 C.ar      2 RES2    0.0000
      4 C4        -1.3584   -2.0340    1.8730 C.ar      2 RES2    0.0000
      5 C5        -2.2974   -1.2526    2.5290 C.ar      2 RES2    0.0000
      6 C6        -3.6395   -1.4719    2.3282 C.ar      2 RES2    0.0000
      7 C7        -2.9255  -13.1561   -0.3255 C.3       1 RES1    0.0000
      8 C8        -4.0714   -2.4751    1.4845 C.ar      2 RES2    0.0000
      9 C9        -3.1380   -3.2721    0.8380 C.ar      2 RES2    0.0000
     10 C10        0.4219   -3.8039    0.1160 C.2       2 RES2    0.0000
     11 C11       -0.2472   -9.2643   -1.1893 C.ar      1 RES1    0.0000
     12 C12        0.9916   -4.7451   -0.8765 C.2       2 RES2    0.0000
     13 C13       -4.8236   -4.6376   -0.1795 C.3       2 RES2    0.0000
     14 C14        0.4961   -9.9446   -2.1449 C.ar      1 RES1    0.0000
     15 C15        0.1964  -11.2634   -2.4452 C.ar      1 RES1    0.0000
     16 C16       -0.8449  -11.9218   -1.7992 C.ar      1 RES1    0.0000
     17 C17       -1.5904  -11.2368   -0.8590 C.ar      1 RES1    0.0000
     18 C18       -1.9848   -8.0740    0.9840 C.2       1 RES1    0.0000
     19 H1        -0.0164   -8.2601   -1.2653 H         1 RES1    0.0000
     20 H2         1.2026   -9.4760   -2.6697 H         1 RES1    0.0000
     21 H3         0.7307  -11.8069   -3.1796 H         1 RES1    0.0000
     22 H4        -1.0633  -12.8923   -2.0413 H         1 RES1    0.0000
     23 H5        -2.7935   -9.8354    0.8507 H         1 RES1    0.0000
     24 H6        -2.7263   -6.7883    2.5147 H         1 RES1    0.0000
     25 H7        -5.4657   -8.5998    3.5867 H         1 RES1    0.0000
     26 H8        -3.7913  -13.2836    0.1994 H         1 RES1    0.0000
     27 H9        -3.2473  -13.1335   -1.1308 H         1 RES1    0.0000
     28 H10       -2.2086  -13.6725   -0.9128 H         1 RES1    0.0000
     29 H11       -0.4620   -1.9198    2.0095 H         2 RES2    0.0000
     30 H12       -2.0644   -0.5513    3.1040 H         2 RES2    0.0000
     31 H13       -4.3024   -0.9574    2.6319 H         2 RES2    0.0000
     32 H14       -5.0856   -2.7370    1.4409 H         2 RES2    0.0000
     33 H15       -1.3435   -4.5854   -0.3623 H         2 RES2    0.0000
     34 H16        1.9923   -4.7971   -0.9226 H         2 RES2    0.0000
     35 H17        0.0754   -6.6283   -3.1007 H         2 RES2    0.0000
     36 H18       -5.3051   -4.4156    0.7130 H         2 RES2    0.0000
     37 H19       -5.1986   -4.0710   -0.9730 H         2 RES2    0.0000
     38 H20       -4.8693   -5.6536   -0.3913 H         2 RES2    0.0000
     39 N1        -3.9110   -8.4898    2.3326 N.2       1 RES1    0.0000
     40 N2        -0.9154   -3.8527    0.2400 N.am      2 RES2    0.0000
     41 N3         0.1925   -5.3895   -1.6405 N.2       2 RES2    0.0000
     42 N4        -2.1147   -9.2995    0.4409 N.am      1 RES1    0.0000
     43 O1        -4.6493   -7.9945    3.3971 O.3       1 RES1    0.0000
     44 O2        -2.6534  -11.7638   -0.1721 O.3       1 RES1    0.0000
     45 O3         1.1477   -3.0493    0.7589 O.2       2 RES2    0.0000
     46 O4         0.8485   -6.2084   -2.5341 O.3       2 RES2    0.0000
     47 O5        -3.4536   -4.2984   -0.0222 O.3       2 RES2    0.0000
     48 O6        -1.1207   -7.2645    0.6463 O.2       1 RES1    0.0000
@<TRIPOS>BOND
     1    1   11 ar
     2    2   18 1
     3    3    4 ar
     4    4    5 ar
     5    5    6 ar
     6    6    8 ar
     7    7   26 1
     8    8    9 ar
     9    9    3 ar
    10   10   12 1
    11   11   14 ar
    12   12   34 1
    13   13   36 1
    14   14   15 ar
    15   15   16 ar
    16   16   17 ar
    17   17    1 ar
    18   18   42 1
    19   19   11 1
    20   20   14 1
    21   21   15 1
    22   22   16 1
    23   23   42 1
    24   24    2 1
    25   25   43 1
    26   27    7 1
    27   28    7 1
    28   29    4 1
    29   30    5 1
    30   31    6 1
    31   32    8 1
    32   33   40 1
    33   35   46 1
    34   37   13 1
    35   38   13 1
    36   39    2 2
    37   40    3 1
    38   41   12 2
    39   42    1 1
    40   43   39 1
    41   44    7 1
    42   45   10 2
    43   46   41 1
    44   47    9 1
    45   48   18 2
    46   10   40 1
    47   13   47 1
    48   17   44 1
@<TRIPOS>SUBSTRUCTURE
     1 RES1 1
     2 RES2 3

@<TRIPOS>CRYSIN
  16.3840   24.6130    4.6690  90.0000  90.0000  90.0000  19 1

