# MOL2 file generated by ConQuest
# Please check atom types

@<TRIPOS>MOLECULE
MINVOV
    73    77     1
SMALL
NO_CHARGES
****
Generated from CSD

@<TRIPOS>ATOM
      1 O1         1.1724   21.4731   10.5401 O.2       1 RES1    0.0000
      2 O2         1.5246   23.3241   11.5741 O.2       1 RES1    0.0000
      3 O3         5.0670   23.6705   14.7437 O.2       1 RES1    0.0000
      4 O4         6.4445   22.0367   14.9993 O.2       1 RES1    0.0000
      5 O5         5.4968   17.7055   12.9689 O.2       1 RES1    0.0000
      6 O6         3.6984   17.5228   11.6585 O.3       1 RES1    0.0000
      7 O7         4.6852    6.7613   10.8865 O.2       1 RES1    0.0000
      8 N1         1.7839   22.1625   11.3354 N.pl3     1 RES1    0.0000
      9 N2         5.4591   22.5227   14.5231 N.pl3     1 RES1    0.0000
     10 C1         3.1599   20.2063   11.8596 C.ar      1 RES1    0.0000
     11 H1         2.6690   19.7082   11.2459 H         1 RES1    0.0000
     12 C2         2.8779   21.5317   12.0724 C.ar      1 RES1    0.0000
     13 C3         3.6071   22.3055   12.9351 C.ar      1 RES1    0.0000
     14 H2         3.4146   23.2087   13.0467 H         1 RES1    0.0000
     15 C4         4.6321   21.7092   13.6305 C.ar      1 RES1    0.0000
     16 C5         4.9321   20.3890   13.4671 C.ar      1 RES1    0.0000
     17 H3         5.6284   20.0012   13.9458 H         1 RES1    0.0000
     18 C6         4.1808   19.6324   12.5719 C.ar      1 RES1    0.0000
     19 C7         4.5355   18.1709   12.4395 C.2       1 RES1    0.0000
     20 C8         3.8750   16.0751   11.5638 C.3       1 RES1    0.0000
     21 H4         4.8143   15.8683   11.7454 H         1 RES1    0.0000
     22 C9         3.0308   15.4202   12.6289 C.3       1 RES1    0.0000
     23 H5         2.0941   15.6253   12.4810 H         1 RES1    0.0000
     24 H6         3.2820   15.7545   13.5034 H         1 RES1    0.0000
     25 C10        3.2479   13.9121   12.5680 C.3       1 RES1    0.0000
     26 H7         4.1801   13.7208   12.7600 H         1 RES1    0.0000
     27 H8         2.7120   13.4898   13.2569 H         1 RES1    0.0000
     28 C11        2.8898   13.3020   11.2238 C.3       1 RES1    0.0000
     29 C12        3.6616   14.0793   10.1198 C.3       1 RES1    0.0000
     30 H9         4.6068   13.8966   10.3040 H         1 RES1    0.0000
     31 C13        3.5491   15.6287   10.1327 C.3       1 RES1    0.0000
     32 C14        2.1847   16.1561    9.6618 C.3       1 RES1    0.0000
     33 H10        1.5142   15.9407   10.3157 H         1 RES1    0.0000
     34 H11        1.9550   15.7476    8.8236 H         1 RES1    0.0000
     35 H12        2.2297   17.1092    9.5515 H         1 RES1    0.0000
     36 C15        4.6595   16.2112    9.2155 C.3       1 RES1    0.0000
     37 H13        4.6867   17.1661    9.3128 H         1 RES1    0.0000
     38 H14        4.4697   15.9872    8.3021 H         1 RES1    0.0000
     39 H15        5.5079   15.8390    9.4672 H         1 RES1    0.0000
     40 C16        3.4071   13.4467    8.7536 C.3       1 RES1    0.0000
     41 H16        3.8351   13.9776    8.0621 H         1 RES1    0.0000
     42 H17        2.4542   13.4278    8.5732 H         1 RES1    0.0000
     43 C17        3.9673   12.0197    8.7302 C.3       1 RES1    0.0000
     44 H18        4.9322   12.0628    8.8236 H         1 RES1    0.0000
     45 H19        3.7719   11.6216    7.8688 H         1 RES1    0.0000
     46 C18        3.3988   11.1062    9.8408 C.3       1 RES1    0.0000
     47 C19        3.4429   11.8336   11.1849 C.3       1 RES1    0.0000
     48 H20        4.4000   11.9335   11.3718 H         1 RES1    0.0000
     49 C20        2.9209   10.9425   12.3500 C.3       1 RES1    0.0000
     50 H21        3.3471   11.2234   13.1751 H         1 RES1    0.0000
     51 H22        1.9660   11.0804   12.4473 H         1 RES1    0.0000
     52 C21        3.1886    9.4431   12.1372 C.3       1 RES1    0.0000
     53 H23        3.2757    9.0105   13.0000 H         1 RES1    0.0000
     54 H24        2.4309    9.0484   11.6792 H         1 RES1    0.0000
     55 C22        4.4318    9.1897   11.3354 C.3       1 RES1    0.0000
     56 C23        4.3733    9.8998    9.9654 C.3       1 RES1    0.0000
     57 H25        5.2742   10.2083    9.7409 H         1 RES1    0.0000
     58 C24        4.1403    8.5537    9.2687 C.3       1 RES1    0.0000
     59 H26        3.2305    8.4227    8.9560 H         1 RES1    0.0000
     60 H27        4.7833    8.3538    8.5707 H         1 RES1    0.0000
     61 C25        4.4359    7.8833   10.5855 C.2       1 RES1    0.0000
     62 C26        5.6940    9.3982   12.1878 C.3       1 RES1    0.0000
     63 H28        5.6695   10.2721   12.5861 H         1 RES1    0.0000
     64 H29        6.4728    9.3224   11.6325 H         1 RES1    0.0000
     65 H30        5.7256    8.7330   12.8793 H         1 RES1    0.0000
     66 C27        1.3778   13.3416   11.0565 C.3       1 RES1    0.0000
     67 H31        1.0016   12.5126   11.3575 H         1 RES1    0.0000
     68 H32        1.1619   13.4743   10.1301 H         1 RES1    0.0000
     69 H33        1.0182   14.0638   11.5754 H         1 RES1    0.0000
     70 C28        2.0085   10.6581    9.4010 C.3       1 RES1    0.0000
     71 H34        1.6060   10.1325   10.0964 H         1 RES1    0.0000
     72 H35        2.0812   10.1290    8.6018 H         1 RES1    0.0000
     73 H36        1.4644   11.4285    9.2258 H         1 RES1    0.0000
@<TRIPOS>BOND
     1    1    8 2
     2    2    8 2
     3    3    9 2
     4    4    9 2
     5    5   19 2
     6    6   19 1
     7    7   61 2
     8    8   12 1
     9    9   15 1
    10   10   11 1
    11   12   10 ar
    12   13   12 ar
    13   14   13 1
    14   15   13 ar
    15   16   15 ar
    16   17   16 1
    17   18   10 ar
    18   19   18 1
    19   20    6 1
    20   21   20 1
    21   22   20 1
    22   23   22 1
    23   24   22 1
    24   25   22 1
    25   26   25 1
    26   27   25 1
    27   28   25 1
    28   29   28 1
    29   30   29 1
    30   31   20 1
    31   32   31 1
    32   33   32 1
    33   34   32 1
    34   35   32 1
    35   36   31 1
    36   37   36 1
    37   38   36 1
    38   39   36 1
    39   40   29 1
    40   41   40 1
    41   42   40 1
    42   43   40 1
    43   44   43 1
    44   45   43 1
    45   46   43 1
    46   47   28 1
    47   48   47 1
    48   49   47 1
    49   50   49 1
    50   51   49 1
    51   52   49 1
    52   53   52 1
    53   54   52 1
    54   55   52 1
    55   56   46 1
    56   57   56 1
    57   58   56 1
    58   59   58 1
    59   60   58 1
    60   61   55 1
    61   62   55 1
    62   63   62 1
    63   64   62 1
    64   65   62 1
    65   66   28 1
    66   67   66 1
    67   68   66 1
    68   69   66 1
    69   70   46 1
    70   71   70 1
    71   72   70 1
    72   73   70 1
    73   16   18 ar
    74   29   31 1
    75   46   47 1
    76   55   56 1
    77   58   61 1
@<TRIPOS>SUBSTRUCTURE
     1 RES1 1

@<TRIPOS>CRYSIN
  11.8470   17.2350   14.2330  90.0000 114.2800  90.0000   9 1

