# MOL2 file generated by ConQuest
# Please check atom types

@<TRIPOS>MOLECULE
MINWAI
    47    49     1
SMALL
NO_CHARGES
****
Generated from CSD

@<TRIPOS>ATOM
      1 O1        -1.9298    9.8141   10.8134 O.2       1 RES1    0.0000
      2 O2        -3.4905    9.3716    9.4050 O.2       1 RES1    0.0000
      3 O3         0.0638    6.6177    5.0648 O.2       1 RES1    0.0000
      4 O4        -1.5453    8.0422    5.0256 O.2       1 RES1    0.0000
      5 O5         1.2377    5.9450   11.1603 O.2       1 RES1    0.0000
      6 O6         1.9881    5.1316    9.1987 O.3       1 RES1    0.0000
      7 O7         5.9451    5.1440    6.0128 O.2       1 RES1    0.0000
      8 N1        -2.3591    9.2641    9.8254 N.pl3     1 RES1    0.0000
      9 N2        -0.7318    7.3469    5.6132 N.pl3     1 RES1    0.0000
     10 C1        -0.5049    7.6753    9.8069 C.ar      1 RES1    0.0000
     11 C2        -1.4403    8.3785    9.0865 C.ar      1 RES1    0.0000
     12 C3        -1.5814    8.2774    7.7244 C.ar      1 RES1    0.0000
     13 C4        -0.6940    7.4315    7.0850 C.ar      1 RES1    0.0000
     14 C5         0.2364    6.6762    7.7568 C.ar      1 RES1    0.0000
     15 C6         0.3263    6.7841    9.1374 C.ar      1 RES1    0.0000
     16 C7         1.2330    5.9261    9.9528 C.2       1 RES1    0.0000
     17 C8         2.8071    4.1217    9.9054 C.3       1 RES1    0.0000
     18 C9         3.0128    2.9388    8.9521 C.3       1 RES1    0.0000
     19 C10        4.0782    3.2223    7.8877 C.3       1 RES1    0.0000
     20 C11        3.7722    4.1062    6.6484 C.3       1 RES1    0.0000
     21 C12        5.1745    4.6375    6.7850 C.2       1 RES1    0.0000
     22 C13        5.3053    4.1472    8.2166 C.3       1 RES1    0.0000
     23 C14        4.9083    5.2820    9.1803 C.3       1 RES1    0.0000
     24 C15        4.0983    4.7748   10.3536 C.3       1 RES1    0.0000
     25 C16        1.6938    2.5487    8.2896 C.3       1 RES1    0.0000
     26 C17        3.4769    1.7531    9.8104 C.3       1 RES1    0.0000
     27 C18        6.6194    3.4975    8.5977 C.3       1 RES1    0.0000
     28 H1        -0.4619    7.7459   10.7115 H         1 RES1    0.0000
     29 H2        -2.2252    8.7789    7.2425 H         1 RES1    0.0000
     30 H3         0.7868    6.1342    7.2981 H         1 RES1    0.0000
     31 H4         2.2684    3.7989   10.6698 H         1 RES1    0.0000
     32 H5         4.4409    2.3660    7.5622 H         1 RES1    0.0000
     33 H6         3.5996    3.6636    5.7924 H         1 RES1    0.0000
     34 H7         3.1086    4.7885    6.8534 H         1 RES1    0.0000
     35 H8         5.7440    5.7140    9.4861 H         1 RES1    0.0000
     36 H9         4.3947    5.9568    8.7239 H         1 RES1    0.0000
     37 H10        4.6288    4.0890   10.8424 H         1 RES1    0.0000
     38 H11        3.9135    5.4947   10.9640 H         1 RES1    0.0000
     39 H12        1.0097    2.3713    9.0008 H         1 RES1    0.0000
     40 H13        1.3481    3.2770    7.7255 H         1 RES1    0.0000
     41 H14        1.7996    1.7497    7.6977 H         1 RES1    0.0000
     42 H15        4.3887    1.9188   10.2111 H         1 RES1    0.0000
     43 H16        2.7480    1.5320   10.5250 H         1 RES1    0.0000
     44 H17        3.5856    0.8996    9.2498 H         1 RES1    0.0000
     45 H18        6.6042    3.1827    9.5417 H         1 RES1    0.0000
     46 H19        6.8232    2.7003    8.0139 H         1 RES1    0.0000
     47 H20        7.3263    4.1102    8.4946 H         1 RES1    0.0000
@<TRIPOS>BOND
     1    1    8 2
     2    2    8 2
     3    3    9 2
     4    4    9 2
     5    5   16 2
     6    6   16 1
     7    7   21 2
     8    8   11 1
     9    9   13 1
    10   10   11 ar
    11   11   12 ar
    12   12   13 ar
    13   13   14 ar
    14   14   15 ar
    15   15   10 ar
    16   16   15 1
    17   17    6 1
    18   18   17 1
    19   19   18 1
    20   20   19 1
    21   21   20 1
    22   22   19 1
    23   23   22 1
    24   24   17 1
    25   25   18 1
    26   26   18 1
    27   27   22 1
    28   28   10 1
    29   29   12 1
    30   30   14 1
    31   31   17 1
    32   32   19 1
    33   33   20 1
    34   34   20 1
    35   35   23 1
    36   36   23 1
    37   37   24 1
    38   38   24 1
    39   39   25 1
    40   40   25 1
    41   41   25 1
    42   42   26 1
    43   43   26 1
    44   44   26 1
    45   45   27 1
    46   46   27 1
    47   47   27 1
    48   21   22 1
    49   23   24 1
@<TRIPOS>SUBSTRUCTURE
     1 RES1 1

@<TRIPOS>CRYSIN
   8.5610    9.2490   12.4140  99.3600 106.9900  98.8300   2 1

