# MOL2 file generated by ConQuest
# Please check atom types

@<TRIPOS>MOLECULE
MIPHUP
    35    32     2
SMALL
NO_CHARGES
****
Generated from CSD

@<TRIPOS>ATOM
      1 O1         2.6770    9.5778    8.8872 O.3       1 RES1    0.0000
      2 O2         5.1603    7.8390    7.1939 O.3       1 RES1    0.0000
      3 O3         3.5669    5.5918    7.2102 O.2       1 RES1    0.0000
      4 O4         5.0947    4.5462    8.4879 O.3       1 RES1    0.0000
      5 O5         4.9641    2.3915    6.7865 O.2       1 RES1    0.0000
      6 O6         2.9387    4.4250   10.2665 O.2       1 RES1    0.0000
      7 N1         4.4355    8.3116    8.3432 N.2       1 RES1    0.0000
      8 N2         4.1720    3.5226    8.5796 N.am      1 RES1    0.0000
      9 C1         1.8668    9.8522   11.0763 C.3       1 RES1    0.0000
     10 C2         2.9190    9.2144   10.2585 C.3       1 RES1    0.0000
     11 C3         3.4599    9.0145    7.9549 C.2       1 RES1    0.0000
     12 C4         5.7185    6.6121    7.5677 C.3       1 RES1    0.0000
     13 C5         4.6373    5.5788    7.6899 C.2       1 RES1    0.0000
     14 C6         4.1655    2.4965    7.6602 C.2       1 RES1    0.0000
     15 C7         3.0150    1.6276    8.0360 C.3       1 RES1    0.0000
     16 C8         2.3664    2.2948    9.2375 C.3       1 RES1    0.0000
     17 C9         3.1246    3.5505    9.4807 C.2       1 RES1    0.0000
     18 C10        3.0324    9.3232    6.5740 C.3       1 RES1    0.0000
     19 H1         1.0139    9.5435   10.7908 H         1 RES1    0.0000
     20 H2         1.9953    9.6262   11.9900 H         1 RES1    0.0000
     21 H3         1.9134   10.7952   10.9735 H         1 RES1    0.0000
     22 H4         3.7750    9.5248   10.5303 H         1 RES1    0.0000
     23 H5         2.8795    8.2703   10.3567 H         1 RES1    0.0000
     24 H6         6.3452    6.3371    6.9087 H         1 RES1    0.0000
     25 H7         6.1595    6.7076    8.4037 H         1 RES1    0.0000
     26 H8         2.3970    1.5688    7.3164 H         1 RES1    0.0000
     27 H9         3.3189    0.7574    8.2644 H         1 RES1    0.0000
     28 H10        1.4561    2.4918    9.0524 H         1 RES1    0.0000
     29 H11        2.4198    1.7267    9.9970 H         1 RES1    0.0000
     30 H12        2.2047    8.8918    6.3947 H         1 RES1    0.0000
     31 H13        2.7897    8.5189    6.1309 Du        2 SUP2    0.0000
     32 H14        3.6892    9.0118    5.9619 H         1 RES1    0.0000
     33 H15        3.7471    9.7388    6.1069 Du        2 SUP2    0.0000
     34 H16        2.9277   10.2625    6.4770 H         1 RES1    0.0000
     35 H17        2.2853    9.9097    6.5969 Du        2 SUP2    0.0000
@<TRIPOS>BOND
     1    1   10 1
     2    2    7 1
     3    3   13 2
     4    4    8 1
     5    5   14 2
     6    6   17 2
     7    7   11 2
     8    8   14 1
     9    9   10 1
    10   10   22 1
    11   11    1 1
    12   12    2 1
    13   13    4 1
    14   14   15 1
    15   15   16 1
    16   16   17 1
    17   17    8 1
    18   18   11 1
    19   19    9 1
    20   20    9 1
    21   21    9 1
    22   23   10 1
    23   24   12 1
    24   25   12 1
    25   26   15 1
    26   27   15 1
    27   28   16 1
    28   29   16 1
    29   30   18 1
    30   32   18 1
    31   34   18 1
    32   12   13 1
@<TRIPOS>SUBSTRUCTURE
     1 RES1 1
     2 SUP2 31

@<TRIPOS>CRYSIN
   5.3473   10.5460   12.0450  73.6000  77.9600  76.2200   2 1

