# MOL2 file generated by ConQuest
# Please check atom types

@<TRIPOS>MOLECULE
MIPLON
    35    36     1
SMALL
NO_CHARGES
****
Generated from CSD

@<TRIPOS>ATOM
      1 O1         3.5791   -1.2323    0.0314 O.2       1 RES1    0.0000
      2 O2         2.9031    4.1368   -0.6908 O.3       1 RES1    0.0000
      3 H1         3.3644    3.9102   -1.3540 H         1 RES1    0.0000
      4 O3         5.8125    2.8634   -1.6180 O.2       1 RES1    0.0000
      5 O4         6.0591    3.7255    0.3650 O.2       1 RES1    0.0000
      6 N1         5.4785    2.9969   -0.4847 N.pl3     1 RES1    0.0000
      7 N2         3.3723    0.6286    1.4286 N.am      1 RES1    0.0000
      8 C1         2.9142   -0.4625    0.7653 C.2       1 RES1    0.0000
      9 C2         1.4523   -0.6045    1.0675 C.3       1 RES1    0.0000
     10 H2         1.2583   -1.5008    1.4414 H         1 RES1    0.0000
     11 H3         0.9131   -0.4772    0.2482 H         1 RES1    0.0000
     12 C3         1.1406    0.4959    2.1017 C.3       1 RES1    0.0000
     13 H4         0.2704    0.9265    1.9104 H         1 RES1    0.0000
     14 H5         1.1231    0.1257    3.0201 H         1 RES1    0.0000
     15 C4         2.2938    1.4899    1.9329 C.3       1 RES1    0.0000
     16 H6         2.5404    1.9214    2.8013 H         1 RES1    0.0000
     17 C5         1.9566    2.5196    0.8703 C.3       1 RES1    0.0000
     18 H7         1.2933    3.1598    1.2314 H         1 RES1    0.0000
     19 H8         1.5510    2.0657    0.0893 H         1 RES1    0.0000
     20 C6         3.2117    3.2840    0.4199 C.3       1 RES1    0.0000
     21 H9         3.5569    3.8357    1.1794 H         1 RES1    0.0000
     22 C7         4.2854    2.2636   -0.0049 C.3       1 RES1    0.0000
     23 H10        3.9243    1.7196   -0.7624 H         1 RES1    0.0000
     24 C8         4.6227    1.3200    1.1519 C.3       1 RES1    0.0000
     25 H11        4.8422    1.8826    1.9496 H         1 RES1    0.0000
     26 C9         5.8125    0.4105    0.8899 C.3       1 RES1    0.0000
     27 H12        6.6127    0.9700    0.7261 H         1 RES1    0.0000
     28 H13        5.6391   -0.1141    0.0677 H         1 RES1    0.0000
     29 C10        6.1132   -0.5610    2.0458 C.3       1 RES1    0.0000
     30 H14        6.1895   -0.0497    2.8896 H         1 RES1    0.0000
     31 H15        5.3592   -1.1966    2.1419 H         1 RES1    0.0000
     32 C11        7.4112   -1.3487    1.8132 C.3       1 RES1    0.0000
     33 H16        7.2076   -2.1821    1.3393 H         1 RES1    0.0000
     34 H17        7.8264   -1.5566    2.6767 H         1 RES1    0.0000
     35 H18        8.0284   -0.8101    1.2755 H         1 RES1    0.0000
@<TRIPOS>BOND
     1    1    8 2
     2    2    3 1
     3    4    6 2
     4    5    6 2
     5    6   22 1
     6    7    8 1
     7    8    9 1
     8    9   10 1
     9   11    9 1
    10   12    9 1
    11   13   12 1
    12   14   12 1
    13   15    7 1
    14   16   15 1
    15   17   15 1
    16   18   17 1
    17   19   17 1
    18   20    2 1
    19   21   20 1
    20   22   20 1
    21   23   22 1
    22   24    7 1
    23   25   24 1
    24   26   24 1
    25   27   26 1
    26   28   26 1
    27   29   26 1
    28   30   29 1
    29   31   29 1
    30   32   29 1
    31   33   32 1
    32   34   32 1
    33   35   32 1
    34   12   15 1
    35   17   20 1
    36   22   24 1
@<TRIPOS>SUBSTRUCTURE
     1 RES1 1

@<TRIPOS>CRYSIN
  15.9073    7.7599    9.8119  90.0000  90.0000  90.0000  19 1

