# MOL2 file generated by ConQuest
# Please check atom types

@<TRIPOS>MOLECULE
MIQNOP
    40    43     1
SMALL
NO_CHARGES
****
Generated from CSD

@<TRIPOS>ATOM
      1 C1         2.2890    1.8387   16.0360 C.ar      1 RES1    0.0000
      2 C2         1.5511    3.0004   15.9268 C.ar      1 RES1    0.0000
      3 C3         1.3702    3.5012   14.6593 C.ar      1 RES1    0.0000
      4 C4         1.8975    2.9117   13.5418 C.ar      1 RES1    0.0000
      5 C5         2.6377    1.7431   13.6890 C.ar      1 RES1    0.0000
      6 C6         2.8308    1.2026   14.9536 C.ar      1 RES1    0.0000
      7 N1         2.4776    1.2481   17.3808 N.pl3     1 RES1    0.0000
      8 O1         2.9072    0.1042   17.4259 O.2       1 RES1    0.0000
      9 O2         2.1809    1.9227   18.3467 O.2       1 RES1    0.0000
     10 N2         0.5585    4.7216   14.5063 N.pl3     1 RES1    0.0000
     11 O3         0.1241    5.2501   15.5232 O.2       1 RES1    0.0000
     12 O4         0.3545    5.1321   13.3830 O.2       1 RES1    0.0000
     13 C7         3.1794    1.0017   12.5147 C.2       1 RES1    0.0000
     14 O5         3.6436   -0.1077   12.5905 O.2       1 RES1    0.0000
     15 O6         3.0924    1.7172   11.4060 O.3       1 RES1    0.0000
     16 C8         3.5328    1.0897   10.1750 C.3       1 RES1    0.0000
     17 C9         2.4140    0.2205    9.5514 C.3       1 RES1    0.0000
     18 C10        2.8702    0.2671    8.0843 C.3       1 RES1    0.0000
     19 C11        2.8084    1.7984    7.9911 C.3       1 RES1    0.0000
     20 C12        3.7938    2.1904    9.1347 C.3       1 RES1    0.0000
     21 C13        1.1901    1.0823    9.4815 C.ar      1 RES1    0.0000
     22 C14        0.0274    1.0863   10.2114 C.ar      1 RES1    0.0000
     23 C15       -0.8954    2.0718    9.9739 C.ar      1 RES1    0.0000
     24 C16        1.4254    2.0569    8.5301 C.ar      1 RES1    0.0000
     25 C17       -0.6657    3.0528    9.0371 C.ar      1 RES1    0.0000
     26 C18        0.4866    3.0677    8.2956 C.ar      1 RES1    0.0000
     27 H1         1.1939    3.4229   16.6742 H         1 RES1    0.0000
     28 H2         1.7634    3.2853   12.7012 H         1 RES1    0.0000
     29 H3         3.3215    0.4202   15.0628 H         1 RES1    0.0000
     30 H4         4.3406    0.5578   10.3279 H         1 RES1    0.0000
     31 H5         2.2930   -0.6718    9.9389 H         1 RES1    0.0000
     32 H6         3.7664   -0.0817    7.9590 H         1 RES1    0.0000
     33 H7         2.2497   -0.1727    7.4826 H         1 RES1    0.0000
     34 H8         3.0019    2.1812    7.1096 H         1 RES1    0.0000
     35 H9         4.7135    2.1760    8.8288 H         1 RES1    0.0000
     36 H10        3.5894    3.0689    9.4917 H         1 RES1    0.0000
     37 H11       -0.1312    0.4329   10.8539 H         1 RES1    0.0000
     38 H12       -1.6920    2.0776   10.4547 H         1 RES1    0.0000
     39 H13       -1.3029    3.7177    8.9045 H         1 RES1    0.0000
     40 H14        0.6389    3.7269    7.6589 H         1 RES1    0.0000
@<TRIPOS>BOND
     1    1    2 ar
     2    2    3 ar
     3    3    4 ar
     4    4    5 ar
     5    5    6 ar
     6    6    1 ar
     7    7    1 1
     8    8    7 2
     9    9    7 2
    10   10    3 1
    11   11   10 2
    12   12   10 2
    13   13    5 1
    14   14   13 2
    15   15   13 1
    16   16   15 1
    17   17   16 1
    18   18   17 1
    19   19   18 1
    20   20   16 1
    21   21   17 1
    22   22   21 ar
    23   23   22 ar
    24   24   19 1
    25   25   23 ar
    26   26   24 ar
    27   27    2 1
    28   28    4 1
    29   29    6 1
    30   30   16 1
    31   31   17 1
    32   32   18 1
    33   33   18 1
    34   34   19 1
    35   35   20 1
    36   36   20 1
    37   37   22 1
    38   38   23 1
    39   39   25 1
    40   40   26 1
    41   19   20 1
    42   21   24 ar
    43   25   26 ar
@<TRIPOS>SUBSTRUCTURE
     1 RES1 1

@<TRIPOS>CRYSIN
   9.9656    5.7567   14.5818  90.0000  92.4060  90.0000   4 1

