# MOL2 file generated by ConQuest
# Please check atom types

@<TRIPOS>MOLECULE
MIQSEL
    64    66     1
SMALL
NO_CHARGES
****
Generated from CSD

@<TRIPOS>ATOM
      1 C1        -2.9933    5.3297    6.7117 C.3       1 RES1    0.0000
      2 H1        -3.2434    5.9847    7.4248 H         1 RES1    0.0000
      3 C2        -2.2167    6.0135    5.6233 C.3       1 RES1    0.0000
      4 H2        -2.7698    6.7240    5.2097 H         1 RES1    0.0000
      5 H3        -1.9771    5.3596    4.9189 H         1 RES1    0.0000
      6 C3        -0.9473    6.6248    6.2162 C.3       1 RES1    0.0000
      7 H4        -0.3825    7.0227    5.4944 H         1 RES1    0.0000
      8 C4        -0.1429    5.6113    7.0165 C.3       1 RES1    0.0000
      9 C5        -1.0501    4.8145    7.9674 C.3       1 RES1    0.0000
     10 H5        -1.3821    5.4321    8.6808 H         1 RES1    0.0000
     11 C6         1.0532    6.1832    7.7968 C.3       1 RES1    0.0000
     12 H6         1.6913    5.4407    7.9943 H         1 RES1    0.0000
     13 C7         0.7902    6.9630    9.0941 C.3       1 RES1    0.0000
     14 H7         1.6451    7.2425    9.4841 H         1 RES1    0.0000
     15 H8         0.3129    6.3901    9.7299 H         1 RES1    0.0000
     16 H9         0.2482    7.7545    8.8966 H         1 RES1    0.0000
     17 C8        -0.3646    3.6271    8.6394 C.3       1 RES1    0.0000
     18 H10       -1.0354    3.0820    9.1004 H         1 RES1    0.0000
     19 H11        0.2944    3.9535    9.2863 H         1 RES1    0.0000
     20 H12        0.0875    3.0830    7.9614 H         1 RES1    0.0000
     21 C9        -5.0733    4.3067    7.2069 C.3       1 RES1    0.0000
     22 H13       -4.6144    3.6975    7.8235 H         1 RES1    0.0000
     23 H14       -5.8321    3.8437    6.7953 H         1 RES1    0.0000
     24 H15       -5.3973    5.0876    7.7006 H         1 RES1    0.0000
     25 C10       -1.3384    8.9280    6.7120 C.2       1 RES1    0.0000
     26 C11       -1.9919    9.8508    7.6829 C.ar      1 RES1    0.0000
     27 C12       -1.9734   11.2142    7.4407 C.ar      1 RES1    0.0000
     28 H16       -1.5225   11.5683    6.6814 H         1 RES1    0.0000
     29 C13       -2.6201   12.0399    8.3217 C.ar      1 RES1    0.0000
     30 C14       -3.3272   11.5747    9.4358 C.ar      1 RES1    0.0000
     31 H17       -3.7947   12.1647   10.0146 H         1 RES1    0.0000
     32 C15       -3.3081   10.2252    9.6454 C.ar      1 RES1    0.0000
     33 C16       -2.6620    9.3366    8.8031 C.ar      1 RES1    0.0000
     34 H18       -2.6737    8.4032    8.9775 H         1 RES1    0.0000
     35 C17        3.0057    7.3012    6.9575 C.2       1 RES1    0.0000
     36 C18        3.5649    8.1226    5.8475 C.ar      1 RES1    0.0000
     37 C19        4.9439    8.2069    5.7450 C.ar      1 RES1    0.0000
     38 H19        5.5050    7.7897    6.3877 H         1 RES1    0.0000
     39 C20        5.4872    8.9152    4.6797 C.ar      1 RES1    0.0000
     40 C21        4.7228    9.5286    3.7097 C.ar      1 RES1    0.0000
     41 H20        5.1146   10.0044    2.9855 H         1 RES1    0.0000
     42 C22        3.3524    9.4102    3.8533 C.ar      1 RES1    0.0000
     43 C23        2.7451    8.7168    4.9033 C.ar      1 RES1    0.0000
     44 H21        1.8003    8.6549    4.9669 H         1 RES1    0.0000
     45 O1        -4.1426    4.7408    6.1668 O.3       1 RES1    0.0000
     46 O2        -1.3846    7.6596    7.1478 O.3       1 RES1    0.0000
     47 O3         0.3720    4.6598    6.0732 O.3       1 RES1    0.0000
     48 O4        -2.1914    4.2736    7.2623 O.3       1 RES1    0.0000
     49 O5         1.6833    7.1081    6.8301 O.3       1 RES1    0.0000
     50 O6        -0.8315    9.2790    5.6695 O.2       1 RES1    0.0000
     51 O7        -2.0091   13.9132    7.1125 O.2       1 RES1    0.0000
     52 O8        -3.1541   14.2151    8.9149 O.2       1 RES1    0.0000
     53 O9         3.6943    6.8531    7.8484 O.2       1 RES1    0.0000
     54 O10       -4.8362   10.3970   11.3716 O.2       1 RES1    0.0000
     55 O11       -3.7485    8.5280   11.1759 O.2       1 RES1    0.0000
     56 O12        7.6300    8.4810    5.4782 O.2       1 RES1    0.0000
     57 O13        7.4224    9.5873    3.6105 O.2       1 RES1    0.0000
     58 O14        3.0168   10.6338    1.9247 O.2       1 RES1    0.0000
     59 O15        1.2965    9.9137    2.9250 O.2       1 RES1    0.0000
     60 N1        -2.5973   13.4918    8.0992 N.pl3     1 RES1    0.0000
     61 N2        -4.0151    9.6662   10.8102 N.pl3     1 RES1    0.0000
     62 N3         6.9617    8.9920    4.5814 N.pl3     1 RES1    0.0000
     63 N4         2.4809   10.0364    2.8221 N.pl3     1 RES1    0.0000
     64 H22        0.8192    5.1100    5.6353 H         1 RES1    0.0000
@<TRIPOS>BOND
     1    1    2 1
     2    3    1 1
     3    4    3 1
     4    5    3 1
     5    6    3 1
     6    7    6 1
     7    8    6 1
     8    9    8 1
     9   10    9 1
    10   11    8 1
    11   12   11 1
    12   13   11 1
    13   14   13 1
    14   15   13 1
    15   16   13 1
    16   17    9 1
    17   18   17 1
    18   19   17 1
    19   20   17 1
    20   21   22 1
    21   23   21 1
    22   24   21 1
    23   25   26 1
    24   26   27 ar
    25   27   28 1
    26   29   27 ar
    27   30   29 ar
    28   31   30 1
    29   32   30 ar
    30   33   26 ar
    31   34   33 1
    32   35   36 1
    33   36   37 ar
    34   37   38 1
    35   39   37 ar
    36   40   39 ar
    37   41   40 1
    38   42   40 ar
    39   43   36 ar
    40   44   43 1
    41   45    1 1
    42   46    6 1
    43   47    8 1
    44   48    1 1
    45   49   11 1
    46   50   25 2
    47   51   60 2
    48   52   60 2
    49   53   35 2
    50   54   61 2
    51   55   61 2
    52   56   62 2
    53   57   62 2
    54   58   63 2
    55   59   63 2
    56   60   29 1
    57   61   32 1
    58   62   39 1
    59   63   42 1
    60   64   47 1
    61    9   48 1
    62   21   45 1
    63   25   46 1
    64   32   33 ar
    65   35   49 1
    66   42   43 ar
@<TRIPOS>SUBSTRUCTURE
     1 RES1 1

@<TRIPOS>CRYSIN
  12.3183   12.3183   29.9750  90.0000  90.0000 120.0000 154 1

