# MOL2 file generated by ConQuest
# Please check atom types

@<TRIPOS>MOLECULE
MIQZUH
    16    16     1
SMALL
NO_CHARGES
****
Generated from CSD

@<TRIPOS>ATOM
      1 O1        -2.5367   -7.2969   10.9662 O.3       1 RES1    0.0000
      2 O2         2.9394   -0.1949    6.8501 O.2       1 RES1    0.0000
      3 O3         2.4188    0.1093    8.9072 O.2       1 RES1    0.0000
      4 N1        -3.4508   -5.9039    8.5621 N.pl3     1 RES1    0.0000
      5 N2         2.2527   -0.4607    7.8309 N.pl3     1 RES1    0.0000
      6 C1        -3.8397   -7.4433   10.4520 C.3       1 RES1    0.0000
      7 C2        -4.2874   -6.2241    9.7035 C.3       1 RES1    0.0000
      8 C3        -3.6740   -6.6841    7.3604 C.3       1 RES1    0.0000
      9 C4        -2.5110   -4.9224    8.5755 C.ar      1 RES1    0.0000
     10 C5        -2.1861   -4.1879    9.7413 C.ar      1 RES1    0.0000
     11 C6        -1.2364   -3.2136    9.7366 C.ar      1 RES1    0.0000
     12 C7        -0.5198   -2.8921    8.5858 C.ar      1 RES1    0.0000
     13 C8        -0.8228   -3.6124    7.4263 C.ar      1 RES1    0.0000
     14 C9        -1.7850   -4.5879    7.4088 C.ar      1 RES1    0.0000
     15 C10        0.5017   -1.8634    8.6579 C.2       1 RES1    0.0000
     16 C11        1.2769   -1.4807    7.6513 C.2       1 RES1    0.0000
@<TRIPOS>BOND
     1    1    6 1
     2    2    5 2
     3    3    5 2
     4    4    7 1
     5    5   16 1
     6    6    7 1
     7    8    4 1
     8    9    4 1
     9   10    9 ar
    10   11   10 ar
    11   12   11 ar
    12   13   12 ar
    13   14    9 ar
    14   15   12 1
    15   16   15 2
    16   13   14 ar
@<TRIPOS>SUBSTRUCTURE
     1 RES1 1

@<TRIPOS>CRYSIN
   5.1380    9.3860   12.2820 108.9290  94.7000  99.2800   2 1

