# MOL2 file generated by ConQuest
# Please check atom types

@<TRIPOS>MOLECULE
MIRBOE
    86    88     1
SMALL
NO_CHARGES
****
Generated from CSD

@<TRIPOS>ATOM
      1 O1         9.9029    1.7215    2.8201 O.3       1 RES1    0.0000
      2 O2        11.7656   -0.0768    3.9903 O.3       1 RES1    0.0000
      3 O3        13.1255   -1.1728    6.3843 O.3       1 RES1    0.0000
      4 O4        14.0459   -3.4257    7.9375 O.3       1 RES1    0.0000
      5 O5        14.4689   -3.9172   10.7945 O.3       1 RES1    0.0000
      6 O6        18.7015   -5.8299   13.2051 O.2       1 RES1    0.0000
      7 O7        19.8241   -4.1588   12.4066 O.2       1 RES1    0.0000
      8 O8        19.1423   -3.0380   14.8944 O.2       1 RES1    0.0000
      9 O9        18.3034   -1.0486   14.7514 O.2       1 RES1    0.0000
     10 N1        18.7958   -4.6760   12.8133 N.pl3     1 RES1    0.0000
     11 N2        18.3517   -2.2243   14.4326 N.pl3     1 RES1    0.0000
     12 C1        10.0453    0.3613    2.3523 C.3       1 RES1    0.0000
     13 C2        11.4494   -0.0753    2.6056 C.3       1 RES1    0.0000
     14 C3        13.1723   -0.2341    4.1757 C.3       1 RES1    0.0000
     15 C4        13.5587   -0.0640    5.6119 C.3       1 RES1    0.0000
     16 C5        13.6230   -1.0997    7.7184 C.3       1 RES1    0.0000
     17 C6        13.2803   -2.3380    8.4662 C.3       1 RES1    0.0000
     18 C7        13.8380   -4.6526    8.6152 C.3       1 RES1    0.0000
     19 C8        14.7898   -4.8596    9.7444 C.3       1 RES1    0.0000
     20 C9        15.4522   -3.5868   11.6528 C.ar      1 RES1    0.0000
     21 C10       16.5915   -4.3448   11.8762 C.ar      1 RES1    0.0000
     22 C11       17.5580   -3.8826   12.7552 C.ar      1 RES1    0.0000
     23 C12       17.3852   -2.6940   13.4270 C.ar      1 RES1    0.0000
     24 C13       16.2438   -1.9195   13.2274 C.ar      1 RES1    0.0000
     25 C14        8.7473    2.3621    2.5475 C.ar      1 RES1    0.0000
     26 H1         9.4438   -0.2047    2.8216 H         1 RES1    0.0000
     27 H2         9.8590    0.3199    1.4212 H         1 RES1    0.0000
     28 H3        12.0412    0.5179    2.1571 H         1 RES1    0.0000
     29 H4        11.5638   -0.9545    2.2644 H         1 RES1    0.0000
     30 H5        13.4245   -1.1043    3.8897 H         1 RES1    0.0000
     31 H6        13.6268    0.4163    3.6543 H         1 RES1    0.0000
     32 H7        13.1584    0.7279    5.9500 H         1 RES1    0.0000
     33 H8        14.5047    0.0083    5.6729 H         1 RES1    0.0000
     34 H9        14.5678   -0.9996    7.6945 H         1 RES1    0.0000
     35 H10       13.2367   -0.3515    8.1563 H         1 RES1    0.0000
     36 H11       12.3526   -2.5232    8.3679 H         1 RES1    0.0000
     37 H12       13.4833   -2.2213    9.3869 H         1 RES1    0.0000
     38 H13       12.9525   -4.6632    8.9578 H         1 RES1    0.0000
     39 H14       13.9456   -5.3640    7.9940 H         1 RES1    0.0000
     40 H15       15.6795   -4.7143    9.4435 H         1 RES1    0.0000
     41 H16       14.7080   -5.7471   10.0736 H         1 RES1    0.0000
     42 H17       16.7092   -5.1750   11.4278 H         1 RES1    0.0000
     43 H18       16.1351   -1.0960   13.6892 H         1 RES1    0.0000
     44 C14B      15.2684   -2.3621   12.3500 C.ar      1 RES1    0.0000
     45 O1B       14.1128   -1.7215   12.0773 O.3       1 RES1    0.0000
     46 C1B       13.9704   -0.3613   12.5451 C.3       1 RES1    0.0000
     47 C2B       12.5663    0.0753   12.2919 C.3       1 RES1    0.0000
     48 O2B       12.2502    0.0768   10.9071 O.3       1 RES1    0.0000
     49 C3B       10.8435    0.2341   10.7217 C.3       1 RES1    0.0000
     50 C4B       10.4571    0.0640    9.2856 C.3       1 RES1    0.0000
     51 O3B       10.8902    1.1728    8.5131 O.3       1 RES1    0.0000
     52 C5B       10.3928    1.0997    7.1791 C.3       1 RES1    0.0000
     53 C6B       10.7354    2.3380    6.4312 C.3       1 RES1    0.0000
     54 O4B        9.9698    3.4257    6.9599 O.3       1 RES1    0.0000
     55 C7B       10.1778    4.6526    6.2822 C.3       1 RES1    0.0000
     56 C8B        9.2259    4.8596    5.1530 C.3       1 RES1    0.0000
     57 O5B        9.5468    3.9172    4.1029 O.3       1 RES1    0.0000
     58 C9B        8.5635    3.5868    3.2447 C.ar      1 RES1    0.0000
     59 C10B       7.4243    4.3448    3.0212 C.ar      1 RES1    0.0000
     60 C11B       6.4577    3.8826    2.1422 C.ar      1 RES1    0.0000
     61 N1B        5.2200    4.6760    2.0841 N.pl3     1 RES1    0.0000
     62 O6B        5.3142    5.8299    1.6923 O.2       1 RES1    0.0000
     63 O7B        4.1917    4.1588    2.4908 O.2       1 RES1    0.0000
     64 C12B       6.6306    2.6940    1.4704 C.ar      1 RES1    0.0000
     65 N2B        5.6640    2.2243    0.4648 N.pl3     1 RES1    0.0000
     66 O8B        4.8734    3.0380    0.0030 O.2       1 RES1    0.0000
     67 O9B        5.7124    1.0486    0.1460 O.2       1 RES1    0.0000
     68 C13B       7.7720    1.9195    1.6700 C.ar      1 RES1    0.0000
     69 H18B       7.8806    1.0960    1.2082 H         1 RES1    0.0000
     70 H17B       7.3066    5.1750    3.4696 H         1 RES1    0.0000
     71 H15B       8.3362    4.7143    5.4539 H         1 RES1    0.0000
     72 H16B       9.3078    5.7471    4.8238 H         1 RES1    0.0000
     73 H13B      11.0632    4.6632    5.9396 H         1 RES1    0.0000
     74 H14B      10.0701    5.3640    6.9035 H         1 RES1    0.0000
     75 H11B      11.6632    2.5232    6.5295 H         1 RES1    0.0000
     76 H12B      10.5324    2.2213    5.5106 H         1 RES1    0.0000
     77 H9B        9.4479    0.9996    7.2029 H         1 RES1    0.0000
     78 H10B      10.7790    0.3515    6.7411 H         1 RES1    0.0000
     79 H7B       10.8574   -0.7279    8.9474 H         1 RES1    0.0000
     80 H8B        9.5110   -0.0083    9.2245 H         1 RES1    0.0000
     81 H5B       10.5913    1.1043   11.0077 H         1 RES1    0.0000
     82 H6B       10.3889   -0.4163   11.2431 H         1 RES1    0.0000
     83 H3B       11.9745   -0.5179   12.7403 H         1 RES1    0.0000
     84 H4B       12.4520    0.9545   12.6330 H         1 RES1    0.0000
     85 H1B       14.5720    0.2047   12.0758 H         1 RES1    0.0000
     86 H2B       14.1567   -0.3199   13.4762 H         1 RES1    0.0000
@<TRIPOS>BOND
     1    1   12 1
     2    2   13 1
     3    3   15 1
     4    4   17 1
     5    5   19 1
     6    6   10 2
     7    7   10 2
     8    8   11 2
     9    9   11 2
    10   10   22 1
    11   11   23 1
    12   12   13 1
    13   13   28 1
    14   14    2 1
    15   15   14 1
    16   16    3 1
    17   17   16 1
    18   18    4 1
    19   19   18 1
    20   20    5 1
    21   21   20 ar
    22   22   21 ar
    23   23   22 ar
    24   24   23 ar
    25   25    1 1
    26   26   12 1
    27   27   12 1
    28   29   13 1
    29   30   14 1
    30   31   14 1
    31   32   15 1
    32   33   15 1
    33   34   16 1
    34   35   16 1
    35   36   17 1
    36   37   17 1
    37   38   18 1
    38   39   18 1
    39   40   19 1
    40   41   19 1
    41   42   21 1
    42   43   24 1
    43   44   20 ar
    44   45   44 1
    45   46   45 1
    46   47   46 1
    47   48   47 1
    48   49   48 1
    49   50   49 1
    50   51   50 1
    51   52   51 1
    52   53   52 1
    53   54   53 1
    54   55   54 1
    55   56   55 1
    56   57   56 1
    57   58   25 ar
    58   59   58 ar
    59   60   59 ar
    60   61   60 1
    61   62   61 2
    62   63   61 2
    63   64   60 ar
    64   65   64 1
    65   66   65 2
    66   67   65 2
    67   68   25 ar
    68   69   68 1
    69   70   59 1
    70   71   56 1
    71   72   56 1
    72   73   55 1
    73   74   55 1
    74   75   53 1
    75   76   53 1
    76   77   52 1
    77   78   52 1
    78   79   50 1
    79   80   50 1
    80   81   49 1
    81   82   49 1
    82   83   47 1
    83   84   47 1
    84   85   46 1
    85   86   46 1
    86   24   44 ar
    87   57   58 1
    88   64   68 ar
@<TRIPOS>SUBSTRUCTURE
     1 RES1 1

@<TRIPOS>CRYSIN
  13.9862    7.5273   15.4139  90.0000 104.8740  90.0000  14 1

