# MOL2 file generated by ConQuest
# Please check atom types

@<TRIPOS>MOLECULE
MIRLOO
    92    98     2
SMALL
NO_CHARGES
****
Generated from CSD

@<TRIPOS>ATOM
      1 C1         7.9226    4.5850    3.4687 C.3       1 RES1    0.0000
      2 C2         7.1482    5.8311    3.1272 C.3       1 RES1    0.0000
      3 C3         7.6548    5.0068    2.0097 C.3       1 RES1    0.0000
      4 C4         8.7439    5.4487    1.0898 C.ar      1 RES1    0.0000
      5 C5         9.1598    4.5918    0.0818 C.ar      1 RES1    0.0000
      6 C6        10.0970    5.0111   -0.8600 C.ar      1 RES1    0.0000
      7 C7        10.6336    6.2769   -0.8299 C.ar      1 RES1    0.0000
      8 C8        10.2249    7.1177    0.1789 C.ar      1 RES1    0.0000
      9 C9         9.2918    6.7169    1.1235 C.ar      1 RES1    0.0000
     10 C10       11.6206    6.7390   -1.8716 C.3       1 RES1    0.0000
     11 H1        11.1923    7.3591   -2.4654 H         1 RES1    0.0000
     12 H2        11.9353    5.9829   -2.3732 H         1 RES1    0.0000
     13 H3        12.3631    7.1670   -1.4399 H         1 RES1    0.0000
     14 C11       -0.5490   10.9191    3.4779 C.3       2 RES2    0.0000
     15 C12        0.2363   12.1735    3.1666 C.3       2 RES2    0.0000
     16 C13       -0.2656   11.3593    2.0340 C.3       2 RES2    0.0000
     17 C14       -1.3602   11.7825    1.1215 C.ar      2 RES2    0.0000
     18 C15       -1.8085   10.8797    0.1646 C.ar      2 RES2    0.0000
     19 C16       -2.7666   11.2515   -0.7634 C.ar      2 RES2    0.0000
     20 C17       -3.3027   12.5227   -0.7712 C.ar      2 RES2    0.0000
     21 C18       -2.8613   13.4129    0.1874 C.ar      2 RES2    0.0000
     22 C19       -1.8934   13.0528    1.1153 C.ar      2 RES2    0.0000
     23 C20       -4.3153   12.9296   -1.8063 C.3       2 RES2    0.0000
     24 H4        -3.8797   13.4237   -2.5032 H         2 RES2    0.0000
     25 H5        -4.9884   13.4789   -1.3976 H         2 RES2    0.0000
     26 H6        -4.7250   12.1459   -2.1780 H         2 RES2    0.0000
     27 N1         7.0551    3.4627    3.9205 N.pl3     1 RES1    0.0000
     28 N2         0.2915    9.7809    3.9264 N.pl3     2 RES2    0.0000
     29 O1         5.9356    3.3596    3.4409 O.2       1 RES1    0.0000
     30 O2         7.4972    2.6924    4.7496 O.2       1 RES1    0.0000
     31 O3        -0.1451    9.0622    4.8065 O.2       2 RES2    0.0000
     32 O4         1.3807    9.6103    3.4056 O.2       2 RES2    0.0000
     33 H7         7.5956    6.6458    3.3457 H         1 RES1    0.0000
     34 H8         6.2230    5.8027    3.2988 H         1 RES1    0.0000
     35 H9         6.9766    4.4409    1.6003 H         1 RES1    0.0000
     36 H10        8.7660    3.7420    0.0348 H         1 RES1    0.0000
     37 H11       10.2966    4.3641   -1.5186 H         1 RES1    0.0000
     38 H12       10.5723    7.9836    0.1815 H         1 RES1    0.0000
     39 H13        9.0290    7.3951    1.7742 H         1 RES1    0.0000
     40 H14        1.1936   12.1267    3.3548 H         2 RES2    0.0000
     41 H15       -0.1906   12.9937    3.3896 H         2 RES2    0.0000
     42 H16        0.4246   10.8153    1.6456 H         2 RES2    0.0000
     43 H17       -1.3942    9.9555    0.1876 H         2 RES2    0.0000
     44 H18       -3.0094   10.5679   -1.4339 H         2 RES2    0.0000
     45 H19       -3.1977   14.2259    0.2148 H         2 RES2    0.0000
     46 H20       -1.5862   13.7239    1.7258 H         2 RES2    0.0000
     47 C1E        9.2531    4.5850    4.0940 C.3       1 RES1    0.0000
     48 C2E       10.0275    5.8311    4.4355 C.3       1 RES1    0.0000
     49 C3E        9.5210    5.0068    5.5529 C.3       1 RES1    0.0000
     50 N1E       10.1206    3.4627    3.6422 N.pl3     1 RES1    0.0000
     51 O1E       11.2401    3.3596    4.1218 O.2       1 RES1    0.0000
     52 O2E        9.6785    2.6924    2.8130 O.2       1 RES1    0.0000
     53 C4E        8.4318    5.4487    6.4729 C.ar      1 RES1    0.0000
     54 C5E        8.0159    4.5918    7.4808 C.ar      1 RES1    0.0000
     55 C6E        7.0787    5.0111    8.4227 C.ar      1 RES1    0.0000
     56 C7E        6.5421    6.2769    8.3926 C.ar      1 RES1    0.0000
     57 C8E        6.9508    7.1177    7.3837 C.ar      1 RES1    0.0000
     58 C9E        7.8839    6.7169    6.4391 C.ar      1 RES1    0.0000
     59 H13E       8.1467    7.3951    5.7884 H         1 RES1    0.0000
     60 H12E       6.6034    7.9836    7.3811 H         1 RES1    0.0000
     61 C10E       5.5551    6.7390    9.4343 C.3       1 RES1    0.0000
     62 H1E        5.9834    7.3591   10.0281 H         1 RES1    0.0000
     63 H2E        5.2404    5.9829    9.9358 H         1 RES1    0.0000
     64 H3E        4.8126    7.1670    9.0026 H         1 RES1    0.0000
     65 H11E       6.8791    4.3641    9.0812 H         1 RES1    0.0000
     66 H10E       8.4097    3.7420    7.5279 H         1 RES1    0.0000
     67 H9E       10.1991    4.4409    5.9624 H         1 RES1    0.0000
     68 H7E        9.5801    6.6458    4.2169 H         1 RES1    0.0000
     69 H8E       10.9527    5.8027    4.2638 H         1 RES1    0.0000
     70 C11E      -1.8893   10.9191    4.0847 C.3       2 RES2    0.0000
     71 C12E      -2.6746   12.1735    4.3960 C.3       2 RES2    0.0000
     72 C13E      -2.1727   11.3593    5.5286 C.3       2 RES2    0.0000
     73 N2E       -2.7298    9.7809    3.6363 N.pl3     2 RES2    0.0000
     74 O3E       -2.2932    9.0622    2.7561 O.2       2 RES2    0.0000
     75 O4E       -3.8190    9.6103    4.1570 O.2       2 RES2    0.0000
     76 C14E      -1.0781   11.7825    6.4411 C.ar      2 RES2    0.0000
     77 C15E      -0.6298   10.8797    7.3981 C.ar      2 RES2    0.0000
     78 C16E       0.3283   11.2515    8.3260 C.ar      2 RES2    0.0000
     79 C17E       0.8644   12.5227    8.3339 C.ar      2 RES2    0.0000
     80 C18E       0.4230   13.4129    7.3752 C.ar      2 RES2    0.0000
     81 C19E      -0.5449   13.0528    6.4473 C.ar      2 RES2    0.0000
     82 H20E      -0.8521   13.7239    5.8369 H         2 RES2    0.0000
     83 H19E       0.7594   14.2259    7.3479 H         2 RES2    0.0000
     84 C20E       1.8770   12.9296    9.3689 C.3       2 RES2    0.0000
     85 H4E        1.4414   13.4237   10.0659 H         2 RES2    0.0000
     86 H5E        2.5501   13.4789    8.9602 H         2 RES2    0.0000
     87 H6E        2.2867   12.1459    9.7407 H         2 RES2    0.0000
     88 H18E       0.5711   10.5679    8.9965 H         2 RES2    0.0000
     89 H17E      -1.0441    9.9555    7.3751 H         2 RES2    0.0000
     90 H16E      -2.8629   10.8153    5.9170 H         2 RES2    0.0000
     91 H14E      -3.6319   12.1267    4.2079 H         2 RES2    0.0000
     92 H15E      -2.2477   12.9937    4.1731 H         2 RES2    0.0000
@<TRIPOS>BOND
     1    1    2 1
     2    2    3 1
     3    3    1 1
     4    4    3 1
     5    5    4 ar
     6    6    5 ar
     7    7    6 ar
     8    8    7 ar
     9    9    4 ar
    10   10    7 1
    11   11   10 1
    12   12   10 1
    13   13   10 1
    14   14   15 1
    15   15   16 1
    16   16   14 1
    17   17   16 1
    18   18   17 ar
    19   19   18 ar
    20   20   19 ar
    21   21   20 ar
    22   22   17 ar
    23   23   20 1
    24   24   23 1
    25   25   23 1
    26   26   23 1
    27   27    1 1
    28   28   14 1
    29   29   27 2
    30   30   27 2
    31   31   28 2
    32   32   28 2
    33   33    2 1
    34   34    2 1
    35   35    3 1
    36   36    5 1
    37   37    6 1
    38   38    8 1
    39   39    9 1
    40   40   15 1
    41   41   15 1
    42   42   16 1
    43   43   18 1
    44   44   19 1
    45   45   21 1
    46   46   22 1
    47   47    1 1
    48   48   47 1
    49   49   47 1
    50   50   47 1
    51   51   50 2
    52   52   50 2
    53   53   49 1
    54   54   53 ar
    55   55   54 ar
    56   56   55 ar
    57   57   56 ar
    58   58   53 ar
    59   59   58 1
    60   60   57 1
    61   61   56 1
    62   62   61 1
    63   63   61 1
    64   64   61 1
    65   65   55 1
    66   66   54 1
    67   67   49 1
    68   68   48 1
    69   69   48 1
    70   70   14 1
    71   71   70 1
    72   72   70 1
    73   73   70 1
    74   74   73 2
    75   75   73 2
    76   76   72 1
    77   77   76 ar
    78   78   77 ar
    79   79   78 ar
    80   80   79 ar
    81   81   76 ar
    82   82   81 1
    83   83   80 1
    84   84   79 1
    85   85   84 1
    86   86   84 1
    87   87   84 1
    88   88   78 1
    89   89   77 1
    90   90   72 1
    91   91   71 1
    92   92   71 1
    93    8    9 ar
    94   21   22 ar
    95   48   49 1
    96   57   58 ar
    97   71   72 1
    98   80   81 ar
@<TRIPOS>SUBSTRUCTURE
     1 RES1 1
     2 RES2 14

@<TRIPOS>CRYSIN
   9.8070   24.0180   15.8920  90.0000 107.8700  90.0000  15 1

