# MOL2 file generated by ConQuest
# Please check atom types

@<TRIPOS>MOLECULE
MISCUN
    69    74     1
SMALL
NO_CHARGES
****
Generated from CSD

@<TRIPOS>ATOM
      1 C1         1.9939    4.9375    1.4251 C.3       1 RES1    0.0000
      2 H1         1.3342    4.2842    1.7059 H         1 RES1    0.0000
      3 H2         2.0077    4.9564    0.4553 H         1 RES1    0.0000
      4 C2         1.6106    6.3053    1.9536 C.3       1 RES1    0.0000
      5 H3         2.1242    6.9760    1.4774 H         1 RES1    0.0000
      6 H4         0.6735    6.4598    1.7565 H         1 RES1    0.0000
      7 C3         1.8255    6.4934    3.4206 C.2       1 RES1    0.0000
      8 C4         3.0337    5.7832    4.0363 C.3       1 RES1    0.0000
      9 C5         3.1809    4.4052    3.3787 C.3       1 RES1    0.0000
     10 H5         3.9635    3.9561    3.7363 H         1 RES1    0.0000
     11 H6         2.4026    3.8628    3.5828 H         1 RES1    0.0000
     12 C6         4.3849    6.5706    3.8767 C.3       1 RES1    0.0000
     13 H7         5.0541    5.9626    3.4991 H         1 RES1    0.0000
     14 C7         2.8950    5.6986    5.5800 C.3       1 RES1    0.0000
     15 H8         2.3984    6.4802    5.8992 H         1 RES1    0.0000
     16 C8         3.7877    3.2766    1.3082 C.3       1 RES1    0.0000
     17 H9         3.2095    2.5489    1.6187 H         1 RES1    0.0000
     18 C9         5.2098    2.9660    1.7303 C.3       1 RES1    0.0000
     19 H10        5.2363    2.8172    2.6775 H         1 RES1    0.0000
     20 H11        5.7784    3.7067    1.5071 H         1 RES1    0.0000
     21 H12        5.5148    2.1786    1.2733 H         1 RES1    0.0000
     22 C10        6.1660    6.9673    5.5607 C.ar      1 RES1    0.0000
     23 C11        7.0152    7.6556    4.7201 C.ar      1 RES1    0.0000
     24 H13        6.6764    8.0288    3.9386 H         1 RES1    0.0000
     25 C12        8.3547    7.8028    5.0131 C.ar      1 RES1    0.0000
     26 H14        8.9064    8.2826    4.4375 H         1 RES1    0.0000
     27 C13        8.8715    7.2458    6.1452 C.ar      1 RES1    0.0000
     28 H15        9.7768    7.3304    6.3405 H         1 RES1    0.0000
     29 C14        8.0402    6.5619    6.9912 C.ar      1 RES1    0.0000
     30 H16        8.3875    6.1813    7.7656 H         1 RES1    0.0000
     31 C15        6.6944    6.4277    6.7121 C.ar      1 RES1    0.0000
     32 H17        6.1416    5.9728    7.3051 H         1 RES1    0.0000
     33 C16        4.3235    7.7999    3.0176 C.ar      1 RES1    0.0000
     34 C17        4.7365    7.7285    1.6937 C.ar      1 RES1    0.0000
     35 H18        5.1272    6.9469    1.3745 H         1 RES1    0.0000
     36 C18        4.5734    8.8002    0.8547 C.ar      1 RES1    0.0000
     37 H19        4.8339    8.7302   -0.0366 H         1 RES1    0.0000
     38 C19        4.0344    9.9683    1.3047 C.ar      1 RES1    0.0000
     39 H20        3.9137   10.6871    0.7274 H         1 RES1    0.0000
     40 C20        3.6712   10.0689    2.6321 C.ar      1 RES1    0.0000
     41 H21        3.3355   10.8723    2.9583 H         1 RES1    0.0000
     42 C21        3.8004    8.9898    3.4781 C.ar      1 RES1    0.0000
     43 H22        3.5325    9.0642    4.3642 H         1 RES1    0.0000
     44 C22        2.2491    4.4519    6.1190 C.ar      1 RES1    0.0000
     45 C23        2.9850    3.3757    6.5638 C.ar      1 RES1    0.0000
     46 H23        3.9137    3.4268    6.5708 H         1 RES1    0.0000
     47 C24        2.3656    2.2310    7.0016 C.ar      1 RES1    0.0000
     48 H24        2.8781    1.5122    7.2947 H         1 RES1    0.0000
     49 C25        1.0049    2.1377    7.0103 C.ar      1 RES1    0.0000
     50 H25        0.5919    1.3605    7.3104 H         1 RES1    0.0000
     51 C26        0.2457    3.1978    6.5708 C.ar      1 RES1    0.0000
     52 H26       -0.6819    3.1395    6.5690 H         1 RES1    0.0000
     53 C27        0.8725    4.3556    6.1312 C.ar      1 RES1    0.0000
     54 H27        0.3590    5.0760    5.8417 H         1 RES1    0.0000
     55 C28        3.7167    3.3232   -0.2023 C.ar      1 RES1    0.0000
     56 C29        3.2889    2.2238   -0.9018 C.ar      1 RES1    0.0000
     57 H28        2.9903    1.4742   -0.4413 H         1 RES1    0.0000
     58 C30        3.2953    2.2150   -2.2781 C.ar      1 RES1    0.0000
     59 H29        3.0136    1.4553   -2.7351 H         1 RES1    0.0000
     60 C31        3.7125    3.3087   -2.9758 C.ar      1 RES1    0.0000
     61 H30        3.7199    3.2941   -3.9055 H         1 RES1    0.0000
     62 C32        4.1202    4.4271   -2.3025 C.ar      1 RES1    0.0000
     63 H31        4.3764    5.1897   -2.7699 H         1 RES1    0.0000
     64 C33        4.1498    4.4169   -0.9245 C.ar      1 RES1    0.0000
     65 H32        4.4696    5.1649   -0.4710 H         1 RES1    0.0000
     66 N1         3.3165    4.5438    1.9275 N.3       1 RES1    0.0000
     67 N2         4.7714    6.8842    5.2760 N.3       1 RES1    0.0000
     68 O1         1.0864    7.1787    4.0858 O.2       1 RES1    0.0000
     69 O2         4.2409    5.7771    6.0510 O.3       1 RES1    0.0000
@<TRIPOS>BOND
     1    1    2 1
     2    3    1 1
     3    4    1 1
     4    5    4 1
     5    6    4 1
     6    7    4 1
     7    8    7 1
     8    9    8 1
     9   10    9 1
    10   11    9 1
    11   12    8 1
    12   13   12 1
    13   14    8 1
    14   15   14 1
    15   16   17 1
    16   18   16 1
    17   19   18 1
    18   20   18 1
    19   21   18 1
    20   22   23 ar
    21   23   24 1
    22   25   23 ar
    23   26   25 1
    24   27   25 ar
    25   28   27 1
    26   29   27 ar
    27   30   29 1
    28   31   22 ar
    29   32   31 1
    30   33   12 1
    31   34   33 ar
    32   35   34 1
    33   36   34 ar
    34   37   36 1
    35   38   36 ar
    36   39   38 1
    37   40   38 ar
    38   41   40 1
    39   42   33 ar
    40   43   42 1
    41   44   14 1
    42   45   44 ar
    43   46   45 1
    44   47   45 ar
    45   48   47 1
    46   49   47 ar
    47   50   49 1
    48   51   49 ar
    49   52   51 1
    50   53   44 ar
    51   54   53 1
    52   55   16 1
    53   56   55 ar
    54   57   56 1
    55   58   56 ar
    56   59   58 1
    57   60   58 ar
    58   61   60 1
    59   62   60 ar
    60   63   62 1
    61   64   55 ar
    62   65   64 1
    63   66    1 1
    64   67   12 1
    65   68    7 2
    66   69   14 1
    67    9   66 1
    68   16   66 1
    69   22   67 1
    70   29   31 ar
    71   40   42 ar
    72   51   53 ar
    73   62   64 ar
    74   67   69 1
@<TRIPOS>SUBSTRUCTURE
     1 RES1 1

@<TRIPOS>CRYSIN
  10.5890   14.5820   17.4430  90.0000  90.0000  90.0000  19 1

