# MOL2 file generated by ConQuest
# Please check atom types

@<TRIPOS>MOLECULE
MISDAU
    28    28     1
SMALL
NO_CHARGES
****
Generated from CSD

@<TRIPOS>ATOM
      1 N1         3.0051    0.6286    7.4355 N.pl3     1 RES1    0.0000
      2 N2         8.3690    1.9662    6.5824 N.pl3     1 RES1    0.0000
      3 H1         8.8905    1.7661    7.2264 H         1 RES1    0.0000
      4 N3         8.8025    2.3354    5.3540 N.2       1 RES1    0.0000
      5 O1         2.6816    0.2395    8.5591 O.2       1 RES1    0.0000
      6 O2         2.2053    0.7231    6.5080 O.2       1 RES1    0.0000
      7 O3         9.6875    2.9927    2.8635 O.2       1 RES1    0.0000
      8 O4        11.6603    3.5140    3.7838 O.3       1 RES1    0.0000
      9 C1         4.3929    0.9869    7.2001 C.ar      1 RES1    0.0000
     10 C2         4.7747    1.4441    5.9459 C.ar      1 RES1    0.0000
     11 H2         4.1424    1.5029    5.2128 H         1 RES1    0.0000
     12 C3         6.0984    1.7830    5.7309 C.ar      1 RES1    0.0000
     13 H3         6.3637    2.1401    4.8685 H         1 RES1    0.0000
     14 C4         7.0313    1.6457    6.7615 C.ar      1 RES1    0.0000
     15 C5         6.6257    1.1781    8.0190 C.ar      1 RES1    0.0000
     16 H4         7.2805    1.0943    8.7098 H         1 RES1    0.0000
     17 C6         5.3051    0.8498    8.2372 C.ar      1 RES1    0.0000
     18 H5         5.0374    0.4987    9.0971 H         1 RES1    0.0000
     19 C7        10.0523    2.6238    5.2184 C.2       1 RES1    0.0000
     20 C8        11.0948    2.6063    6.2908 C.3       1 RES1    0.0000
     21 H6        11.2406    3.4997    6.6104 H         1 RES1    0.0000
     22 H7        11.9145    2.2565    5.9337 H         1 RES1    0.0000
     23 H8        10.7983    2.0515    7.0155 H         1 RES1    0.0000
     24 C9        10.4130    3.0476    3.8279 C.2       1 RES1    0.0000
     25 C10       12.1191    4.0212    2.5032 C.3       1 RES1    0.0000
     26 H9        12.9979    4.3945    2.6034 H         1 RES1    0.0000
     27 H10       11.5161    4.7014    2.1935 H         1 RES1    0.0000
     28 H11       12.1470    3.3037    1.8659 H         1 RES1    0.0000
@<TRIPOS>BOND
     1    1    5 2
     2    2    3 1
     3    4    2 1
     4    6    1 2
     5    7   24 2
     6    8   24 1
     7    9    1 1
     8   10    9 ar
     9   11   10 1
    10   12   10 ar
    11   13   12 1
    12   14    2 1
    13   15   14 ar
    14   16   15 1
    15   17    9 ar
    16   18   17 1
    17   19    4 2
    18   20   19 1
    19   21   20 1
    20   22   20 1
    21   23   20 1
    22   24   19 1
    23   25    8 1
    24   26   25 1
    25   27   25 1
    26   28   25 1
    27   12   14 ar
    28   15   17 ar
@<TRIPOS>SUBSTRUCTURE
     1 RES1 1

@<TRIPOS>CRYSIN
  12.8360    6.9260   11.9150  90.0000  90.1100  90.0000  14 1

