# MOL2 file generated by ConQuest
# Please check atom types

@<TRIPOS>MOLECULE
MITGUT
    53    57     1
SMALL
NO_CHARGES
****
Generated from CSD

@<TRIPOS>ATOM
      1 C1         9.1637    7.7534    2.7900 C.2       1 RES1    0.0000
      2 C2         9.0456    8.6286    3.9425 C.2       1 RES1    0.0000
      3 C3         7.6461    9.2158    3.9805 C.3       1 RES1    0.0000
      4 C4        10.8506    9.7537    6.6599 C.3       1 RES1    0.0000
      5 H1        10.9878    8.8617    7.0413 H         1 RES1    0.0000
      6 H2        10.6664   10.3922    7.3804 H         1 RES1    0.0000
      7 H3        11.6573   10.0299    6.1772 H         1 RES1    0.0000
      8 C5        10.3414    7.0306    2.2932 C.ar      1 RES1    0.0000
      9 C6        10.2121    5.8790    1.5004 C.ar      1 RES1    0.0000
     10 H4         9.3488    5.5656    1.2583 H         1 RES1    0.0000
     11 C7        11.3438    5.1960    1.0696 C.ar      1 RES1    0.0000
     12 H5        11.2497    4.4119    0.5413 H         1 RES1    0.0000
     13 C8        12.6124    5.6539    1.4060 C.ar      1 RES1    0.0000
     14 H6        13.3823    5.1810    1.1112 H         1 RES1    0.0000
     15 C9        12.7523    6.8027    2.1714 C.ar      1 RES1    0.0000
     16 H7        13.6194    7.1253    2.3880 H         1 RES1    0.0000
     17 C10       11.6284    7.4828    2.6210 C.ar      1 RES1    0.0000
     18 H8        11.7320    8.2615    3.1560 H         1 RES1    0.0000
     19 C11        6.9622    9.0872    5.3370 C.3       1 RES1    0.0000
     20 H9         6.0676    9.4842    5.2907 H         1 RES1    0.0000
     21 H10        7.4924    9.5550    6.0158 H         1 RES1    0.0000
     22 H11        6.8868    8.1401    5.5767 H         1 RES1    0.0000
     23 C12        7.5112   10.6469    3.3866 C.3       1 RES1    0.0000
     24 H12        7.1749   11.2720    4.0895 H         1 RES1    0.0000
     25 C13        8.7428   11.2552    2.7034 C.3       1 RES1    0.0000
     26 H13        8.7176   12.2432    2.7556 H         1 RES1    0.0000
     27 H14        9.5745   10.9350    3.1335 H         1 RES1    0.0000
     28 C14        8.6768   10.7904    1.2506 C.3       1 RES1    0.0000
     29 H15        9.0140    9.8648    1.1562 H         1 RES1    0.0000
     30 H16        9.1997   11.3886    0.6598 H         1 RES1    0.0000
     31 C15        7.1840   10.8698    0.9354 C.3       1 RES1    0.0000
     32 H17        6.9428   10.2222    0.2267 H         1 RES1    0.0000
     33 H18        6.9406   11.7799    0.6312 H         1 RES1    0.0000
     34 C16        6.4608   10.5283    2.2482 C.3       1 RES1    0.0000
     35 C17        4.5301   11.1109    3.6794 C.3       1 RES1    0.0000
     36 H19        4.9820   11.5449    4.4450 H         1 RES1    0.0000
     37 H20        4.4052   10.1494    3.8771 H         1 RES1    0.0000
     38 C18        3.2039   11.7851    3.3697 C.3       1 RES1    0.0000
     39 H21        3.2763   12.7705    3.4359 H         1 RES1    0.0000
     40 H22        2.4889   11.4692    3.9772 H         1 RES1    0.0000
     41 C19        2.9487   11.3437    1.9357 C.3       1 RES1    0.0000
     42 H23        2.3329   11.9683    1.4769 H         1 RES1    0.0000
     43 H24        2.5636   10.4320    1.9079 H         1 RES1    0.0000
     44 C20        4.3345   11.3721    1.2977 C.3       1 RES1    0.0000
     45 H25        4.4566   10.6000    0.6904 H         1 RES1    0.0000
     46 H26        4.4654   12.2072    0.7824 H         1 RES1    0.0000
     47 N1         7.9781    7.7129    2.1927 N.pl3     1 RES1    0.0000
     48 N2         6.9178    8.3085    3.0363 N.3       1 RES1    0.0000
     49 N3        10.0340    8.7895    4.7477 N.2       1 RES1    0.0000
     50 N4         5.2898   11.3025    2.4368 N.3       1 RES1    0.0000
     51 O1         7.6163    7.1629    1.1268 O.2       1 RES1    0.0000
     52 O2         6.0668    9.0742    2.2435 O.3       1 RES1    0.0000
     53 O3         9.7355    9.7208    5.7513 O.3       1 RES1    0.0000
@<TRIPOS>BOND
     1    1    2 1
     2    2    3 1
     3    3   19 1
     4    4    5 1
     5    6    4 1
     6    7    4 1
     7    8    1 1
     8    9    8 ar
     9   10    9 1
    10   11    9 ar
    11   12   11 1
    12   13   11 ar
    13   14   13 1
    14   15   13 ar
    15   16   15 1
    16   17    8 ar
    17   18   17 1
    18   19   20 1
    19   21   19 1
    20   22   19 1
    21   23    3 1
    22   24   23 1
    23   25   23 1
    24   26   25 1
    25   27   25 1
    26   28   25 1
    27   29   28 1
    28   30   28 1
    29   31   28 1
    30   32   31 1
    31   33   31 1
    32   34   23 1
    33   35   36 1
    34   37   35 1
    35   38   35 1
    36   39   38 1
    37   40   38 1
    38   41   38 1
    39   42   41 1
    40   43   41 1
    41   44   41 1
    42   45   44 1
    43   46   44 1
    44   47    1 2
    45   48    3 1
    46   49    2 2
    47   50   34 1
    48   51   47 1
    49   52   34 1
    50   53    4 1
    51   15   17 ar
    52   31   34 1
    53   35   50 1
    54   44   50 1
    55   47   48 1
    56   48   52 1
    57   49   53 1
@<TRIPOS>SUBSTRUCTURE
     1 RES1 1

@<TRIPOS>CRYSIN
   9.3347    9.7114   20.6804  90.0000  98.9730  90.0000  14 1

