# MOL2 file generated by ConQuest
# Please check atom types

@<TRIPOS>MOLECULE
MITGAY
    68    74     1
SMALL
NO_CHARGES
****
Generated from CSD

@<TRIPOS>ATOM
      1 C1         3.1782    0.7264    2.1525 C.ar      1 RES1    0.0000
      2 C2         2.3620    0.9097    3.2537 C.ar      1 RES1    0.0000
      3 H1         1.4449    1.1397    3.1649 H         1 RES1    0.0000
      4 C3         2.9504    0.7394    4.4853 C.ar      1 RES1    0.0000
      5 C4         4.2794    0.4040    4.6490 C.ar      1 RES1    0.0000
      6 H2         4.6510    0.2973    5.5163 H         1 RES1    0.0000
      7 C5         5.0536    0.2300    3.5202 C.ar      1 RES1    0.0000
      8 C6         4.5047    0.3951    2.2510 C.ar      1 RES1    0.0000
      9 H3         5.0370    0.2821    1.4717 H         1 RES1    0.0000
     10 C7         2.1501    1.9642    0.3957 C.ar      1 RES1    0.0000
     11 C8         1.2807    1.9757   -0.7083 C.ar      1 RES1    0.0000
     12 C9         0.8647    3.1763   -1.2323 C.ar      1 RES1    0.0000
     13 H4         0.2743    3.1763   -1.9762 H         1 RES1    0.0000
     14 C10        2.5633    3.1763    0.9202 C.ar      1 RES1    0.0000
     15 H5         3.1503    3.1763    1.6673 H         1 RES1    0.0000
     16 C11        1.8163    1.9693    6.1847 C.ar      1 RES1    0.0000
     17 C12        0.9773    1.9757    7.2990 C.ar      1 RES1    0.0000
     18 C13        0.5674    3.1763    7.8354 C.ar      1 RES1    0.0000
     19 H6        -0.0100    3.1763    8.5890 H         1 RES1    0.0000
     20 C14        2.2467    3.1763    5.6554 C.ar      1 RES1    0.0000
     21 H7         2.8449    3.1763    4.9179 H         1 RES1    0.0000
     22 C15        7.1351    0.2770    4.7048 C.3       1 RES1    0.0000
     23 H8         8.0544   -0.0851    4.6414 H         1 RES1    0.0000
     24 H9         6.7255   -0.0699    5.5373 H         1 RES1    0.0000
     25 C16        7.1883    1.7749    4.7590 C.ar      1 RES1    0.0000
     26 C17        6.7759    2.4864    5.8854 C.ar      1 RES1    0.0000
     27 H10        6.4920    2.0163    6.6613 H         1 RES1    0.0000
     28 C18        7.5981    2.4864    3.6360 C.ar      1 RES1    0.0000
     29 H11        7.8808    2.0163    2.8609 H         1 RES1    0.0000
     30 O1         2.6086    0.7811    0.8665 O.3       1 RES1    0.0000
     31 O2         2.1492    0.7744    5.6478 O.3       1 RES1    0.0000
     32 O3         6.3617   -0.1668    3.5643 O.3       1 RES1    0.0000
     33 N1         0.7324    0.7655   -1.3179 N.pl3     1 RES1    0.0000
     34 O4        -0.0882    0.9094   -2.2145 O.2       1 RES1    0.0000
     35 O5         1.1112   -0.3269   -0.9092 O.2       1 RES1    0.0000
     36 N2         0.4269    0.7560    7.8904 N.pl3     1 RES1    0.0000
     37 O6         1.0142   -0.3265    7.7125 O.2       1 RES1    0.0000
     38 O7        -0.5210    0.8424    8.6096 O.2       1 RES1    0.0000
     39 C1C        3.1782    5.6263    2.1525 C.ar      1 RES1    0.0000
     40 C2C        2.3620    5.4430    3.2537 C.ar      1 RES1    0.0000
     41 H1C        1.4449    5.2130    3.1649 H         1 RES1    0.0000
     42 C3C        2.9504    5.6132    4.4853 C.ar      1 RES1    0.0000
     43 C4C        4.2794    5.9486    4.6490 C.ar      1 RES1    0.0000
     44 H2C        4.6510    6.0553    5.5163 H         1 RES1    0.0000
     45 C5C        5.0536    6.1227    3.5202 C.ar      1 RES1    0.0000
     46 C6C        4.5047    5.9575    2.2510 C.ar      1 RES1    0.0000
     47 H3C        5.0370    6.0706    1.4717 H         1 RES1    0.0000
     48 C7C        2.1501    4.3884    0.3957 C.ar      1 RES1    0.0000
     49 C8C        1.2807    4.3770   -0.7083 C.ar      1 RES1    0.0000
     50 C11C       1.8163    4.3833    6.1847 C.ar      1 RES1    0.0000
     51 C12C       0.9773    4.3770    7.2990 C.ar      1 RES1    0.0000
     52 C15C       7.1351    6.0757    4.7048 C.3       1 RES1    0.0000
     53 H8C        8.0544    6.4378    4.6414 H         1 RES1    0.0000
     54 H9C        6.7255    6.4225    5.5373 H         1 RES1    0.0000
     55 C16C       7.1883    4.5777    4.7590 C.ar      1 RES1    0.0000
     56 C17C       6.7759    3.8662    5.8854 C.ar      1 RES1    0.0000
     57 H10C       6.4920    4.3363    6.6613 H         1 RES1    0.0000
     58 C18C       7.5981    3.8662    3.6360 C.ar      1 RES1    0.0000
     59 H11C       7.8808    4.3363    2.8609 H         1 RES1    0.0000
     60 O1C        2.6086    5.5715    0.8665 O.3       1 RES1    0.0000
     61 O2C        2.1492    5.5783    5.6478 O.3       1 RES1    0.0000
     62 O3C        6.3617    6.5195    3.5643 O.3       1 RES1    0.0000
     63 N1C        0.7324    5.5872   -1.3179 N.pl3     1 RES1    0.0000
     64 O4C       -0.0882    5.4432   -2.2145 O.2       1 RES1    0.0000
     65 O5C        1.1112    6.6796   -0.9092 O.2       1 RES1    0.0000
     66 N2C        0.4269    5.5967    7.8904 N.pl3     1 RES1    0.0000
     67 O6C        1.0142    6.6792    7.7125 O.2       1 RES1    0.0000
     68 O7C       -0.5210    5.5103    8.6096 O.2       1 RES1    0.0000
@<TRIPOS>BOND
     1    1    2 ar
     2    2    3 1
     3    4    2 ar
     4    5    4 ar
     5    6    5 1
     6    7    5 ar
     7    8    1 ar
     8    9    8 1
     9   10   11 ar
    10   11   12 ar
    11   12   13 1
    12   14   10 ar
    13   15   14 1
    14   16   17 ar
    15   17   18 ar
    16   18   19 1
    17   20   16 ar
    18   21   20 1
    19   22   23 1
    20   24   22 1
    21   25   22 1
    22   26   25 ar
    23   27   26 1
    24   28   25 ar
    25   29   28 1
    26   30    1 1
    27   31    4 1
    28   32    7 1
    29   33   11 1
    30   34   33 2
    31   35   33 2
    32   36   17 1
    33   37   36 2
    34   38   36 2
    35   39   40 ar
    36   40   41 1
    37   42   40 ar
    38   43   42 ar
    39   44   43 1
    40   45   43 ar
    41   46   39 ar
    42   47   46 1
    43   48   14 ar
    44   49   12 ar
    45   50   20 ar
    46   51   18 ar
    47   52   53 1
    48   54   52 1
    49   55   52 1
    50   56   26 ar
    51   57   56 1
    52   58   28 ar
    53   59   58 1
    54   60   39 1
    55   61   42 1
    56   62   45 1
    57   63   49 1
    58   64   63 2
    59   65   63 2
    60   66   51 1
    61   67   66 2
    62   68   66 2
    63    7    8 ar
    64   10   30 1
    65   16   31 1
    66   22   32 1
    67   45   46 ar
    68   48   49 ar
    69   48   60 1
    70   50   51 ar
    71   50   61 1
    72   52   62 1
    73   55   56 ar
    74   55   58 ar
@<TRIPOS>SUBSTRUCTURE
     1 RES1 1

@<TRIPOS>CRYSIN
   8.8759   12.7053   16.6618  90.0000 103.9250  90.0000  11 1

