# MOL2 file generated by ConQuest
# Please check atom types

@<TRIPOS>MOLECULE
MITGEC
   156   168     2
SMALL
NO_CHARGES
****
Generated from CSD

@<TRIPOS>ATOM
      1 C1        11.8155   -2.2901    4.2731 C.ar      1 RES1    0.0000
      2 C2        11.7997   -1.2471    5.1981 C.ar      1 RES1    0.0000
      3 C3        11.4748    0.0317    4.7635 C.ar      1 RES1    0.0000
      4 H1        11.4936    0.7555    5.3792 H         1 RES1    0.0000
      5 C4        11.1240    0.2632    3.4457 C.ar      1 RES1    0.0000
      6 C5        11.0792   -0.8197    2.5655 C.ar      1 RES1    0.0000
      7 C6        11.4385   -2.0809    2.9639 C.ar      1 RES1    0.0000
      8 H2        11.4281   -2.8018    2.3452 H         1 RES1    0.0000
      9 C7        11.3799   -0.8445    7.5061 C.ar      1 RES1    0.0000
     10 C8        10.0065   -0.8270    7.4920 C.ar      1 RES1    0.0000
     11 H3         9.5265   -1.2014    6.7619 H         1 RES1    0.0000
     12 C9         9.3370   -0.2584    8.5518 C.ar      1 RES1    0.0000
     13 H4         8.3869   -0.2376    8.5406 H         1 RES1    0.0000
     14 C10       10.0077    0.2845    9.6347 C.ar      1 RES1    0.0000
     15 C11       11.3894    0.2478    9.6141 C.ar      1 RES1    0.0000
     16 H5        11.8741    0.6139   10.3452 H         1 RES1    0.0000
     17 C12       12.0854   -0.3102    8.5515 C.ar      1 RES1    0.0000
     18 H6        13.0356   -0.3217    8.5492 H         1 RES1    0.0000
     19 C13        9.2373    0.9008   10.7918 C.3       1 RES1    0.0000
     20 H7         8.3772    0.4220   10.8945 H         1 RES1    0.0000
     21 H8         9.7549    0.7737   11.6263 H         1 RES1    0.0000
     22 C14        8.9582    2.3731   10.6095 C.ar      1 RES1    0.0000
     23 C15        7.7468    2.8330   10.1065 C.ar      1 RES1    0.0000
     24 H9         7.0631    2.2072    9.8975 H         1 RES1    0.0000
     25 C16        7.5138    4.1806    9.9037 C.ar      1 RES1    0.0000
     26 H10        6.6793    4.4757    9.5583 H         1 RES1    0.0000
     27 C17        8.4992    5.0888   10.2071 C.ar      1 RES1    0.0000
     28 C18        9.7067    4.6757   10.7286 C.ar      1 RES1    0.0000
     29 H11       10.3794    5.3078   10.9547 H         1 RES1    0.0000
     30 C19        9.9182    3.3200   10.9148 C.ar      1 RES1    0.0000
     31 H12       10.7530    3.0303   11.2647 H         1 RES1    0.0000
     32 C20        9.0899    7.3900   10.3369 C.ar      1 RES1    0.0000
     33 C21        8.9089    8.0801   11.5309 C.ar      1 RES1    0.0000
     34 C22        9.7551    9.1135   11.8777 C.ar      1 RES1    0.0000
     35 H13        9.6181    9.5945   12.6852 H         1 RES1    0.0000
     36 C23       10.7937    9.4403   11.0489 C.ar      1 RES1    0.0000
     37 C24       11.0109    8.7590    9.8481 C.ar      1 RES1    0.0000
     38 C25       10.1263    7.7455    9.4970 C.ar      1 RES1    0.0000
     39 H14       10.2356    7.2916    8.6698 H         1 RES1    0.0000
     40 C26       12.3897    8.3435    7.9652 C.ar      1 RES1    0.0000
     41 C27       12.0992    8.8939    6.7447 C.ar      1 RES1    0.0000
     42 H15       11.6523    9.7301    6.6844 H         1 RES1    0.0000
     43 C28       12.4702    8.2071    5.5981 C.ar      1 RES1    0.0000
     44 H16       12.2792    8.5837    4.7473 H         1 RES1    0.0000
     45 C29       13.1129    6.9844    5.6681 C.ar      1 RES1    0.0000
     46 C30       13.3961    6.4602    6.9177 C.ar      1 RES1    0.0000
     47 H17       13.8424    5.6239    6.9840 H         1 RES1    0.0000
     48 C31       13.0379    7.1363    8.0761 C.ar      1 RES1    0.0000
     49 H18       13.2379    6.7718    8.9298 H         1 RES1    0.0000
     50 C32       13.5494    6.2684    4.4039 C.3       1 RES1    0.0000
     51 H19       13.4289    6.8848    3.6384 H         1 RES1    0.0000
     52 H20       14.5164    6.0705    4.4752 H         1 RES1    0.0000
     53 C33       12.8189    4.9760    4.0962 C.ar      1 RES1    0.0000
     54 C34       13.5035    3.7768    3.9864 C.ar      1 RES1    0.0000
     55 H21       14.4391    3.7607    4.1532 H         1 RES1    0.0000
     56 C35       12.8593    2.5982    3.6391 C.ar      1 RES1    0.0000
     57 H22       13.3478    1.7881    3.5506 H         1 RES1    0.0000
     58 C36       11.5061    2.6248    3.4255 C.ar      1 RES1    0.0000
     59 C37       10.7875    3.7973    3.5264 C.ar      1 RES1    0.0000
     60 H23        9.8504    3.8027    3.3732 H         1 RES1    0.0000
     61 C38       11.4482    4.9606    3.8529 C.ar      1 RES1    0.0000
     62 H24       10.9578    5.7717    3.9139 H         1 RES1    0.0000
     63 N1        12.1397   -3.6595    4.6676 N.pl3     1 RES1    0.0000
     64 N2         7.8393    7.7645   12.4643 N.pl3     1 RES1    0.0000
     65 N3        11.6937   10.5058   11.4985 N.pl3     1 RES1    0.0000
     66 N4        10.5676   -0.6691    1.1981 N.pl3     1 RES1    0.0000
     67 O1        12.1077   -1.5135    6.5010 O.3       1 RES1    0.0000
     68 O2         8.2008    6.4246    9.9190 O.3       1 RES1    0.0000
     69 O3        12.0892    9.1022    9.1152 O.3       1 RES1    0.0000
     70 O4        10.7906    1.4982    2.9797 O.3       1 RES1    0.0000
     71 O5        11.5218   -4.5697    4.1312 O.2       1 RES1    0.0000
     72 O6        13.0214   -3.8276    5.5016 O.2       1 RES1    0.0000
     73 O7         7.3743    6.6341   12.4771 O.2       1 RES1    0.0000
     74 O8         7.4694    8.6539   13.2156 O.2       1 RES1    0.0000
     75 O9        11.9626   10.5584   12.6876 O.2       1 RES1    0.0000
     76 O10       12.1017   11.2874   10.6794 O.2       1 RES1    0.0000
     77 O11        9.5545   -0.0014    1.0495 O.2       1 RES1    0.0000
     78 O12       11.1357   -1.2752    0.3039 O.2       1 RES1    0.0000
     79 C39       10.6027   12.1901    3.2174 C.ar      2 RES2    0.0000
     80 C40       10.7318   11.2782    2.1675 C.ar      2 RES2    0.0000
     81 C41        9.6269   11.0268    1.3718 C.ar      2 RES2    0.0000
     82 H25        9.6955   10.4043    0.6578 H         2 RES2    0.0000
     83 C42        8.4296   11.6676    1.6027 C.ar      2 RES2    0.0000
     84 C43        8.3454   12.6105    2.6247 C.ar      2 RES2    0.0000
     85 C44        9.4326   12.8767    3.4233 C.ar      2 RES2    0.0000
     86 H26        9.3744   13.5293    4.1102 H         2 RES2    0.0000
     87 C45       12.0195    9.5981    1.1067 C.ar      2 RES2    0.0000
     88 C46       11.5584    8.3959    1.5792 C.ar      2 RES2    0.0000
     89 H27       11.1752    8.3361    2.4468 H         2 RES2    0.0000
     90 C47       11.6561    7.2709    0.7795 C.ar      2 RES2    0.0000
     91 H28       11.3327    6.4379    1.1037 H         2 RES2    0.0000
     92 C48       12.2171    7.3360   -0.4859 C.ar      2 RES2    0.0000
     93 C49       12.6857    8.5673   -0.9210 C.ar      2 RES2    0.0000
     94 H29       13.0837    8.6311   -1.7804 H         2 RES2    0.0000
     95 C50       12.5901    9.7106   -0.1383 C.ar      2 RES2    0.0000
     96 H30       12.9100   10.5468   -0.4546 H         2 RES2    0.0000
     97 C51       12.3668    6.1182   -1.3786 C.3       2 RES2    0.0000
     98 H31       12.3671    6.4205   -2.3211 H         2 RES2    0.0000
     99 H32       13.2481    5.7056   -1.1984 H         2 RES2    0.0000
    100 C52       11.2992    5.0567   -1.2160 C.ar      2 RES2    0.0000
    101 C53       11.3447    4.1290   -0.1867 C.ar      2 RES2    0.0000
    102 H33       12.0614    4.1612    0.4356 H         2 RES2    0.0000
    103 C54       10.3708    3.1581   -0.0446 C.ar      2 RES2    0.0000
    104 H34       10.4116    2.5352    0.6715 H         2 RES2    0.0000
    105 C55        9.3419    3.1061   -0.9538 C.ar      2 RES2    0.0000
    106 C56        9.2671    3.9993   -1.9971 C.ar      2 RES2    0.0000
    107 H35        8.5563    3.9510   -2.6242 H         2 RES2    0.0000
    108 C57       10.2488    4.9712   -2.1157 C.ar      2 RES2    0.0000
    109 H36       10.2003    5.5942   -2.8308 H         2 RES2    0.0000
    110 N5        11.6731   12.4072    4.1877 N.pl3     2 RES2    0.0000
    111 N6         7.1226   13.3665    2.8742 N.pl3     2 RES2    0.0000
    112 O13       11.9560   10.7303    1.9421 O.3       2 RES2    0.0000
    113 O14        7.3956   11.4869    0.7266 O.3       2 RES2    0.0000
    114 O15       11.7623   13.5292    4.6731 O.2       2 RES2    0.0000
    115 O16       12.3745   11.4634    4.5035 O.2       2 RES2    0.0000
    116 O17        6.0505   12.8020    2.7738 O.2       2 RES2    0.0000
    117 O18        7.2594   14.5469    3.1943 O.2       2 RES2    0.0000
    118 C39A       5.2043    1.3836   -3.2174 C.ar      2 RES2    0.0000
    119 C40A       5.0752    2.2955   -2.1675 C.ar      2 RES2    0.0000
    120 C41A       6.1801    2.5469   -1.3718 C.ar      2 RES2    0.0000
    121 H25A       6.1115    3.1694   -0.6578 H         2 RES2    0.0000
    122 C42A       7.3774    1.9061   -1.6027 C.ar      2 RES2    0.0000
    123 C43A       7.4616    0.9632   -2.6247 C.ar      2 RES2    0.0000
    124 C44A       6.3744    0.6971   -3.4233 C.ar      2 RES2    0.0000
    125 H26A       6.4326    0.0444   -4.1102 H         2 RES2    0.0000
    126 C45A       3.7876    3.9756   -1.1067 C.ar      2 RES2    0.0000
    127 C46A       4.2486    5.1778   -1.5792 C.ar      2 RES2    0.0000
    128 H27A       4.6319    5.2376   -2.4468 H         2 RES2    0.0000
    129 C47A       4.1509    6.3028   -0.7795 C.ar      2 RES2    0.0000
    130 H28A       4.4743    7.1358   -1.1037 H         2 RES2    0.0000
    131 C48A       3.5899    6.2377    0.4859 C.ar      2 RES2    0.0000
    132 C49A       3.1214    5.0065    0.9210 C.ar      2 RES2    0.0000
    133 H29A       2.7233    4.9426    1.7804 H         2 RES2    0.0000
    134 C50A       3.2169    3.8631    0.1383 C.ar      2 RES2    0.0000
    135 H30A       2.8970    3.0269    0.4546 H         2 RES2    0.0000
    136 C51A       3.4402    7.4555    1.3786 C.3       2 RES2    0.0000
    137 H31A       3.4399    7.1532    2.3211 H         2 RES2    0.0000
    138 H32A       2.5590    7.8682    1.1984 H         2 RES2    0.0000
    139 C52A       4.5079    8.5171    1.2160 C.ar      2 RES2    0.0000
    140 C53A       4.4623    9.4447    0.1867 C.ar      2 RES2    0.0000
    141 H33A       3.7456    9.4125   -0.4356 H         2 RES2    0.0000
    142 C54A       5.4362   10.4157    0.0446 C.ar      2 RES2    0.0000
    143 H34A       5.3954   11.0385   -0.6715 H         2 RES2    0.0000
    144 C55A       6.4651   10.4676    0.9538 C.ar      2 RES2    0.0000
    145 C56A       6.5399    9.5745    1.9971 C.ar      2 RES2    0.0000
    146 H35A       7.2507    9.6227    2.6242 H         2 RES2    0.0000
    147 C57A       5.5583    8.6025    2.1157 C.ar      2 RES2    0.0000
    148 H36A       5.6067    7.9796    2.8308 H         2 RES2    0.0000
    149 N5A        4.1339    1.1665   -4.1877 N.pl3     2 RES2    0.0000
    150 N6A        8.6844    0.2072   -2.8742 N.pl3     2 RES2    0.0000
    151 O13A       3.8511    2.8434   -1.9421 O.3       2 RES2    0.0000
    152 O14A       8.4114    2.0868   -0.7266 O.3       2 RES2    0.0000
    153 O15A       4.0447    0.0445   -4.6731 O.2       2 RES2    0.0000
    154 O16A       3.4326    2.1103   -4.5035 O.2       2 RES2    0.0000
    155 O17A       9.7565    0.7717   -2.7738 O.2       2 RES2    0.0000
    156 O18A       8.5476   -0.9732   -3.1943 O.2       2 RES2    0.0000
@<TRIPOS>BOND
     1    1    2 ar
     2    2    3 ar
     3    3    4 1
     4    5    3 ar
     5    6    5 ar
     6    7    1 ar
     7    8    7 1
     8    9   10 ar
     9   10   11 1
    10   12   10 ar
    11   13   12 1
    12   14   12 ar
    13   15   14 ar
    14   16   15 1
    15   17    9 ar
    16   18   17 1
    17   19   14 1
    18   20   19 1
    19   21   19 1
    20   22   19 1
    21   23   22 ar
    22   24   23 1
    23   25   23 ar
    24   26   25 1
    25   27   25 ar
    26   28   27 ar
    27   29   28 1
    28   30   22 ar
    29   31   30 1
    30   32   33 ar
    31   33   34 ar
    32   34   35 1
    33   36   34 ar
    34   37   36 ar
    35   38   32 ar
    36   39   38 1
    37   40   41 ar
    38   41   42 1
    39   43   41 ar
    40   44   43 1
    41   45   43 ar
    42   46   45 ar
    43   47   46 1
    44   48   40 ar
    45   49   48 1
    46   50   45 1
    47   51   50 1
    48   52   50 1
    49   53   50 1
    50   54   53 ar
    51   55   54 1
    52   56   54 ar
    53   57   56 1
    54   58   56 ar
    55   59   58 ar
    56   60   59 1
    57   61   53 ar
    58   62   61 1
    59   63    1 1
    60   64   33 1
    61   65   36 1
    62   66    6 1
    63   67    2 1
    64   68   27 1
    65   69   37 1
    66   70    5 1
    67   71   63 2
    68   72   63 2
    69   73   64 2
    70   74   64 2
    71   75   65 2
    72   76   65 2
    73   77   66 2
    74   78   66 2
    75   79   80 ar
    76   80   81 ar
    77   81   82 1
    78   83   81 ar
    79   84   83 ar
    80   85   79 ar
    81   86   85 1
    82   87   88 ar
    83   88   89 1
    84   90   88 ar
    85   91   90 1
    86   92   90 ar
    87   93   92 ar
    88   94   93 1
    89   95   87 ar
    90   96   95 1
    91   97   92 1
    92   98   97 1
    93   99   97 1
    94  100   97 1
    95  101  100 ar
    96  102  101 1
    97  103  101 ar
    98  104  103 1
    99  105  103 ar
   100  106  105 ar
   101  107  106 1
   102  108  100 ar
   103  109  108 1
   104  110   79 1
   105  111   84 1
   106  112   80 1
   107  113   83 1
   108  114  110 2
   109  115  110 2
   110  116  111 2
   111  117  111 2
   112  118  119 ar
   113  119  120 ar
   114  120  121 1
   115  122  120 ar
   116  123  122 ar
   117  124  118 ar
   118  125  124 1
   119  126  127 ar
   120  127  128 1
   121  129  127 ar
   122  130  129 1
   123  131  129 ar
   124  132  131 ar
   125  133  132 1
   126  134  126 ar
   127  135  134 1
   128  136  131 1
   129  137  136 1
   130  138  136 1
   131  139  136 1
   132  140  139 ar
   133  141  140 1
   134  142  140 ar
   135  143  142 1
   136  144  113 1
   137  145  144 ar
   138  146  145 1
   139  147  139 ar
   140  148  147 1
   141  149  118 1
   142  150  123 1
   143  151  119 1
   144  152  105 1
   145  153  149 2
   146  154  149 2
   147  155  150 2
   148  156  150 2
   149    6    7 ar
   150    9   67 1
   151   15   17 ar
   152   28   30 ar
   153   32   68 1
   154   37   38 ar
   155   40   69 1
   156   46   48 ar
   157   58   70 1
   158   59   61 ar
   159   84   85 ar
   160   87  112 1
   161   93   95 ar
   162  106  108 ar
   163  122  152 1
   164  123  124 ar
   165  126  151 1
   166  132  134 ar
   167  142  144 ar
   168  145  147 ar
@<TRIPOS>SUBSTRUCTURE
     1 RES1 1
     2 RES2 79

@<TRIPOS>CRYSIN
  12.1115   14.0678   17.4915  79.9180  86.4530  74.7700   2 1

