# MOL2 file generated by ConQuest
# Please check atom types

@<TRIPOS>MOLECULE
MIWFED01
    41    42     1
SMALL
NO_CHARGES
****
Generated from CSD

@<TRIPOS>ATOM
      1 O1         3.1660    2.0204    1.8028 O.2       1 RES1    0.0000
      2 O2         5.1138    5.8360   -0.0155 O.2       1 RES1    0.0000
      3 O3         6.2599    1.9447   -2.4117 O.2       1 RES1    0.0000
      4 O4         8.2224    1.1068   -2.1452 O.2       1 RES1    0.0000
      5 N1         5.4634    5.0086    4.5706 N.pl3     1 RES1    0.0000
      6 H1         5.8345    5.1773    5.3282 H         1 RES1    0.0000
      7 N2         7.2440    1.6989   -1.7229 N.pl3     1 RES1    0.0000
      8 C1         4.6853    3.8836    4.4793 C.2       1 RES1    0.0000
      9 C2         4.3202    3.4355    3.2471 C.2       1 RES1    0.0000
     10 C3         4.9511    4.0683    2.0171 C.3       1 RES1    0.0000
     11 H2         4.2650    4.0936    1.3179 H         1 RES1    0.0000
     12 C4         5.3933    5.4979    2.2679 C.2       1 RES1    0.0000
     13 C5         5.6955    5.8945    3.5272 C.2       1 RES1    0.0000
     14 C6         4.3693    3.2942    5.8309 C.3       1 RES1    0.0000
     15 H3         3.4181    3.2784    5.9590 H         1 RES1    0.0000
     16 H4         4.7749    3.8299    6.5170 H         1 RES1    0.0000
     17 H5         4.7132    2.3989    5.8787 H         1 RES1    0.0000
     18 C7         6.2284    7.2154    4.0136 C.3       1 RES1    0.0000
     19 H6         7.0661    7.4009    3.5815 H         1 RES1    0.0000
     20 H7         6.3602    7.1774    4.9635 H         1 RES1    0.0000
     21 H8         5.6001    7.9106    3.8051 H         1 RES1    0.0000
     22 C8         3.3847    2.3516    2.9757 C.2       1 RES1    0.0000
     23 C9         2.6167    1.6083    4.0363 C.3       1 RES1    0.0000
     24 H9         2.1310    0.8843    3.6336 H         1 RES1    0.0000
     25 H10        1.9995    2.2076    4.4641 H         1 RES1    0.0000
     26 H11        3.2283    1.2589    4.6888 H         1 RES1    0.0000
     27 C10        5.4675    6.3232    1.0498 C.2       1 RES1    0.0000
     28 C11        5.9823    7.7288    1.0357 C.3       1 RES1    0.0000
     29 H12        6.0334    8.0425    0.1303 H         1 RES1    0.0000
     30 H13        6.8558    7.7531    1.4330 H         1 RES1    0.0000
     31 H14        5.3868    8.2917    1.5362 H         1 RES1    0.0000
     32 C12        6.1133    3.2276    1.4862 C.ar      1 RES1    0.0000
     33 C13        6.1627    2.8636    0.1498 C.ar      1 RES1    0.0000
     34 H15        5.4823    3.1160   -0.4321 H         1 RES1    0.0000
     35 C14        7.2335    2.1206   -0.3083 C.ar      1 RES1    0.0000
     36 C15        8.2669    1.7391    0.5102 C.ar      1 RES1    0.0000
     37 H16        8.9845    1.2493    0.1791 H         1 RES1    0.0000
     38 C16        8.2112    2.1023    1.8369 C.ar      1 RES1    0.0000
     39 H17        8.8975    1.8522    2.4133 H         1 RES1    0.0000
     40 C17        7.1469    2.8321    2.3178 C.ar      1 RES1    0.0000
     41 H18        7.1216    3.0630    3.2189 H         1 RES1    0.0000
@<TRIPOS>BOND
     1    1   22 2
     2    2   27 2
     3    3    7 2
     4    4    7 2
     5    5    6 1
     6    7   35 1
     7    8    5 1
     8    9    8 2
     9   10    9 1
    10   11   10 1
    11   12   10 1
    12   13    5 1
    13   14    8 1
    14   15   14 1
    15   16   14 1
    16   17   14 1
    17   18   13 1
    18   19   18 1
    19   20   18 1
    20   21   18 1
    21   22    9 1
    22   23   22 1
    23   24   23 1
    24   25   23 1
    25   26   23 1
    26   27   12 1
    27   28   27 1
    28   29   28 1
    29   30   28 1
    30   31   28 1
    31   32   10 1
    32   33   32 ar
    33   34   33 1
    34   35   33 ar
    35   36   35 ar
    36   37   36 1
    37   38   36 ar
    38   39   38 1
    39   40   32 ar
    40   41   40 1
    41   12   13 2
    42   38   40 ar
@<TRIPOS>SUBSTRUCTURE
     1 RES1 1

@<TRIPOS>CRYSIN
   8.8420   16.0785   11.2188  90.0000 104.6060  90.0000 231 1

