# MOL2 file generated by ConQuest
# Please check atom types

@<TRIPOS>MOLECULE
MIWYUO
    84    88     2
SMALL
NO_CHARGES
****
Generated from CSD

@<TRIPOS>ATOM
      1 O1         2.8223    9.1742    2.3697 O.2       1 RES1    0.0000
      2 O2         8.3035    6.3038    3.3384 O.2       1 RES1    0.0000
      3 N1         3.3449    9.7795    3.3028 N.pl3     1 RES1    0.0000
      4 C1         4.6016    9.2397    3.8497 C.ar      1 RES1    0.0000
      5 O3         6.2203   10.7090    7.2884 O.2       1 RES1    0.0000
      6 C2         5.1057    9.8102    4.9963 C.ar      1 RES1    0.0000
      7 H1         4.6671   10.5277    5.4376 H         1 RES1    0.0000
      8 C3         7.1056    6.4915    3.0841 C.2       1 RES1    0.0000
      9 C4         5.2095    8.1817    3.1931 C.ar      1 RES1    0.0000
     10 H2         4.8285    7.8215    2.4011 H         1 RES1    0.0000
     11 O4         8.0146    9.5393    6.9820 O.2       1 RES1    0.0000
     12 C5         6.9462    8.2259    4.8601 C.ar      1 RES1    0.0000
     13 H3         7.7629    7.8945    5.2151 H         1 RES1    0.0000
     14 N2         6.8865    9.8876    6.6698 N.pl3     1 RES1    0.0000
     15 O5         2.8808   10.7980    3.7990 O.2       1 RES1    0.0000
     16 N3         6.3803    5.6998    2.2945 N.am      1 RES1    0.0000
     17 C6         6.9159    4.5350    1.5665 C.3       1 RES1    0.0000
     18 H4         7.8272    4.3341    1.9273 H         1 RES1    0.0000
     19 C7         6.3856    7.6584    3.7127 C.ar      1 RES1    0.0000
     20 C8         6.2901    9.2754    5.4653 C.ar      1 RES1    0.0000
     21 C9         6.0189    3.3379    1.8510 C.ar      1 RES1    0.0000
     22 C10        5.1195    2.8890    0.9233 C.ar      1 RES1    0.0000
     23 H5         5.0888    3.3047    0.0701 H         1 RES1    0.0000
     24 C11        7.0489    3.0345    4.1128 C.ar      1 RES1    0.0000
     25 H6         7.6605    3.7444    3.9567 H         1 RES1    0.0000
     26 C12        6.0899    2.6947    3.1303 C.ar      1 RES1    0.0000
     27 C13        4.2291    1.8185    1.2022 C.ar      1 RES1    0.0000
     28 H7         3.6222    1.5182    0.5363 H         1 RES1    0.0000
     29 C14        4.2453    1.2324    2.4096 C.ar      1 RES1    0.0000
     30 H8         3.6311    0.5329    2.5961 H         1 RES1    0.0000
     31 C15        7.0567    4.8917    0.0907 C.3       1 RES1    0.0000
     32 H9         6.1912    5.1933   -0.2560 H         1 RES1    0.0000
     33 H10        7.3521    4.1022   -0.4098 H         1 RES1    0.0000
     34 H11        7.7161    5.6091   -0.0107 H         1 RES1    0.0000
     35 C16        5.2323    0.9878    4.6596 C.ar      1 RES1    0.0000
     36 H12        4.5964    0.3137    4.8693 H         1 RES1    0.0000
     37 C17        5.1600    1.6359    3.4070 C.ar      1 RES1    0.0000
     38 C18        7.0944    2.3346    5.2940 C.ar      1 RES1    0.0000
     39 H13        7.7564    2.5551    5.9388 H         1 RES1    0.0000
     40 C19        6.1887    1.3040    5.5725 C.ar      1 RES1    0.0000
     41 H14        6.2412    0.8303    6.3943 H         1 RES1    0.0000
     42 H15        5.5231    5.9001    2.0705 H         1 RES1    0.0000
     43 O6        12.8201    5.9543    1.3493 O.2       2 RES2    0.0000
     44 N4         8.0040    9.0830   -0.1194 N.pl3     2 RES2    0.0000
     45 O7         9.3317    6.1656   -3.9571 O.2       2 RES2    0.0000
     46 C20        9.1243    7.5088   -1.6171 C.ar      2 RES2    0.0000
     47 H16        8.5985    7.8278   -2.3417 H         2 RES2    0.0000
     48 O8         7.5745    9.2359    1.0208 O.2       2 RES2    0.0000
     49 N5        10.1552    5.8532   -3.1065 N.pl3     2 RES2    0.0000
     50 N6        11.0682    5.9571    2.8099 N.am      2 RES2    0.0000
     51 H17       10.2142    6.1458    2.9024 H         2 RES2    0.0000
     52 O9         7.6490    9.7499   -1.0848 O.2       2 RES2    0.0000
     53 C21        9.7406    7.5855    0.7394 C.ar      2 RES2    0.0000
     54 H18        9.5961    7.9411    1.6089 H         2 RES2    0.0000
     55 C22       10.0556    6.5069   -1.7835 C.ar      2 RES2    0.0000
     56 O10       11.0390    5.0273   -3.2679 O.2       2 RES2    0.0000
     57 C23       10.8850    6.0767   -0.7604 C.ar      2 RES2    0.0000
     58 H19       11.5620    5.4314   -0.9263 H         2 RES2    0.0000
     59 C24       12.9973    6.4163    6.0319 C.ar      2 RES2    0.0000
     60 C25       11.0329    7.5481    5.1799 C.ar      2 RES2    0.0000
     61 H20       10.3210    7.6060    4.5539 H         2 RES2    0.0000
     62 C26       11.1282    8.5164    6.1945 C.ar      2 RES2    0.0000
     63 H21       10.4960    9.2250    6.2344 H         2 RES2    0.0000
     64 C27       11.8014    5.4600    3.9818 C.3       2 RES2    0.0000
     65 H22       12.7208    5.2021    3.6839 H         2 RES2    0.0000
     66 C28       10.7081    6.6079    0.5185 C.ar      2 RES2    0.0000
     67 C29        8.9953    8.0251   -0.3411 C.ar      2 RES2    0.0000
     68 C30       15.0014    5.3614    6.9215 C.ar      2 RES2    0.0000
     69 H23       15.6663    4.6856    6.8651 H         2 RES2    0.0000
     70 C31       13.0810    7.3858    7.0732 C.ar      2 RES2    0.0000
     71 C32       11.9391    6.5195    5.0672 C.ar      2 RES2    0.0000
     72 C33       15.0558    6.3130    7.9653 C.ar      2 RES2    0.0000
     73 H24       15.7450    6.2642    8.6172 H         2 RES2    0.0000
     74 C34       11.6270    6.1363    1.6145 C.2       2 RES2    0.0000
     75 C35       13.9982    5.4069    5.9914 C.ar      2 RES2    0.0000
     76 H25       13.9695    4.7511    5.3050 H         2 RES2    0.0000
     77 C36       14.1210    7.3001    8.0372 C.ar      2 RES2    0.0000
     78 H26       14.1650    7.9386    8.7391 H         2 RES2    0.0000
     79 C37       12.1270    8.4408    7.1235 C.ar      2 RES2    0.0000
     80 H27       12.1849    9.0977    7.8082 H         2 RES2    0.0000
     81 C38       11.1098    4.2057    4.5146 C.3       2 RES2    0.0000
     82 H28       10.1841    4.4197    4.7550 H         2 RES2    0.0000
     83 H29       11.5869    3.8818    5.3065 H         2 RES2    0.0000
     84 H30       11.1153    3.5113    3.8226 H         2 RES2    0.0000
@<TRIPOS>BOND
     1    1    3 2
     2    2    8 2
     3    3    4 1
     4    4    6 ar
     5    5   14 2
     6    6    7 1
     7    8   16 1
     8    9    4 ar
     9   10    9 1
    10   11   14 2
    11   12   13 1
    12   14   20 1
    13   15    3 2
    14   16   17 1
    15   17   18 1
    16   19    8 1
    17   20    6 ar
    18   21   17 1
    19   22   21 ar
    20   23   22 1
    21   24   25 1
    22   26   21 ar
    23   27   22 ar
    24   28   27 1
    25   29   27 ar
    26   30   29 1
    27   31   17 1
    28   32   31 1
    29   33   31 1
    30   34   31 1
    31   35   36 1
    32   37   26 ar
    33   38   24 ar
    34   39   38 1
    35   40   35 ar
    36   41   40 1
    37   42   16 1
    38   43   74 2
    39   44   48 2
    40   45   49 2
    41   46   47 1
    42   49   55 1
    43   50   51 1
    44   52   44 2
    45   53   54 1
    46   55   46 ar
    47   56   49 2
    48   57   55 ar
    49   58   57 1
    50   59   70 ar
    51   60   61 1
    52   62   60 ar
    53   63   62 1
    54   64   50 1
    55   65   64 1
    56   66   53 ar
    57   67   44 1
    58   68   69 1
    59   70   77 ar
    60   71   59 ar
    61   72   68 ar
    62   73   72 1
    63   74   50 1
    64   75   59 ar
    65   76   75 1
    66   77   72 ar
    67   78   77 1
    68   79   62 ar
    69   80   79 1
    70   81   64 1
    71   82   81 1
    72   83   81 1
    73   84   81 1
    74    9   19 ar
    75   12   19 ar
    76   12   20 ar
    77   24   26 ar
    78   29   37 ar
    79   35   37 ar
    80   38   40 ar
    81   46   67 ar
    82   53   67 ar
    83   57   66 ar
    84   60   71 ar
    85   64   71 1
    86   66   74 1
    87   68   75 ar
    88   70   79 ar
@<TRIPOS>SUBSTRUCTURE
     1 RES1 1
     2 RES2 43

@<TRIPOS>CRYSIN
   9.0550   12.5990   15.3410  90.0000  96.7230  90.0000   4 1

