# MOL2 file generated by ConQuest
# Please check atom types

@<TRIPOS>MOLECULE
MIXMUD
    38    38     1
SMALL
NO_CHARGES
****
Generated from CSD

@<TRIPOS>ATOM
      1 O1         8.6327    9.9858    9.0118 O.3       1 RES1    0.0000
      2 O2         5.3334    7.2261    7.1061 O.2       1 RES1    0.0000
      3 O3         6.5996    4.9015    3.9304 O.2       1 RES1    0.0000
      4 O4         4.6347    5.6524    3.0625 O.3       1 RES1    0.0000
      5 N1         8.5543   11.3232    9.4503 N.2       1 RES1    0.0000
      6 N2         7.4853    7.7753    7.5154 N.am      1 RES1    0.0000
      7 H1         8.3486    7.8946    7.1668 H         1 RES1    0.0000
      8 N3         5.8067    6.9686    4.3729 N.am      1 RES1    0.0000
      9 H2         5.2384    7.6448    4.1577 H         1 RES1    0.0000
     10 C1         7.3954   11.4224   10.0246 C.2       1 RES1    0.0000
     11 H3         7.0782   12.2054   10.4136 H         1 RES1    0.0000
     12 C2         6.6672   10.2198    9.9971 C.2       1 RES1    0.0000
     13 H4         5.8199   10.0548   10.3433 H         1 RES1    0.0000
     14 C3         7.4834    9.3579    9.3492 C.2       1 RES1    0.0000
     15 C4         7.3603    7.9338    8.9633 C.3       1 RES1    0.0000
     16 H5         6.4717    7.6192    9.2311 H         1 RES1    0.0000
     17 C5         8.4110    7.0590    9.6606 C.3       1 RES1    0.0000
     18 H6         8.2626    6.1379    9.4333 H         1 RES1    0.0000
     19 H7         8.3402    7.1692   10.6110 H         1 RES1    0.0000
     20 H8         9.2879    7.3213    9.3726 H         1 RES1    0.0000
     21 C6         6.4739    7.4333    6.7194 C.2       1 RES1    0.0000
     22 C7         6.8698    7.3484    5.2457 C.3       1 RES1    0.0000
     23 H9         7.2086    8.2133    4.9642 H         1 RES1    0.0000
     24 H10        7.5904    6.7064    5.1542 H         1 RES1    0.0000
     25 C8         5.7394    5.7563    3.8050 C.2       1 RES1    0.0000
     26 C9         4.3319    4.4455    2.2786 C.3       1 RES1    0.0000
     27 C10        5.3891    4.2644    1.2222 C.3       1 RES1    0.0000
     28 H11        5.3216    4.9706    0.5767 H         1 RES1    0.0000
     29 H12        5.2634    3.4189    0.7854 H         1 RES1    0.0000
     30 H13        6.2563    4.2868    1.6315 H         1 RES1    0.0000
     31 C11        4.2168    3.2427    3.1773 C.3       1 RES1    0.0000
     32 H14        5.0868    3.0073    3.5090 H         1 RES1    0.0000
     33 H15        3.8544    2.5061    2.6807 H         1 RES1    0.0000
     34 H16        3.6380    3.4477    3.9150 H         1 RES1    0.0000
     35 C12        3.0010    4.8040    1.6647 C.3       1 RES1    0.0000
     36 H17        2.3816    5.0410    2.3587 H         1 RES1    0.0000
     37 H18        2.6627    4.0514    1.1753 H         1 RES1    0.0000
     38 H19        3.1148    5.5486    1.0694 H         1 RES1    0.0000
@<TRIPOS>BOND
     1    1    5 1
     2    2   21 2
     3    3   25 2
     4    4   25 1
     5    5   10 2
     6    6    7 1
     7    8    9 1
     8   10   11 1
     9   12   10 1
    10   13   12 1
    11   14    1 1
    12   15    6 1
    13   16   15 1
    14   17   15 1
    15   18   17 1
    16   19   17 1
    17   20   17 1
    18   21    6 1
    19   22    8 1
    20   23   22 1
    21   24   22 1
    22   25    8 1
    23   26    4 1
    24   27   26 1
    25   28   27 1
    26   29   27 1
    27   30   27 1
    28   31   26 1
    29   32   31 1
    30   33   31 1
    31   34   31 1
    32   35   26 1
    33   36   35 1
    34   37   35 1
    35   38   35 1
    36   12   14 2
    37   14   15 1
    38   21   22 1
@<TRIPOS>SUBSTRUCTURE
     1 RES1 1

@<TRIPOS>CRYSIN
  18.4907   18.4907    8.0889  90.0000  90.0000 120.0000 170 1

