# MOL2 file generated by ConQuest
# Please check atom types

@<TRIPOS>MOLECULE
MIXPEO
    19    21     1
SMALL
NO_CHARGES
****
Generated from CSD

@<TRIPOS>ATOM
      1 O1        -0.9516    3.7168   13.7199 O.3       1 RES1    0.0000
      2 O2         2.4647    3.7028   11.3657 O.2       1 RES1    0.0000
      3 N1        -0.3385    2.5900   13.2490 N.pl3     1 RES1    0.0000
      4 N2        -0.8794    1.4311   13.5623 N.2       1 RES1    0.0000
      5 N3        -0.0865    0.5165   13.0069 N.2       1 RES1    0.0000
      6 H1         1.6612    0.6416   11.8964 H         1 RES1    0.0000
      7 H2         2.0424    6.2349   11.5782 H         1 RES1    0.0000
      8 H3         0.9527    8.2357   12.2262 H         1 RES1    0.0000
      9 H4        -1.0539    8.0889   13.5237 H         1 RES1    0.0000
     10 H5        -1.8505    5.9809   14.1615 H         1 RES1    0.0000
     11 C1         0.9295    1.1319   12.3693 C.2       1 RES1    0.0000
     12 C2         0.7971    2.5041   12.5072 C.2       1 RES1    0.0000
     13 C3         1.4598    3.7221   12.0501 C.2       1 RES1    0.0000
     14 C4         0.7697    4.9545   12.4776 C.ar      1 RES1    0.0000
     15 C5         1.2389    6.2215   12.1010 C.ar      1 RES1    0.0000
     16 C6         0.5841    7.3696   12.4935 C.ar      1 RES1    0.0000
     17 C7        -0.5699    7.2768   13.2763 C.ar      1 RES1    0.0000
     18 C8        -1.0518    6.0452   13.6729 C.ar      1 RES1    0.0000
     19 C9        -0.3769    4.8992   13.2673 C.ar      1 RES1    0.0000
@<TRIPOS>BOND
     1    1    3 1
     2    2   13 2
     3    3    4 1
     4    4    5 2
     5    5   11 1
     6    6   11 1
     7    7   15 1
     8    8   16 1
     9    9   17 1
    10   10   18 1
    11   11   12 2
    12   12    3 1
    13   13   12 1
    14   14   13 1
    15   15   14 ar
    16   16   15 ar
    17   17   16 ar
    18   18   17 ar
    19   19    1 1
    20   14   19 ar
    21   18   19 ar
@<TRIPOS>SUBSTRUCTURE
     1 RES1 1

@<TRIPOS>CRYSIN
   5.2720   10.1200   14.5950  90.0000  90.0000  90.0000  19 1

