# MOL2 file generated by ConQuest
# Please check atom types

@<TRIPOS>MOLECULE
MIXRAM
    36    37     1
SMALL
NO_CHARGES
****
Generated from CSD

@<TRIPOS>ATOM
      1 C1         4.1649    2.9542    6.0238 C.ar      1 RES1    0.0000
      2 C2         4.7938    3.9329    6.7646 C.ar      1 RES1    0.0000
      3 H1         5.6325    4.2959    6.5034 H         1 RES1    0.0000
      4 C3         4.1361    4.3595    7.9130 C.ar      1 RES1    0.0000
      5 C4         2.9446    3.8220    8.3449 C.ar      1 RES1    0.0000
      6 H2         2.5476    4.1301    9.1508 H         1 RES1    0.0000
      7 C5         2.3263    2.8290    7.6003 C.ar      1 RES1    0.0000
      8 H3         1.5099    2.4341    7.8851 H         1 RES1    0.0000
      9 C6         2.9418    2.4372    6.4316 C.ar      1 RES1    0.0000
     10 N1         4.7338    5.4508    8.6845 N.pl3     1 RES1    0.0000
     11 O1         5.8387    5.8627    8.3496 O.2       1 RES1    0.0000
     12 O2         4.0997    5.9338    9.6173 O.2       1 RES1    0.0000
     13 N2         2.4678    1.5166    5.4817 N.am      1 RES1    0.0000
     14 C7         1.2338    0.7799    5.6025 C.3       1 RES1    0.0000
     15 H4         1.0523    0.3071    4.7634 H         1 RES1    0.0000
     16 H5         0.5005    1.4011    5.7927 H         1 RES1    0.0000
     17 H6         1.3114    0.1312    6.3331 H         1 RES1    0.0000
     18 C8         3.3824    1.3525    4.4856 C.2       1 RES1    0.0000
     19 O3         3.2618    0.6144    3.5186 O.2       1 RES1    0.0000
     20 C9         4.5719    2.2998    4.7234 C.3       1 RES1    0.0000
     21 O4         4.6573    3.1892    3.6280 O.3       1 RES1    0.0000
     22 H7         4.2547    4.0162    3.8089 H         1 RES1    0.0000
     23 C10        5.8831    1.5274    4.7982 C.2       1 RES1    0.0000
     24 C11        6.9713    1.9563    4.2089 C.2       1 RES1    0.0000
     25 H8         7.7748    1.4540    4.2715 H         1 RES1    0.0000
     26 H9         6.9564    2.7697    3.7194 H         1 RES1    0.0000
     27 C12        5.8427    0.2707    5.5742 C.2       1 RES1    0.0000
     28 O5         4.8653   -0.1129    6.1695 O.2       1 RES1    0.0000
     29 O6         7.0018   -0.3930    5.5476 O.3       1 RES1    0.0000
     30 C13        7.0088   -1.7062    6.1778 C.3       1 RES1    0.0000
     31 H10        6.5377   -1.6584    7.0467 H         1 RES1    0.0000
     32 H11        7.9436   -1.9847    6.3507 H         1 RES1    0.0000
     33 C14        6.3384   -2.7209    5.3001 C.3       1 RES1    0.0000
     34 H12        5.3776   -2.5318    5.2567 H         1 RES1    0.0000
     35 H13        6.4777   -3.6167    5.6708 H         1 RES1    0.0000
     36 H14        6.7197   -2.6772    4.3992 H         1 RES1    0.0000
@<TRIPOS>BOND
     1    1    2 ar
     2    2    3 1
     3    4    2 ar
     4    5    4 ar
     5    6    5 1
     6    7    5 ar
     7    8    7 1
     8    9    1 ar
     9   10    4 1
    10   11   10 2
    11   12   10 2
    12   13    9 1
    13   14   13 1
    14   15   14 1
    15   16   14 1
    16   17   14 1
    17   18   13 1
    18   19   18 2
    19   20    1 1
    20   21   20 1
    21   22   21 1
    22   23   20 1
    23   24   23 2
    24   25   24 1
    25   26   24 1
    26   27   23 1
    27   28   27 2
    28   29   27 1
    29   30   29 1
    30   31   30 1
    31   32   30 1
    32   33   30 1
    33   34   33 1
    34   35   33 1
    35   36   33 1
    36    7    9 ar
    37   18   20 1
@<TRIPOS>SUBSTRUCTURE
     1 RES1 1

@<TRIPOS>CRYSIN
   9.3344   10.1677   15.4020  90.0000 107.5680  90.0000  14 1

