# MOL2 file generated by ConQuest
# Please check atom types

@<TRIPOS>MOLECULE
MIXTCA
    32    32     1
SMALL
NO_CHARGES
****
Generated from CSD

@<TRIPOS>ATOM
      1 O1         3.7378   -0.3472    0.8584 O.3       1 RES1    0.0000
      2 O2         1.7589    0.7021    0.2808 O.3       1 RES1    0.0000
      3 O3         6.0521    1.9466   -0.9254 O.2       1 RES1    0.0000
      4 O4         3.0089    2.9514   -2.1607 O.2       1 RES1    0.0000
      5 O5         2.9291   -2.3860   -1.9047 O.2       1 RES1    0.0000
      6 O6         6.0347   -1.6194   -1.5663 O.2       1 RES1    0.0000
      7 N1         3.0990    0.9264    0.7443 N.3       1 RES1    0.0000
      8 N2         5.3783    2.2447    1.2094 N.am      1 RES1    0.0000
      9 N3         2.5524    3.5460   -0.0396 N.am      1 RES1    0.0000
     10 N4         2.7562   -2.6841    0.3215 N.am      1 RES1    0.0000
     11 N5         6.1234   -1.4427    0.6710 N.am      1 RES1    0.0000
     12 C1         3.8353    0.3196   -1.4227 C.3       1 RES1    0.0000
     13 C2         3.7717    1.4826   -0.4445 C.3       1 RES1    0.0000
     14 C3         4.0475   -0.8466   -0.4667 C.3       1 RES1    0.0000
     15 C4         5.1985    1.9190   -0.0454 C.2       1 RES1    0.0000
     16 C5         3.0383    2.7302   -0.9708 C.2       1 RES1    0.0000
     17 C6         3.1630   -2.0634   -0.7612 C.2       1 RES1    0.0000
     18 C7         5.5283   -1.3443   -0.4873 C.2       1 RES1    0.0000
     19 C8         0.8966    0.6714    1.4185 C.3       1 RES1    0.0000
     20 H1         4.5687    0.3979   -2.0250 H         1 RES1    0.0000
     21 H2         2.9530    0.2289   -1.9342 H         1 RES1    0.0000
     22 H3         6.1467    2.5258    1.4248 H         1 RES1    0.0000
     23 H4         4.8171    2.3015    1.8049 H         1 RES1    0.0000
     24 H5         2.1954    4.3511   -0.2296 H         1 RES1    0.0000
     25 H6         2.5624    3.3801    0.7855 H         1 RES1    0.0000
     26 H7         2.3387   -3.4554    0.2508 H         1 RES1    0.0000
     27 H8         2.8784   -2.4367    1.0996 H         1 RES1    0.0000
     28 H9         5.7747   -1.2476    1.4317 H         1 RES1    0.0000
     29 H10        6.9212   -1.7638    0.6963 H         1 RES1    0.0000
     30 H11        0.1019    0.6960    1.0991 H         1 RES1    0.0000
     31 H12        1.0238    1.3997    2.0493 H         1 RES1    0.0000
     32 H13        1.0853   -0.2996    1.8667 H         1 RES1    0.0000
@<TRIPOS>BOND
     1    1    7 1
     2    2    7 1
     3    3   15 2
     4    4   16 2
     5    5   17 2
     6    6   18 2
     7    7   13 1
     8    8   15 1
     9    9   16 1
    10   10   17 1
    11   11   18 1
    12   12   13 1
    13   13   15 1
    14   14    1 1
    15   16   13 1
    16   17   14 1
    17   18   14 1
    18   19    2 1
    19   20   12 1
    20   21   12 1
    21   22    8 1
    22   23    8 1
    23   24    9 1
    24   25    9 1
    25   26   10 1
    26   27   10 1
    27   28   11 1
    28   29   11 1
    29   30   19 1
    30   31   19 1
    31   32   19 1
    32   12   14 1
@<TRIPOS>SUBSTRUCTURE
     1 RES1 1

@<TRIPOS>CRYSIN
  14.9860   17.6560    5.2790  90.0000  90.0000 119.5200  14 3

