# MOL2 file generated by ConQuest
# Please check atom types

@<TRIPOS>MOLECULE
MIXXUN
    34    34     2
SMALL
NO_CHARGES
****
Generated from CSD

@<TRIPOS>ATOM
      1 O1         9.6061    8.3471    9.9329 O.2       1 RES1    0.0000
      2 O2        13.3132    4.6266   13.2317 O.2       1 RES1    0.0000
      3 O3        13.9924    3.1388   11.8129 O.2       1 RES1    0.0000
      4 O4        12.7553    2.8686    9.4987 O.3       1 RES1    0.0000
      5 O5        12.6408    6.2141    5.6199 O.2       2 RES2    0.0000
      6 O6        10.8283   11.2118    8.8249 O.2       2 RES2    0.0000
      7 O7         9.3901   12.1872    7.5339 O.2       2 RES2    0.0000
      8 O8         9.1971   11.4868    5.0015 O.3       2 RES2    0.0000
      9 N1        13.2927    4.1186   12.1182 N.pl3     1 RES1    0.0000
     10 N2        10.2200   11.2930    7.7622 N.pl3     2 RES2    0.0000
     11 C1        10.3572    7.8010   10.7265 C.2       1 RES1    0.0000
     12 C2        10.9810    6.4940   10.4540 C.ar      1 RES1    0.0000
     13 C3        11.8183    5.9095   11.3901 C.ar      1 RES1    0.0000
     14 C4        12.4259    4.6900   11.0973 C.ar      1 RES1    0.0000
     15 C5        12.2072    4.0304    9.8820 C.ar      1 RES1    0.0000
     16 C6        11.3187    4.6237    8.9662 C.ar      1 RES1    0.0000
     17 C7        10.7236    5.8254    9.2489 C.ar      1 RES1    0.0000
     18 C8        12.3613    7.0709    6.4339 C.2       2 RES2    0.0000
     19 C9        11.5416    8.2524    6.1037 C.ar      2 RES2    0.0000
     20 C10       11.2643    9.2092    7.0590 C.ar      2 RES2    0.0000
     21 C11       10.4784   10.3153    6.7267 C.ar      2 RES2    0.0000
     22 C12        9.9618   10.4816    5.4311 C.ar      2 RES2    0.0000
     23 C13       10.2932    9.5108    4.4656 C.ar      2 RES2    0.0000
     24 C14       11.0558    8.4234    4.7957 C.ar      2 RES2    0.0000
     25 H1        13.3280    2.6672   10.0843 H         1 RES1    0.0000
     26 H2         8.9824   11.9763    5.6414 H         2 RES2    0.0000
     27 H3        10.5460    8.2349   11.5495 H         1 RES1    0.0000
     28 H4        11.9781    6.3366   12.2233 H         1 RES1    0.0000
     29 H5        11.1292    4.1861    8.1432 H         1 RES1    0.0000
     30 H6        10.1275    6.2114    8.6180 H         1 RES1    0.0000
     31 H7        12.6836    6.9760    7.3225 H         2 RES2    0.0000
     32 H8        11.6079    9.1163    7.9397 H         2 RES2    0.0000
     33 H9         9.9844    9.6131    3.5736 H         2 RES2    0.0000
     34 H10       11.2587    7.7746    4.1321 H         2 RES2    0.0000
@<TRIPOS>BOND
     1    1   11 2
     2    2    9 2
     3    3    9 2
     4    4   15 1
     5    5   18 2
     6    6   10 2
     7    7   10 2
     8    8   22 1
     9    9   14 1
    10   10   21 1
    11   11   12 1
    12   12   13 ar
    13   13   14 ar
    14   14   15 ar
    15   15   16 ar
    16   16   17 ar
    17   17   12 ar
    18   18   19 1
    19   19   20 ar
    20   20   21 ar
    21   21   22 ar
    22   22   23 ar
    23   23   24 ar
    24   24   19 ar
    25   25    4 1
    26   26    8 1
    27   27   11 1
    28   28   13 1
    29   29   16 1
    30   30   17 1
    31   31   18 1
    32   32   20 1
    33   33   23 1
    34   34   24 1
@<TRIPOS>SUBSTRUCTURE
     1 RES1 1
     2 RES2 5

@<TRIPOS>CRYSIN
   8.0420    8.0360   12.2420  71.9750  70.8200  67.3230   2 1

