# MOL2 file generated by ConQuest
# Please check atom types

@<TRIPOS>MOLECULE
MIYCII
    50    52     2
SMALL
NO_CHARGES
****
Generated from CSD

@<TRIPOS>ATOM
      1 O1         0.9887   -0.1197    4.5204 O.2       1 RES1    0.0000
      2 O2         1.4889   -2.0948    5.2431 O.2       1 RES1    0.0000
      3 N1         9.1346    2.0553    8.2036 N.pl3     1 RES1    0.0000
      4 H1         9.2831    2.1422    7.2990 H         1 RES1    0.0000
      5 N2         6.6725    1.0452    6.9836 N.2       1 RES1    0.0000
      6 N3         1.7541   -0.9010    5.0830 N.pl3     1 RES1    0.0000
      7 C1         8.0731    1.4975    8.8727 C.2       1 RES1    0.0000
      8 C2         8.3172    1.6574   10.2250 C.2       1 RES1    0.0000
      9 H2         7.7652    1.3745   10.9175 H         1 RES1    0.0000
     10 C3         9.5410    2.3185   10.3638 C.2       1 RES1    0.0000
     11 H3         9.9517    2.5563   11.1638 H         1 RES1    0.0000
     12 C4        10.0200    2.5481    9.1096 C.2       1 RES1    0.0000
     13 H4        10.8215    2.9745    8.9060 H         1 RES1    0.0000
     14 C5         6.9063    0.9994    8.2416 C.2       1 RES1    0.0000
     15 H5         6.2597    0.6088    8.7836 H         1 RES1    0.0000
     16 C6         5.4360    0.5371    6.5332 C.ar      1 RES1    0.0000
     17 C7         4.7242    1.2607    5.5736 C.ar      1 RES1    0.0000
     18 H6         5.0733    2.0613    5.2499 H         1 RES1    0.0000
     19 C8         3.5149    0.8056    5.1008 C.ar      1 RES1    0.0000
     20 H7         3.0320    1.2976    4.4766 H         1 RES1    0.0000
     21 C9         3.0367   -0.3977    5.5756 C.ar      1 RES1    0.0000
     22 C10        3.7220   -1.1511    6.4945 C.ar      1 RES1    0.0000
     23 H8         3.3813   -1.9659    6.7884 H         1 RES1    0.0000
     24 C11        4.9221   -0.6796    6.9726 C.ar      1 RES1    0.0000
     25 H9         5.3961   -1.1787    7.5976 H         1 RES1    0.0000
     26 O3         1.5848    1.7569    0.0409 O.2       2 RES2    0.0000
     27 O4         0.0928    0.7289    1.2301 O.2       2 RES2    0.0000
     28 N4         7.1854   -4.5083    3.6965 N.pl3     2 RES2    0.0000
     29 H10        7.5093   -4.2025    2.9741 H         2 RES2    0.0000
     30 N5         5.1966   -2.6700    2.6938 N.2       2 RES2    0.0000
     31 N6         1.2470    0.8614    0.8164 N.pl3     2 RES2    0.0000
     32 C12        5.9850   -4.2496    4.3030 C.2       2 RES2    0.0000
     33 C13        5.9249   -5.0460    5.4315 C.2       2 RES2    0.0000
     34 H11        5.2196   -5.0799    6.0379 H         2 RES2    0.0000
     35 C14        7.1037   -5.7922    5.5056 C.2       2 RES2    0.0000
     36 H12        7.3331   -6.4082    6.1652 H         2 RES2    0.0000
     37 C15        7.8575   -5.4386    4.4161 C.2       2 RES2    0.0000
     38 H13        8.6953   -5.7830    4.2042 H         2 RES2    0.0000
     39 C16        5.0144   -3.3466    3.7732 C.2       2 RES2    0.0000
     40 H14        4.2106   -3.2431    4.2303 H         2 RES2    0.0000
     41 C17        4.1644   -1.8112    2.2421 C.ar      2 RES2    0.0000
     42 C18        4.5332   -0.5832    1.7086 C.ar      2 RES2    0.0000
     43 H15        5.4326   -0.3475    1.6771 H         2 RES2    0.0000
     44 C19        3.5847    0.2901    1.2265 C.ar      2 RES2    0.0000
     45 H16        3.8343    1.1111    0.8679 H         2 RES2    0.0000
     46 C20        2.2621   -0.0769    1.2859 C.ar      2 RES2    0.0000
     47 C21        1.8558   -1.3099    1.7799 C.ar      2 RES2    0.0000
     48 H17        0.9558   -1.5436    1.7962 H         2 RES2    0.0000
     49 C22        2.8164   -2.1771    2.2445 C.ar      2 RES2    0.0000
     50 H18        2.5670   -3.0145    2.5630 H         2 RES2    0.0000
@<TRIPOS>BOND
     1    1    6 2
     2    2    6 2
     3    3    4 1
     4    5   14 2
     5    6   21 1
     6    7    3 1
     7    8    7 2
     8    9    8 1
     9   10    8 1
    10   11   10 1
    11   12    3 1
    12   13   12 1
    13   14    7 1
    14   15   14 1
    15   16    5 1
    16   17   16 ar
    17   18   17 1
    18   19   17 ar
    19   20   19 1
    20   21   19 ar
    21   22   21 ar
    22   23   22 1
    23   24   16 ar
    24   25   24 1
    25   26   31 2
    26   27   31 2
    27   28   29 1
    28   30   39 2
    29   31   46 1
    30   32   28 1
    31   33   32 2
    32   34   33 1
    33   35   33 1
    34   36   35 1
    35   37   28 1
    36   38   37 1
    37   39   32 1
    38   40   39 1
    39   41   30 1
    40   42   41 ar
    41   43   42 1
    42   44   42 ar
    43   45   44 1
    44   46   44 ar
    45   47   46 ar
    46   48   47 1
    47   49   41 ar
    48   50   49 1
    49   10   12 2
    50   22   24 ar
    51   35   37 2
    52   47   49 ar
@<TRIPOS>SUBSTRUCTURE
     1 RES1 1
     2 RES2 26

@<TRIPOS>CRYSIN
  12.2143   10.2499   17.3471  90.0000 109.8710  90.0000 231 1

