# MOL2 file generated by ConQuest
# Please check atom types

@<TRIPOS>MOLECULE
MIYDII
    48    48     2
SMALL
NO_CHARGES
****
Generated from CSD

@<TRIPOS>ATOM
      1 O1         5.4113   13.4478   10.1176 O.3       1 RES1    0.0000
      2 H1         5.4406   14.2231    9.8524 H         1 RES1    0.0000
      3 O2         6.0498   12.9959    8.0353 O.2       1 RES1    0.0000
      4 O3         5.8202   10.3514    5.8010 O.2       1 RES1    0.0000
      5 O4         5.3359    8.4699    4.8958 O.2       1 RES1    0.0000
      6 O5         5.8202    5.8309    6.4169 O.3       2 RES2    0.0000
      7 H2         5.7295    6.6050    6.6698 H         2 RES2    0.0000
      8 O6         5.6828    5.3881    8.5800 O.2       2 RES2    0.0000
      9 O7         5.5969    2.7363   10.7997 O.2       2 RES2    0.0000
     10 O8         5.2229    0.8095   11.6775 O.2       2 RES2    0.0000
     11 N1         5.9424   10.3935    8.3889 N.pl3     1 RES1    0.0000
     12 H3         6.3018   10.8200    7.7345 H         1 RES1    0.0000
     13 N2         5.7316    8.2453    9.2638 N.pl3     1 RES1    0.0000
     14 H4         5.2466    7.5434    9.1603 H         1 RES1    0.0000
     15 N3         5.6737    8.4438    7.0403 N.2       1 RES1    0.0000
     16 N4         5.5934    9.1387    5.8812 N.pl3     1 RES1    0.0000
     17 N5         5.9926    2.8015    8.2598 N.pl3     2 RES2    0.0000
     18 H5         6.0017    3.2477    8.9956 H         2 RES2    0.0000
     19 N6         6.0491    0.6693    7.3436 N.pl3     2 RES2    0.0000
     20 H6         5.8230   -0.1508    7.4717 H         2 RES2    0.0000
     21 N7         5.6779    0.8256    9.5480 N.2       2 RES2    0.0000
     22 N8         5.4915    1.5030   10.7151 N.pl3     2 RES2    0.0000
     23 C1         5.7079   12.6449    9.1387 C.2       1 RES1    0.0000
     24 C2         5.5669   11.1821    9.5576 C.3       1 RES1    0.0000
     25 H7         4.6192   11.0135    9.7393 H         1 RES1    0.0000
     26 C3         6.3436   10.8748   10.8274 C.3       1 RES1    0.0000
     27 H8         7.2927   10.8657   10.6277 H         1 RES1    0.0000
     28 H9         6.1810   11.5740   11.4795 H         1 RES1    0.0000
     29 C4         5.9396    9.5343   11.4163 C.3       1 RES1    0.0000
     30 H10        6.3199    9.4475   12.3047 H         1 RES1    0.0000
     31 H11        4.9744    9.4993   11.4995 H         1 RES1    0.0000
     32 C5         6.4057    8.3842   10.5612 C.3       1 RES1    0.0000
     33 H12        7.3569    8.4863   10.4031 H         1 RES1    0.0000
     34 H13        6.2808    7.5617   11.0619 H         1 RES1    0.0000
     35 C6         5.7846    9.0804    8.2320 C.2       1 RES1    0.0000
     36 C7         5.8223    5.0406    7.4417 C.2       2 RES2    0.0000
     37 C8         6.0638    3.5889    7.0320 C.3       2 RES2    0.0000
     38 H14        6.9731    3.5188    6.6731 H         2 RES2    0.0000
     39 C9         5.0945    3.0862    5.9760 C.3       2 RES2    0.0000
     40 H15        4.2577    2.8486    6.4036 H         2 RES2    0.0000
     41 H16        4.9123    3.8022    5.3471 H         2 RES2    0.0000
     42 C10        5.6123    1.8904    5.2157 C.3       2 RES2    0.0000
     43 H17        4.8565    1.3603    4.9162 H         2 RES2    0.0000
     44 H18        6.0826    2.2027    4.4271 H         2 RES2    0.0000
     45 C11        6.5369    1.0069    6.0128 C.3       2 RES2    0.0000
     46 H19        6.6842    0.1858    5.5185 H         2 RES2    0.0000
     47 H20        7.3932    1.4548    6.1008 H         2 RES2    0.0000
     48 C12        5.9172    1.4881    8.3784 C.2       2 RES2    0.0000
@<TRIPOS>BOND
     1    1    2 1
     2    3   23 2
     3    4   16 2
     4    5   16 2
     5    6    7 1
     6    8   36 2
     7    9   22 2
     8   10   22 2
     9   11   12 1
    10   13   14 1
    11   15   16 1
    12   17   18 1
    13   19   20 1
    14   21   22 1
    15   23    1 1
    16   24   11 1
    17   25   24 1
    18   26   24 1
    19   27   26 1
    20   28   26 1
    21   29   26 1
    22   30   29 1
    23   31   29 1
    24   32   13 1
    25   33   32 1
    26   34   32 1
    27   35   11 1
    28   36    6 1
    29   37   17 1
    30   38   37 1
    31   39   37 1
    32   40   39 1
    33   41   39 1
    34   42   39 1
    35   43   42 1
    36   44   42 1
    37   45   19 1
    38   46   45 1
    39   47   45 1
    40   48   17 1
    41   13   35 1
    42   15   35 2
    43   19   48 1
    44   21   48 2
    45   23   24 1
    46   29   32 1
    47   36   37 1
    48   42   45 1
@<TRIPOS>SUBSTRUCTURE
     1 RES1 1
     2 RES2 6

@<TRIPOS>CRYSIN
   6.9787   15.2330   16.6370  90.0000  90.0000  90.0000  19 1

