# MOL2 file generated by ConQuest
# Please check atom types

@<TRIPOS>MOLECULE
MIYFUV
    33    35     1
SMALL
NO_CHARGES
****
Generated from CSD

@<TRIPOS>ATOM
      1 C1         6.2863    2.7817    5.1825 C.3       1 RES1    0.0000
      2 H1         5.8675    3.3113    5.9146 H         1 RES1    0.0000
      3 C2         6.3858    1.3554    5.6794 C.2       1 RES1    0.0000
      4 N1         5.3528    0.7752    6.3720 N.pl3     1 RES1    0.0000
      5 H2         4.5640    1.1724    6.6141 H         1 RES1    0.0000
      6 C3         5.6829   -0.5211    6.6829 C.2       1 RES1    0.0000
      7 H3         5.0917   -1.0706    7.1781 H         1 RES1    0.0000
      8 C4         6.9266   -0.7695    6.1770 C.2       1 RES1    0.0000
      9 H4         7.4065   -1.5784    6.2666 H         1 RES1    0.0000
     10 C5         7.3683    0.4176    5.5364 C.2       1 RES1    0.0000
     11 H5         8.2197    0.5719    5.0719 H         1 RES1    0.0000
     12 C6         5.3665    2.8919    3.9918 C.2       1 RES1    0.0000
     13 N2         5.4022    1.9898    2.9583 N.pl3     1 RES1    0.0000
     14 H6         5.9512    1.2547    2.8979 H         1 RES1    0.0000
     15 C7         4.4892    2.3521    1.9954 C.2       1 RES1    0.0000
     16 H7         4.3737    1.7866    1.2247 H         1 RES1    0.0000
     17 C8         3.8690    3.4894    2.4200 C.2       1 RES1    0.0000
     18 H8         3.2290    3.9530    1.9719 H         1 RES1    0.0000
     19 C9         4.4265    3.8353    3.6811 C.2       1 RES1    0.0000
     20 H9         4.2065    4.5981    4.2047 H         1 RES1    0.0000
     21 C10        7.6765    3.3788    4.9443 C.ar      1 RES1    0.0000
     22 C11        8.5641    3.5059    6.0231 C.ar      1 RES1    0.0000
     23 H10        8.2969    3.1912    6.9139 H         1 RES1    0.0000
     24 C12        9.8046    4.1006    5.8605 C.ar      1 RES1    0.0000
     25 H11       10.3884    4.2263    6.6163 H         1 RES1    0.0000
     26 C13       10.1477    4.5642    4.6013 C.ar      1 RES1    0.0000
     27 C14        9.3077    4.4480    3.5110 C.ar      1 RES1    0.0000
     28 H12        9.5590    4.7948    2.6447 H         1 RES1    0.0000
     29 C15        8.0702    3.8399    3.6950 C.ar      1 RES1    0.0000
     30 H13        7.4412    3.7837    2.9357 H         1 RES1    0.0000
     31 N3        11.4185    5.2744    4.4190 N.pl3     1 RES1    0.0000
     32 O1        12.1698    5.3953    5.3815 O.2       1 RES1    0.0000
     33 O2        11.6691    5.7394    3.3052 O.2       1 RES1    0.0000
@<TRIPOS>BOND
     1    1    2 1
     2    3    1 1
     3    4    3 1
     4    5    4 1
     5    6    4 1
     6    7    6 1
     7    8    6 2
     8    9    8 1
     9   10    3 2
    10   11   10 1
    11   12    1 1
    12   13   12 1
    13   14   13 1
    14   15   13 1
    15   16   15 1
    16   17   15 2
    17   18   17 1
    18   19   12 2
    19   20   19 1
    20   21    1 1
    21   22   21 ar
    22   23   22 1
    23   24   22 ar
    24   25   24 1
    25   26   24 ar
    26   27   26 ar
    27   28   27 1
    28   29   21 ar
    29   30   29 1
    30   31   26 1
    31   32   31 2
    32   33   31 2
    33    8   10 1
    34   17   19 1
    35   27   29 ar
@<TRIPOS>SUBSTRUCTURE
     1 RES1 1

@<TRIPOS>CRYSIN
  10.1940   11.4380   11.3180  90.0000 101.1840  90.0000  14 1

