# MOL2 file generated by ConQuest
# Please check atom types

@<TRIPOS>MOLECULE
MIYZUQ
    62    56     3
SMALL
NO_CHARGES
****
Generated from CSD

@<TRIPOS>ATOM
      1 O1         9.4052   -3.6813   10.4668 O.2       1 RES1    0.0000
      2 O2        10.0080   -2.3229   12.0016 O.2       1 RES1    0.0000
      3 O3         9.2166    3.3976   -1.6024 O.2       2 RES2    0.0000
      4 O4         7.7177    2.5472   -0.3413 O.2       2 RES2    0.0000
      5 N1         9.6014    3.5860    6.0498 N.pl3     1 RES1    0.0000
      6 H1         9.8344    4.3777    5.8073 H         1 RES1    0.0000
      7 N2         8.7780    2.7988    5.3473 N.2       1 RES1    0.0000
      8 N3         8.6483    1.6809    6.0150 N.2       1 RES1    0.0000
      9 N4         9.6651   -2.5653   10.8544 N.pl3     1 RES1    0.0000
     10 N5        11.0034    8.2527    5.0126 N.pl3     2 RES2    0.0000
     11 H2        11.3514    8.9813    5.3093 H         2 RES2    0.0000
     12 N6        10.6025    7.2436    5.7991 N.2       2 RES2    0.0000
     13 N7        10.1440    6.3113    5.0064 N.2       2 RES2    0.0000
     14 N8         8.6312    3.3235   -0.5429 N.pl3     2 RES2    0.0000
     15 C1        10.0225    2.9900    7.1844 C.2       1 RES1    0.0000
     16 C2         9.3994    1.7576    7.1588 C.2       1 RES1    0.0000
     17 C3         9.4396    0.6506    8.1216 C.ar      1 RES1    0.0000
     18 C4         9.1694   -0.6574    7.7049 C.ar      1 RES1    0.0000
     19 H3         8.9425   -0.8195    6.8179 H         1 RES1    0.0000
     20 C5         9.2352   -1.7084    8.5923 C.ar      1 RES1    0.0000
     21 H4         9.0607   -2.5777    8.3106 H         1 RES1    0.0000
     22 C6         9.5638   -1.4481    9.9038 C.ar      1 RES1    0.0000
     23 C7         9.8007   -0.1730   10.3635 C.ar      1 RES1    0.0000
     24 H5         9.9939   -0.0189   11.2601 H         1 RES1    0.0000
     25 C8         9.7441    0.8711    9.4643 C.ar      1 RES1    0.0000
     26 H6         9.9115    1.7371    9.7581 H         1 RES1    0.0000
     27 C9        10.9955    3.6229    8.1118 C.2       1 RES1    0.0000
     28 C10       10.7002    4.8054    8.6933 C.2       1 RES1    0.0000
     29 H7        11.3164    5.2126    9.2588 H         1 RES1    0.0000
     30 H8         9.8806    5.2128    8.5284 H         1 RES1    0.0000
     31 C11       12.2595    2.9245    8.3231 C.3       1 RES1    0.0000
     32 H9        12.7704    3.3832    8.9945 H         1 RES1    0.0000
     33 H10       12.7555    2.9055    7.5018 H         1 RES1    0.0000
     34 H11       12.0839    2.0259    8.6120 H         1 RES1    0.0000
     35 C12       10.8001    7.9971    3.7064 C.2       2 RES2    0.0000
     36 C13       10.2428    6.7318    3.7084 C.2       2 RES2    0.0000
     37 C14        9.8212    5.8763    2.5925 C.ar      2 RES2    0.0000
     38 C15       10.4536    5.9398    1.3538 C.ar      2 RES2    0.0000
     39 H12       11.1455    6.5466    1.2218 H         2 RES2    0.0000
     40 C16       10.0634    5.1101    0.3174 C.ar      2 RES2    0.0000
     41 H13       10.4839    5.1515   -0.5113 H         2 RES2    0.0000
     42 C17        9.0359    4.2219    0.5445 C.ar      2 RES2    0.0000
     43 C18        8.3927    4.1236    1.7564 C.ar      2 RES2    0.0000
     44 H14        7.7058    3.5100    1.8818 H         2 RES2    0.0000
     45 C19        8.7899    4.9560    2.7804 C.ar      2 RES2    0.0000
     46 H15        8.3661    4.9038    3.6068 H         2 RES2    0.0000
     47 C20       11.1390    8.9372    2.6075 C.2       2 RES2    0.0000
     48 C21       10.1738    9.2941    1.7848 C.2       2 RES2    0.0000
     49 H16       10.3565    9.8646    1.0743 H         2 RES2    0.0000
     50 H17        9.3101    8.9759    1.9163 H         2 RES2    0.0000
     51 C22       12.5563    9.3076    2.5989 C.3       2 RES2    0.0000
     52 H18       12.6925   10.0400    1.9920 H         2 RES2    0.0000
     53 H19       13.0829    8.5567    2.3147 H         2 RES2    0.0000
     54 H20       12.8247    9.5709    3.4820 H         2 RES2    0.0000
     55 C23       11.1830    8.9437    2.6468 Du        3 SUP3    0.0000
     56 C24       12.4309    9.3332    2.4568 Du        3 SUP3    0.0000
     57 H21       12.6360    9.9162    1.7609 Du        3 SUP3    0.0000
     58 H22       13.1048    9.0250    3.0185 Du        3 SUP3    0.0000
     59 C25       10.1695    9.4572    1.7383 Du        3 SUP3    0.0000
     60 H23        9.4220    9.7842    2.2443 Du        3 SUP3    0.0000
     61 H24        9.8776    8.7547    1.1540 Du        3 SUP3    0.0000
     62 H25       10.5407   10.1738    1.2178 Du        3 SUP3    0.0000
@<TRIPOS>BOND
     1    1    9 2
     2    2    9 2
     3    3   14 2
     4    4   14 2
     5    5    6 1
     6    7    5 1
     7    8    7 2
     8    9   22 1
     9   10   11 1
    10   12   10 1
    11   13   12 2
    12   14   42 1
    13   15    5 1
    14   16    8 1
    15   17   16 1
    16   18   17 ar
    17   19   18 1
    18   20   18 ar
    19   21   20 1
    20   22   20 ar
    21   23   22 ar
    22   24   23 1
    23   25   17 ar
    24   26   25 1
    25   27   15 1
    26   28   27 2
    27   29   28 1
    28   30   28 1
    29   31   27 1
    30   32   31 1
    31   33   31 1
    32   34   31 1
    33   35   10 1
    34   36   13 1
    35   37   36 1
    36   38   37 ar
    37   39   38 1
    38   40   38 ar
    39   41   40 1
    40   42   40 ar
    41   43   42 ar
    42   44   43 1
    43   45   37 ar
    44   46   45 1
    45   47   35 1
    46   48   47 2
    47   49   48 1
    48   50   48 1
    49   51   47 1
    50   52   51 1
    51   53   51 1
    52   54   51 1
    53   15   16 2
    54   23   25 ar
    55   35   36 2
    56   43   45 ar
@<TRIPOS>SUBSTRUCTURE
     1 RES1 1
     2 RES2 3
     3 SUP3 55

@<TRIPOS>CRYSIN
   9.4619    9.9524   13.4869  88.1300  80.3440  63.1970   2 1

