# MOL2 file generated by ConQuest
# Please check atom types

@<TRIPOS>MOLECULE
MIYZAW
    86    88     2
SMALL
NO_CHARGES
****
Generated from CSD

@<TRIPOS>ATOM
      1 O1         1.3799    3.8288    0.5352 O.3       1 RES1    0.0000
      2 O2         0.6949    4.6742    4.1137 O.3       1 RES1    0.0000
      3 O3         1.3687    6.7931    3.4233 O.3       1 RES1    0.0000
      4 O4         2.6893    4.5570   -1.1793 O.3       1 RES1    0.0000
      5 O5         0.0957   -1.6613    4.3307 O.2       1 RES1    0.0000
      6 O6        -1.6701   -0.7689    5.1853 O.2       1 RES1    0.0000
      7 N1        -0.6956   -0.7328    4.4416 N.pl3     1 RES1    0.0000
      8 C1         0.1318    3.9482    1.2344 C.3       1 RES1    0.0000
      9 H1        -0.5960    3.9270    0.5490 H         1 RES1    0.0000
     10 C2         0.0588    5.3256    1.9385 C.3       1 RES1    0.0000
     11 H2        -0.8446    5.4195    2.3563 H         1 RES1    0.0000
     12 C3         0.2023    6.3988    0.8483 C.3       1 RES1    0.0000
     13 H3        -0.5913    6.3738    0.2582 H         1 RES1    0.0000
     14 H4         0.2390    7.2931    1.2724 H         1 RES1    0.0000
     15 C4         1.4659    6.1848    0.0084 C.3       1 RES1    0.0000
     16 H5         1.4806    6.8297   -0.7420 H         1 RES1    0.0000
     17 H6         2.2680    6.3413    0.5676 H         1 RES1    0.0000
     18 C5         1.4863    4.7817   -0.5273 C.3       1 RES1    0.0000
     19 H7         0.7289    4.6564   -1.1677 H         1 RES1    0.0000
     20 C6         1.1170    5.4626    3.0351 C.3       1 RES1    0.0000
     21 H8         1.9719    5.0773    2.6889 H         1 RES1    0.0000
     22 C7         1.6778    4.4790    5.1232 C.3       1 RES1    0.0000
     23 H9         1.4272    3.7134    5.6803 H         1 RES1    0.0000
     24 H10        1.7362    5.2834    5.6803 H         1 RES1    0.0000
     25 H11        2.5472    4.3092    4.7033 H         1 RES1    0.0000
     26 C8         0.2588    7.4477    4.0483 C.3       1 RES1    0.0000
     27 H12        0.4995    8.3760    4.2521 H         1 RES1    0.0000
     28 H13        0.0289    6.9796    4.8778 H         1 RES1    0.0000
     29 H14       -0.5111    7.4355    3.4426 H         1 RES1    0.0000
     30 C9         2.7343    3.3350   -1.9181 C.3       1 RES1    0.0000
     31 H15        3.5930    3.2675   -2.3865 H         1 RES1    0.0000
     32 H16        2.0043    3.3212   -2.5726 H         1 RES1    0.0000
     33 H17        2.6367    2.5780   -1.3026 H         1 RES1    0.0000
     34 C10       -0.0386    2.7283    2.1077 C.ar      1 RES1    0.0000
     35 C11        0.8829    1.6933    2.1023 C.ar      1 RES1    0.0000
     36 H18        1.6652    1.7624    1.5678 H         1 RES1    0.0000
     37 C12        0.6739    0.5573    2.8692 C.ar      1 RES1    0.0000
     38 H19        1.3032   -0.1549    2.8587 H         1 RES1    0.0000
     39 C13       -0.4605    0.4771    3.6454 C.ar      1 RES1    0.0000
     40 C14       -1.3951    1.4906    3.6864 C.ar      1 RES1    0.0000
     41 H20       -2.1631    1.4251    4.2428 H         1 RES1    0.0000
     42 C15       -1.1829    2.5999    2.8978 C.ar      1 RES1    0.0000
     43 H21       -1.8310    3.2949    2.8913 H         1 RES1    0.0000
     44 O7         3.3474    8.6163   11.0339 O.3       2 RES2    0.0000
     45 O8         3.7321    8.0258    7.6339 O.3       2 RES2    0.0000
     46 O9         3.2616    5.7503    7.9366 O.3       2 RES2    0.0000
     47 O10        4.3866    7.7979   12.8825 O.3       2 RES2    0.0000
     48 O11        2.6859   14.2693    7.3060 O.2       2 RES2    0.0000
     49 O12        0.9354   13.5191    6.3230 O.2       2 RES2    0.0000
     50 N2         1.8498   13.3961    7.1173 N.pl3     2 RES2    0.0000
     51 C16        2.2020    8.5614   10.1761 C.3       2 RES2    0.0000
     52 H22        1.3934    8.5708   10.7651 H         2 RES2    0.0000
     53 C17        2.1961    7.2190    9.4227 C.3       2 RES2    0.0000
     54 H23        1.3834    7.1757    8.8414 H         2 RES2    0.0000
     55 C18        2.1030    6.1164   10.4964 C.3       2 RES2    0.0000
     56 H24        1.2225    6.1702   10.9442 H         2 RES2    0.0000
     57 H25        2.1708    5.2297   10.0603 H         2 RES2    0.0000
     58 C19        3.2048    6.2519   11.5345 C.3       2 RES2    0.0000
     59 H26        3.0454    5.6094   12.2700 H         2 RES2    0.0000
     60 H27        4.0771    6.0328   11.1209 H         2 RES2    0.0000
     61 C20        3.2510    7.6513   12.0911 C.3       2 RES2    0.0000
     62 H28        2.4318    7.8264   12.6375 H         2 RES2    0.0000
     63 C21        3.4430    7.0029    8.5548 C.3       2 RES2    0.0000
     64 H29        4.2268    6.9234    9.1694 H         2 RES2    0.0000
     65 C22        2.8486    8.1364    6.5179 C.3       2 RES2    0.0000
     66 H30        2.9833    9.0018    6.0780 H         2 RES2    0.0000
     67 H31        1.9211    8.0675    6.8270 H         2 RES2    0.0000
     68 H32        3.0342    7.4155    5.8803 H         2 RES2    0.0000
     69 C23        4.4351    5.2545    7.3090 C.3       2 RES2    0.0000
     70 H33        4.2652    4.3529    6.9643 H         2 RES2    0.0000
     71 H34        5.1656    5.2222    7.9621 H         2 RES2    0.0000
     72 H35        4.6842    5.8455    6.5688 H         2 RES2    0.0000
     73 C24        4.4193    9.0380   13.5929 C.3       2 RES2    0.0000
     74 H36        5.2277    9.0767   14.1448 H         2 RES2    0.0000
     75 H37        3.6276    9.1067   14.1658 H         2 RES2    0.0000
     76 H38        4.4249    9.7812   12.9539 H         2 RES2    0.0000
     77 C25        2.1593    9.8210    9.3417 C.ar      2 RES2    0.0000
     78 C26        3.1396   10.8009    9.4450 C.ar      2 RES2    0.0000
     79 H39        3.8822   10.6617   10.0207 H         2 RES2    0.0000
     80 C27        3.0495   11.9748    8.7207 C.ar      2 RES2    0.0000
     81 H40        3.7186   12.6452    8.7949 H         2 RES2    0.0000
     82 C28        1.9615   12.1484    7.8861 C.ar      2 RES2    0.0000
     83 C29        0.9651   11.2033    7.7656 C.ar      2 RES2    0.0000
     84 H41        0.2252   11.3474    7.1876 H         2 RES2    0.0000
     85 C30        1.0692   10.0393    8.5062 C.ar      2 RES2    0.0000
     86 H42        0.3878    9.3802    8.4436 H         2 RES2    0.0000
@<TRIPOS>BOND
     1    1    8 1
     2    2   20 1
     3    3   20 1
     4    4   18 1
     5    5    7 2
     6    6    7 2
     7    7   39 1
     8    8    9 1
     9   10    8 1
    10   11   10 1
    11   12   10 1
    12   13   12 1
    13   14   12 1
    14   15   12 1
    15   16   15 1
    16   17   15 1
    17   18    1 1
    18   19   18 1
    19   20   10 1
    20   21   20 1
    21   22    2 1
    22   23   22 1
    23   24   22 1
    24   25   22 1
    25   26    3 1
    26   27   26 1
    27   28   26 1
    28   29   26 1
    29   30    4 1
    30   31   30 1
    31   32   30 1
    32   33   30 1
    33   34    8 1
    34   35   34 ar
    35   36   35 1
    36   37   35 ar
    37   38   37 1
    38   39   37 ar
    39   40   39 ar
    40   41   40 1
    41   42   34 ar
    42   43   42 1
    43   44   51 1
    44   45   63 1
    45   46   63 1
    46   47   61 1
    47   48   50 2
    48   49   50 2
    49   50   82 1
    50   51   52 1
    51   53   51 1
    52   54   53 1
    53   55   53 1
    54   56   55 1
    55   57   55 1
    56   58   55 1
    57   59   58 1
    58   60   58 1
    59   61   44 1
    60   62   61 1
    61   63   53 1
    62   64   63 1
    63   65   45 1
    64   66   65 1
    65   67   65 1
    66   68   65 1
    67   69   46 1
    68   70   69 1
    69   71   69 1
    70   72   69 1
    71   73   47 1
    72   74   73 1
    73   75   73 1
    74   76   73 1
    75   77   51 1
    76   78   77 ar
    77   79   78 1
    78   80   78 ar
    79   81   80 1
    80   82   80 ar
    81   83   82 ar
    82   84   83 1
    83   85   77 ar
    84   86   85 1
    85   15   18 1
    86   40   42 ar
    87   58   61 1
    88   83   85 ar
@<TRIPOS>SUBSTRUCTURE
     1 RES1 1
     2 RES2 44

@<TRIPOS>CRYSIN
   5.3283   12.4903   23.2933  90.0000  93.0313  90.0000   4 1

