# MOL2 file generated by ConQuest
# Please check atom types

@<TRIPOS>MOLECULE
MIZJIP
    35    37     1
SMALL
NO_CHARGES
****
Generated from CSD

@<TRIPOS>ATOM
      1 C1        -1.2687   10.4678    7.8395 C.2       1 RES1    0.0000
      2 O1        -1.5080   11.5033   11.8117 O.3       1 RES1    0.0000
      3 C2        -0.5591   11.9505    9.7280 C.2       1 RES1    0.0000
      4 C3        -1.0757   10.5768    9.3396 C.3       1 RES1    0.0000
      5 N1         0.1374   12.3521    7.4840 N.pl3     1 RES1    0.0000
      6 C4        -0.1515    9.4803    9.8555 C.ar      1 RES1    0.0000
      7 O2        -2.7596    8.7824    8.4004 O.3       1 RES1    0.0000
      8 C5        -0.6158   11.2862    6.9833 C.2       1 RES1    0.0000
      9 C6         0.0458   12.7522    8.8249 C.2       1 RES1    0.0000
     10 C7         1.1330   13.0084    6.6530 C.ar      1 RES1    0.0000
     11 C8         1.1406    9.3790    9.3717 C.ar      1 RES1    0.0000
     12 C9         3.0867   14.2939    5.1776 C.ar      1 RES1    0.0000
     13 C10       -2.1588    9.3925    7.3669 C.2       1 RES1    0.0000
     14 C11        3.4217   13.2137    5.9906 C.ar      1 RES1    0.0000
     15 O3         4.1292   14.8449    4.4884 O.3       1 RES1    0.0000
     16 C12       -0.6794   12.3309   11.1513 C.2       1 RES1    0.0000
     17 C13        2.4435   12.5809    6.7232 C.ar      1 RES1    0.0000
     18 C14        1.7790   14.7216    5.0977 C.ar      1 RES1    0.0000
     19 C15        0.8105   14.0694    5.8409 C.ar      1 RES1    0.0000
     20 O4        -2.3677    9.0452    6.2322 O.2       1 RES1    0.0000
     21 O5        -0.1058   13.2281   11.7152 O.2       1 RES1    0.0000
     22 C16        0.6091   14.1150    9.1218 C.3       1 RES1    0.0000
     23 C17       -0.6577   11.1744    5.4878 C.3       1 RES1    0.0000
     24 C18       -0.5764    8.5602   10.8104 C.ar      1 RES1    0.0000
     25 C19       -1.6046   11.6906   13.2522 C.3       1 RES1    0.0000
     26 C20        1.9612    8.3792    9.8492 C.ar      1 RES1    0.0000
     27 C21       -3.7080    7.7355    8.0933 C.3       1 RES1    0.0000
     28 C22        3.8352   15.9198    3.6027 C.3       1 RES1    0.0000
     29 C23        0.2645    7.5660   11.2747 C.ar      1 RES1    0.0000
     30 C24        1.5443    7.4641   10.8034 C.ar      1 RES1    0.0000
     31 N2         3.3273    8.2925    9.3139 N.pl3     1 RES1    0.0000
     32 O6         3.6770    9.0701    8.4498 O.2       1 RES1    0.0000
     33 C25       -4.0236    7.0230    9.3412 C.3       1 RES1    0.0000
     34 O7         4.0540    7.4628    9.7809 O.2       1 RES1    0.0000
     35 C26       -0.5104   10.9947   13.9608 C.3       1 RES1    0.0000
@<TRIPOS>BOND
     1    1    4 1
     2    2   16 1
     3    3    4 1
     4    4    6 1
     5    5    8 1
     6    6   11 ar
     7    7   13 1
     8    8    1 2
     9    9    3 2
    10   10    5 1
    11   11   26 ar
    12   12   14 ar
    13   13    1 1
    14   14   17 ar
    15   15   12 1
    16   16    3 1
    17   17   10 ar
    18   18   12 ar
    19   19   10 ar
    20   20   13 2
    21   21   16 2
    22   22    9 1
    23   23    8 1
    24   24    6 ar
    25   25    2 1
    26   26   30 ar
    27   27    7 1
    28   28   15 1
    29   29   24 ar
    30   30   29 ar
    31   31   26 1
    32   32   31 2
    33   33   27 1
    34   34   31 2
    35   35   25 1
    36    5    9 1
    37   18   19 ar
@<TRIPOS>SUBSTRUCTURE
     1 RES1 1

@<TRIPOS>CRYSIN
  11.2290   12.7460   17.6060  90.0000 104.5310  90.0000  14 1

