# MOL2 file generated by ConQuest
# Please check atom types

@<TRIPOS>MOLECULE
MIZLOY
    39    29     2
SMALL
NO_CHARGES
****
Generated from CSD

@<TRIPOS>ATOM
      1 O1         0.9859    2.3339    7.4078 O.3       1 RES1    0.0000
      2 H1         1.5175    2.2036    8.1860 H         1 RES1    0.0000
      3 O2         2.7467   -0.3069    2.0448 O.2       1 RES1    0.0000
      4 O3         4.4138   -0.8841    3.2956 O.2       1 RES1    0.0000
      5 N1         3.3441   -0.3054    3.1182 N.pl3     1 RES1    0.0000
      6 N2         2.9013    1.4764    8.9056 N.2       1 RES1    0.0000
      7 C1         1.5824    1.7157    6.3841 C.ar      1 RES1    0.0000
      8 C2         0.9965    1.7847    5.1104 C.ar      1 RES1    0.0000
      9 H2         0.1993    2.2861    4.9842 H         1 RES1    0.0000
     10 C3         1.5704    1.1295    4.0418 C.ar      1 RES1    0.0000
     11 H3         1.1695    1.1665    3.1821 H         1 RES1    0.0000
     12 C4         2.7526    0.4102    4.2430 C.ar      1 RES1    0.0000
     13 C5         3.3627    0.3423    5.4824 C.ar      1 RES1    0.0000
     14 H4         4.1700   -0.1464    5.5911 H         1 RES1    0.0000
     15 C6         2.7876    0.9934    6.5696 C.ar      1 RES1    0.0000
     16 C7         3.4136    0.9024    7.8891 C.2       1 RES1    0.0000
     17 H5         4.2171    0.4057    7.9902 H         1 RES1    0.0000
     18 O4         3.2183    3.3747   11.4018 O.3       1 RES1    0.0000
     19 C8         3.6061    1.3053   10.1937 C.3       1 RES1    0.0000
     20 H6         4.3665    0.6835   10.0694 H         1 RES1    0.0000
     21 H7         2.9877    0.9004   10.8523 H         1 RES1    0.0000
     22 C9         4.1143    2.6002   10.7292 C.2       1 RES1    0.0000
     23 C10        5.3261    3.1693   10.7127 C.2       1 RES1    0.0000
     24 H8         6.1086    2.8315   10.2934 H         1 RES1    0.0000
     25 C11        5.2046    4.3967   11.4564 C.2       1 RES1    0.0000
     26 H9         5.8929    5.0278   11.6315 H         1 RES1    0.0000
     27 C12        3.9257    4.4714   11.8529 C.2       1 RES1    0.0000
     28 H10        3.5583    5.1784   12.3701 H         1 RES1    0.0000
     29 O5         3.5202    3.5123   11.6265 Du        2 SUP2    0.0000
     30 C13        3.3182    1.3326   10.3082 Du        2 SUP2    0.0000
     31 H11        3.9451    0.5695   10.3943 Du        2 SUP2    0.0000
     32 H12        2.5307    1.1530   10.8769 Du        2 SUP2    0.0000
     33 C14        3.9871    2.5815   10.7538 Du        2 SUP2    0.0000
     34 C15        5.1814    2.8643   10.2368 Du        2 SUP2    0.0000
     35 H13        5.6645    2.3945    9.5671 Du        2 SUP2    0.0000
     36 C16        5.5487    4.0225   10.9224 Du        2 SUP2    0.0000
     37 H14        6.3885    4.4561   10.8239 Du        2 SUP2    0.0000
     38 C17        4.5610    4.4546   11.7423 Du        2 SUP2    0.0000
     39 H15        4.5708    5.2336   12.2863 Du        2 SUP2    0.0000
@<TRIPOS>BOND
     1    1    2 1
     2    3    5 2
     3    4    5 2
     4    5   12 1
     5    6   16 2
     6    7    1 1
     7    8    7 ar
     8    9    8 1
     9   10    8 ar
    10   11   10 1
    11   12   10 ar
    12   13   12 ar
    13   14   13 1
    14   15    7 ar
    15   16   15 1
    16   17   16 1
    17   18   22 1
    18   19    6 1
    19   20   19 1
    20   21   19 1
    21   22   19 1
    22   23   22 2
    23   24   23 1
    24   25   23 1
    25   26   25 1
    26   27   18 1
    27   28   27 1
    28   13   15 ar
    29   25   27 2
@<TRIPOS>SUBSTRUCTURE
     1 RES1 1
     2 SUP2 29

@<TRIPOS>CRYSIN
   5.4427    8.2488   12.4701  98.9010  92.0400  91.6900   2 1

