# MOL2 file generated by ConQuest
# Please check atom types

@<TRIPOS>MOLECULE
MIZXOK
    32    33     1
SMALL
USER_CHARGES
****
Generated from CSD

@<TRIPOS>ATOM
      1 N1         1.6214   30.6789    6.5468 N.pl3     1 RES1    1.0000
      2 N2         1.8307   29.4320    6.5370 N.2       1 RES1    0.0000
      3 O1         5.5064   35.6058    5.4467 O.3       1 RES1    0.0000
      4 H1         6.1303   35.8299    5.9625 H         1 RES1    0.0000
      5 O2         5.1179   34.1321    7.0878 O.2       1 RES1    0.0000
      6 O3         1.6381   31.4544    7.5469 O.2       1 RES1   -1.0000
      7 C1         4.8485   34.6112    5.9653 C.2       1 RES1    0.0000
      8 C2         3.7454   34.0784    5.1493 C.2       1 RES1    0.0000
      9 H2         3.5130   34.5138    4.3382 H         1 RES1    0.0000
     10 C3         3.0753   33.0094    5.5202 C.2       1 RES1    0.0000
     11 H3         3.3285   32.6015    6.3404 H         1 RES1    0.0000
     12 C4         1.9695   32.3887    4.7763 C.ar      1 RES1    0.0000
     13 C5         1.5675   32.8816    3.5201 C.ar      1 RES1    0.0000
     14 H4         2.0148   33.6353    3.1548 H         1 RES1    0.0000
     15 C6         0.5424   32.3002    2.8070 C.ar      1 RES1    0.0000
     16 H5         0.2939   32.6579    1.9630 H         1 RES1    0.0000
     17 C7        -0.1294   31.1951    3.3073 C.ar      1 RES1    0.0000
     18 H6        -0.8499   30.8126    2.8210 H         1 RES1    0.0000
     19 C8         0.2596   30.6546    4.5271 C.ar      1 RES1    0.0000
     20 H7        -0.1689   29.8776    4.8672 H         1 RES1    0.0000
     21 C9         1.2830   31.2639    5.2437 C.ar      1 RES1    0.0000
     22 C10        2.0215   28.8170    7.8149 C.ar      1 RES1    0.0000
     23 C11        1.1619   28.9952    8.8940 C.ar      1 RES1    0.0000
     24 H8         0.4427   29.6130    8.8338 H         1 RES1    0.0000
     25 C12        1.3579   28.2666   10.0613 C.ar      1 RES1    0.0000
     26 H9         0.7669   28.3781   10.7968 H         1 RES1    0.0000
     27 C13        2.4212   27.3764   10.1495 C.ar      1 RES1    0.0000
     28 H10        2.5757   26.8962   10.9550 H         1 RES1    0.0000
     29 C14        3.2547   27.1908    9.0592 C.ar      1 RES1    0.0000
     30 H11        3.9686   26.5681    9.1124 H         1 RES1    0.0000
     31 C15        3.0545   27.9043    7.9003 C.ar      1 RES1    0.0000
     32 H12        3.6294   27.7677    7.1557 H         1 RES1    0.0000
@<TRIPOS>BOND
     1    1    2 2
     2    2   22 1
     3    3    4 1
     4    5    7 2
     5    6    1 1
     6    7    3 1
     7    8    7 1
     8    9    8 1
     9   10    8 2
    10   11   10 1
    11   12   10 1
    12   13   12 ar
    13   14   13 1
    14   15   13 ar
    15   16   15 1
    16   17   15 ar
    17   18   17 1
    18   19   17 ar
    19   20   19 1
    20   21    1 1
    21   22   23 ar
    22   23   24 1
    23   25   23 ar
    24   26   25 1
    25   27   25 ar
    26   28   27 1
    27   29   27 ar
    28   30   29 1
    29   31   22 ar
    30   32   31 1
    31   12   21 ar
    32   19   21 ar
    33   29   31 ar
@<TRIPOS>SUBSTRUCTURE
     1 RES1 1

@<TRIPOS>CRYSIN
   5.1332   35.2830    7.1310  90.0000 101.0750  90.0000 231 1

