# MOL2 file generated by ConQuest
# Please check atom types

@<TRIPOS>MOLECULE
MNBZAC
    34    34     2
SMALL
NO_CHARGES
****
Generated from CSD

@<TRIPOS>ATOM
      1 C1         3.0362    1.7307    3.1114 C.ar      1 RES1    0.0000
      2 C2        -5.4026    1.3466   -2.2280 C.ar      2 RES2    0.0000
      3 C3         2.1645    0.6797    2.8843 C.ar      1 RES1    0.0000
      4 C4        -4.5220    2.4061   -2.1098 C.ar      2 RES2    0.0000
      5 C5         1.1393    0.8749    1.9709 C.ar      1 RES1    0.0000
      6 C6        -3.6039    2.3858   -1.0668 C.ar      2 RES2    0.0000
      7 C7         0.9541    2.0540    1.2783 C.ar      1 RES1    0.0000
      8 C8        -3.5320    1.3540   -0.1451 C.ar      2 RES2    0.0000
      9 C9         1.8501    3.0836    1.4857 C.ar      1 RES1    0.0000
     10 C10       -4.4363    0.3148   -0.2665 C.ar      2 RES2    0.0000
     11 C11        2.9031    2.9214    2.3981 C.ar      1 RES1    0.0000
     12 C12       -5.3662    0.2956   -1.3177 C.ar      2 RES2    0.0000
     13 C13        4.1392    1.5536    4.1035 C.2       1 RES1    0.0000
     14 C14       -6.3597    1.3636   -3.3674 C.2       2 RES2    0.0000
     15 H1         2.1788   -0.1494    3.2762 H         1 RES1    0.0000
     16 H2        -4.3625    3.0943   -2.5297 H         2 RES2    0.0000
     17 H3         0.1957    2.0700    0.7568 H         1 RES1    0.0000
     18 H4        -2.9065    1.2484    0.5391 H         2 RES2    0.0000
     19 H5         1.6561    4.1400    1.0886 H         1 RES1    0.0000
     20 H6        -4.5167   -0.4695    0.4147 H         2 RES2    0.0000
     21 H7         3.3818    3.6491    2.6438 H         1 RES1    0.0000
     22 H8        -6.0252   -0.3735   -1.4100 H         2 RES2    0.0000
     23 H9         5.6649    2.4008    4.7277 H         1 RES1    0.0000
     24 H10       -7.9067    0.4908   -3.7324 H         2 RES2    0.0000
     25 N1         0.2271   -0.2486    1.7159 N.pl3     1 RES1    0.0000
     26 N2        -2.6480    3.5040   -0.9445 N.pl3     2 RES2    0.0000
     27 O1         4.9620    2.5320    4.2010 O.3       1 RES1    0.0000
     28 O2        -7.1438    0.3500   -3.4846 O.3       2 RES2    0.0000
     29 O3         4.2039    0.5164    4.7992 O.2       1 RES1    0.0000
     30 O4        -6.3496    2.3165   -4.1637 O.2       2 RES2    0.0000
     31 O5         0.5970   -1.3764    1.9813 O.2       1 RES1    0.0000
     32 O6        -2.6428    4.3459   -1.8237 O.2       2 RES2    0.0000
     33 O7        -0.8783    0.0075    1.2234 O.2       1 RES1    0.0000
     34 O8        -1.9081    3.5254    0.0228 O.2       2 RES2    0.0000
@<TRIPOS>BOND
     1    1    3 ar
     2    2    4 ar
     3    3    5 ar
     4    4    6 ar
     5    5    7 ar
     6    6    8 ar
     7    7    9 ar
     8    8   10 ar
     9    9   11 ar
    10   10   12 ar
    11   11    1 ar
    12   12    2 ar
    13   13    1 1
    14   14    2 1
    15   15    3 1
    16   16    4 1
    17   17    7 1
    18   18    8 1
    19   19    9 1
    20   20   10 1
    21   21   11 1
    22   22   12 1
    23   23   27 1
    24   24   28 1
    25   25    5 1
    26   26    6 1
    27   27   13 1
    28   28   14 1
    29   29   13 2
    30   30   14 2
    31   31   25 2
    32   32   26 2
    33   33   25 2
    34   34   26 2
@<TRIPOS>SUBSTRUCTURE
     1 RES1 1
     2 RES2 2

@<TRIPOS>CRYSIN
  13.2200   10.6700   10.3700  90.0000  91.2000  90.0000  14 1

