# MOL2 file generated by ConQuest
# Please check atom types

@<TRIPOS>MOLECULE
MNBZAC04
    36    34     3
SMALL
NO_CHARGES
****
Generated from CSD

@<TRIPOS>ATOM
      1 O1         4.1864    0.5176    4.7835 O.2       1 RES1    0.0000
      2 O2         4.9625    2.5242    4.1922 O.3       1 RES1    0.0000
      3 O3         0.5973   -1.3869    1.9742 O.2       1 RES1    0.0000
      4 O4        -0.8806   -0.0037    1.2121 O.2       1 RES1    0.0000
      5 N1         0.2143   -0.2554    1.7099 N.pl3     1 RES1    0.0000
      6 C1         3.2742    1.7269    3.0941 C.ar      1 RES1    0.0000
      7 C2         2.1532    0.6754    2.8754 C.ar      1 RES1    0.0000
      8 C3         1.1326    0.8645    1.9643 C.ar      1 RES1    0.0000
      9 C4         0.9574    2.0506    1.2704 C.ar      1 RES1    0.0000
     10 C5         1.8579    3.0774    1.4846 C.ar      1 RES1    0.0000
     11 C6         2.8865    2.9233    2.3947 C.ar      1 RES1    0.0000
     12 C7         4.1227    1.5566    4.0927 C.2       1 RES1    0.0000
     13 H1         5.5210    2.4448    4.7893 H         1 RES1    0.0000
     14 H2         2.2215   -0.1495    3.3411 H         1 RES1    0.0000
     15 H3         0.2084    2.1672    0.6827 H         1 RES1    0.0000
     16 H4         1.7354    3.9074    1.0137 H         1 RES1    0.0000
     17 H5         3.5122    3.6298    2.5032 H         1 RES1    0.0000
     18 O5         6.6399    2.3158    6.1858 O.2       2 RES2    0.0000
     19 O6         5.8318    0.3542    6.8713 O.3       2 RES2    0.0000
     20 O7        10.3405    4.3449    8.5211 O.2       2 RES2    0.0000
     21 O8        11.0715    3.5253   10.3736 O.2       2 RES2    0.0000
     22 N2        10.3355    3.4997    9.3973 N.pl3     2 RES2    0.0000
     23 C8         7.5837    1.3481    8.1158 C.ar      2 RES2    0.0000
     24 C9         8.4699    2.4095    8.2407 C.ar      2 RES2    0.0000
     25 C10        9.3809    2.3836    9.2846 C.ar      2 RES2    0.0000
     26 C11        9.4278    1.3548   10.2016 C.ar      2 RES2    0.0000
     27 C12        8.5380    0.3140   10.0651 C.ar      2 RES2    0.0000
     28 C13        7.6121    0.2972    9.0275 C.ar      2 RES2    0.0000
     29 C14        6.6305    1.3584    6.9804 C.2       2 RES2    0.0000
     30 H6         5.3144    0.3950    6.2167 H         2 RES2    0.0000
     31 H7         8.4567    3.0960    7.6028 H         2 RES2    0.0000
     32 H8        10.0572    1.3879   10.9025 H         2 RES2    0.0000
     33 H9         8.5544   -0.3950   10.6646 H         2 RES2    0.0000
     34 H10        6.9954   -0.4484    8.9268 H         2 RES2    0.0000
     35 H11        4.7250    0.5231    5.4202 Du        3 SUP3    0.0000
     36 H12        6.2308    2.3060    5.5340 Du        3 SUP3    0.0000
@<TRIPOS>BOND
     1    1   12 2
     2    2   12 1
     3    3    5 2
     4    4    5 2
     5    5    8 1
     6    6    7 ar
     7    7    8 ar
     8    8    9 ar
     9    9   10 ar
    10   10   11 ar
    11   11    6 ar
    12   12    6 1
    13   13    2 1
    14   14    7 1
    15   15    9 1
    16   16   10 1
    17   17   11 1
    18   18   29 2
    19   19   29 1
    20   20   22 2
    21   21   22 2
    22   22   25 1
    23   23   24 ar
    24   24   25 ar
    25   25   26 ar
    26   26   27 ar
    27   27   28 ar
    28   28   23 ar
    29   29   23 1
    30   30   19 1
    31   31   24 1
    32   32   26 1
    33   33   27 1
    34   34   28 1
@<TRIPOS>SUBSTRUCTURE
     1 RES1 1
     2 RES2 18
     3 SUP3 35

@<TRIPOS>CRYSIN
  13.2330   10.6760   10.3470  90.0000  91.3900  90.0000  14 1

