# MOL2 file generated by ConQuest
# Please check atom types

@<TRIPOS>MOLECULE
MNBZAC01
    32    32     2
SMALL
NO_CHARGES
****
Generated from CSD

@<TRIPOS>ATOM
      1 C1        -4.1562    2.7719    7.6885 C.ar      1 RES1    0.0000
      2 C2         1.6971    5.4033    5.5468 C.ar      2 RES2    0.0000
      3 C3        -4.4806    1.5030    7.2177 C.ar      1 RES1    0.0000
      4 C4         2.5495    4.5514    4.8843 C.ar      2 RES2    0.0000
      5 C5        -5.6871    0.9712    7.5807 C.ar      1 RES1    0.0000
      6 C6         3.7435    5.0398    4.4169 C.ar      2 RES2    0.0000
      7 C7        -6.5835    1.6290    8.4075 C.ar      1 RES1    0.0000
      8 C8         4.1167    6.3510    4.5915 C.ar      2 RES2    0.0000
      9 C9        -6.2386    2.8867    8.8749 C.ar      1 RES1    0.0000
     10 C10        3.2506    7.2118    5.2370 C.ar      2 RES2    0.0000
     11 C11       -5.0432    3.4810    8.5154 C.ar      1 RES1    0.0000
     12 C12        2.0278    6.7480    5.7163 C.ar      2 RES2    0.0000
     13 C13       -2.8522    3.3706    7.2948 C.2       1 RES1    0.0000
     14 C14        0.4243    4.8703    6.0707 C.2       2 RES2    0.0000
     15 H1        -3.8936    1.1150    6.6082 H         1 RES1    0.0000
     16 H2         2.3973    3.7799    4.8278 H         2 RES2    0.0000
     17 H3        -7.3695    1.2042    8.5428 H         1 RES1    0.0000
     18 H4         5.0040    6.4670    4.2971 H         2 RES2    0.0000
     19 H5        -6.8673    3.2558    9.5186 H         1 RES1    0.0000
     20 H6         3.3802    8.0838    5.3071 H         2 RES2    0.0000
     21 H7        -4.8028    4.3151    8.8167 H         1 RES1    0.0000
     22 H8         1.5207    7.2141    6.0947 H         2 RES2    0.0000
     23 N1        -6.0360   -0.3646    7.0756 N.pl3     1 RES1    0.0000
     24 N2         4.6734    4.1400    3.7321 N.pl3     2 RES2    0.0000
     25 O1        -2.5947    4.5514    7.6354 O.co2     1 RES1    0.0000
     26 O2        -0.3411    5.6185    6.7623 O.co2     2 RES2    0.0000
     27 O3        -2.0524    2.6448    6.6528 O.co2     1 RES1    0.0000
     28 O4         0.1482    3.6628    5.8344 O.co2     2 RES2    0.0000
     29 O5        -5.2451   -0.9589    6.4011 O.2       1 RES1    0.0000
     30 O6         4.3462    2.9626    3.6226 O.2       2 RES2    0.0000
     31 O7        -7.1216   -0.8318    7.3564 O.2       1 RES1    0.0000
     32 O8         5.7217    4.5838    3.3349 O.2       2 RES2    0.0000
@<TRIPOS>BOND
     1    1    3 ar
     2    2    4 ar
     3    3    5 ar
     4    4    6 ar
     5    5    7 ar
     6    6    8 ar
     7    7    9 ar
     8    8   10 ar
     9    9   11 ar
    10   10   12 ar
    11   11    1 ar
    12   12    2 ar
    13   13    1 1
    14   14    2 1
    15   15    3 1
    16   16    4 1
    17   17    7 1
    18   18    8 1
    19   19    9 1
    20   20   10 1
    21   21   11 1
    22   22   12 1
    23   23    5 1
    24   24    6 1
    25   25   13 2
    26   26   14 2
    27   27   13 1
    28   28   14 1
    29   29   23 2
    30   30   24 2
    31   31   23 2
    32   32   24 2
@<TRIPOS>SUBSTRUCTURE
     1 RES1 1
     2 RES2 2

@<TRIPOS>CRYSIN
   7.7800   11.1500   17.1500  90.0000  93.4000  90.0000 231 1

