# MOL2 file generated by ConQuest
# Please check atom types

@<TRIPOS>MOLECULE
MNETAM01
    16    15     1
SMALL
NO_CHARGES
****
Generated from CSD

@<TRIPOS>ATOM
      1 N1         8.3021    5.8384    1.9265 N.pl3     1 RES1    0.0000
      2 N2         7.3752    4.5757    5.1862 N.3       1 RES1    0.0000
      3 C1         8.3659    5.6421    3.3014 C.2       1 RES1    0.0000
      4 C2         7.4499    4.8422    3.8901 C.2       1 RES1    0.0000
      5 C3         8.3174    5.0897    6.1514 C.3       1 RES1    0.0000
      6 C4         6.3793    3.6414    5.6808 C.3       1 RES1    0.0000
      7 O1         7.4535    5.2927    1.2128 O.2       1 RES1    0.0000
      8 O2         9.1611    6.5893    1.4142 O.2       1 RES1    0.0000
      9 H1         9.1126    6.0602    3.7574 H         1 RES1    0.0000
     10 H2         6.7858    4.5056    3.2559 H         1 RES1    0.0000
     11 H3         8.5776    5.9395    5.9485 H         1 RES1    0.0000
     12 H4         9.0400    4.7018    6.1337 H         1 RES1    0.0000
     13 H5         7.9842    5.1471    7.0595 H         1 RES1    0.0000
     14 H6         5.9335    4.0754    6.5040 H         1 RES1    0.0000
     15 H7         6.7605    2.9282    6.0874 H         1 RES1    0.0000
     16 H8         5.8141    3.3886    4.9455 H         1 RES1    0.0000
@<TRIPOS>BOND
     1    1    3 1
     2    2    4 1
     3    3    4 2
     4    4   10 1
     5    5    2 1
     6    6    2 1
     7    7    1 2
     8    8    1 2
     9    9    3 1
    10   11    5 1
    11   12    5 1
    12   13    5 1
    13   14    6 1
    14   15    6 1
    15   16    6 1
@<TRIPOS>SUBSTRUCTURE
     1 RES1 1

@<TRIPOS>CRYSIN
  10.0530    7.5470    7.9950  90.0000 105.2000  90.0000 231 1

