# MOL2 file generated by ConQuest
# Please check atom types

@<TRIPOS>MOLECULE
MNETAM
    16    15     1
SMALL
NO_CHARGES
****
Generated from CSD

@<TRIPOS>ATOM
      1 O1         1.6006    6.6024    0.4961 O.2       1 RES1    0.0000
      2 O2         1.8504    5.2942    2.1933 O.2       1 RES1    0.0000
      3 N1         5.7152    4.5826    1.2263 N.3       1 RES1    0.0000
      4 N2         2.3102    5.8485    1.1884 N.pl3     1 RES1    0.0000
      5 C1         4.4357    4.8563    1.4894 C.2       1 RES1    0.0000
      6 C2         3.6255    5.6518    0.7680 C.2       1 RES1    0.0000
      7 C3         6.3950    5.0975    0.0553 C.3       1 RES1    0.0000
      8 C4         6.4476    3.6411    2.0506 C.3       1 RES1    0.0000
      9 H1         4.0436    4.4086    2.2914 H         1 RES1    0.0000
     10 H2         3.8674    6.1101   -0.0485 H         1 RES1    0.0000
     11 H3         6.2147    4.6053   -0.7185 H         1 RES1    0.0000
     12 H4         6.2067    6.0269   -0.1262 H         1 RES1    0.0000
     13 H5         7.3651    5.2632    0.2524 H         1 RES1    0.0000
     14 H6         7.3212    4.0608    2.3108 H         1 RES1    0.0000
     15 H7         5.9801    3.4256    2.8254 H         1 RES1    0.0000
     16 H8         6.6365    2.7979    1.5535 H         1 RES1    0.0000
@<TRIPOS>BOND
     1    1    4 2
     2    2    4 2
     3    3    5 1
     4    4    6 1
     5    5    6 2
     6    6   10 1
     7    7    3 1
     8    8    3 1
     9    9    5 1
    10   11    7 1
    11   12    7 1
    12   13    7 1
    13   14    8 1
    14   15    8 1
    15   16    8 1
@<TRIPOS>SUBSTRUCTURE
     1 RES1 1

@<TRIPOS>CRYSIN
   8.0010    7.5620   11.0990  90.0000 118.9800  90.0000  14 1

