# MOL2 file generated by ConQuest
# Please check atom types

@<TRIPOS>MOLECULE
MNFURP
    27    28     1
SMALL
NO_CHARGES
****
Generated from CSD

@<TRIPOS>ATOM
      1 C1        -1.1852    3.9943    2.3131 C.ar      1 RES1    0.0000
      2 C2        -0.6993    5.2399    2.6591 C.ar      1 RES1    0.0000
      3 C3        -1.3659    6.3959    2.2949 C.ar      1 RES1    0.0000
      4 C4        -2.5519    6.3316    1.5832 C.ar      1 RES1    0.0000
      5 C5        -3.0176    5.0860    1.2099 C.ar      1 RES1    0.0000
      6 C6        -2.3501    3.9327    1.5628 C.ar      1 RES1    0.0000
      7 C7        -0.5340    2.7291    2.7401 C.2       1 RES1    0.0000
      8 O8        -1.0233    1.6487    2.4509 O.2       1 RES1    0.0000
      9 C9         0.6913    2.7739    3.5806 C.2       1 RES1    0.0000
     10 C10        1.1110    1.6739    4.1961 C.2       1 RES1    0.0000
     11 C11        2.2367    1.5367    5.0729 C.2       1 RES1    0.0000
     12 C12        2.6752    0.4786    5.7642 C.2       1 RES1    0.0000
     13 C13        3.8200    0.8873    6.4615 C.2       1 RES1    0.0000
     14 C14        3.9784    2.1777    6.1610 C.2       1 RES1    0.0000
     15 O15        3.0406    2.6312    5.3061 O.3       1 RES1    0.0000
     16 N16        4.9806    3.0986    6.5683 N.pl3     1 RES1    0.0000
     17 O17        4.9275    4.2490    6.1572 O.2       1 RES1    0.0000
     18 O18        5.8608    2.6507    7.3050 O.2       1 RES1    0.0000
     19 C19       -3.3247    7.6052    1.2516 C.3       1 RES1    0.0000
     20 H20        0.1132    5.3183    3.1952 H         1 RES1    0.0000
     21 H30       -1.0204    7.3057    2.5440 H         1 RES1    0.0000
     22 H50       -3.8300    5.0384    0.6512 H         1 RES1    0.0000
     23 H60       -2.6825    3.0510    1.2720 H         1 RES1    0.0000
     24 H90        1.1889    3.6108    3.7025 H         1 RES1    0.0000
     25 H100       0.5799    0.8397    4.0811 H         1 RES1    0.0000
     26 H120       2.3829   -0.4479    5.5424 H         1 RES1    0.0000
     27 H130       4.3157    0.3919    7.1172 H         1 RES1    0.0000
@<TRIPOS>BOND
     1    1    2 ar
     2    2    3 ar
     3    3    4 ar
     4    4    5 ar
     5    5    6 ar
     6    6    1 ar
     7    7    1 1
     8    8    7 2
     9    9    7 1
    10   10    9 2
    11   11   10 1
    12   12   11 2
    13   13   12 1
    14   14   13 2
    15   15   11 1
    16   16   14 1
    17   17   16 2
    18   18   16 2
    19   19    4 1
    20   20    2 1
    21   21    3 1
    22   22    5 1
    23   23    6 1
    24   24    9 1
    25   25   10 1
    26   26   12 1
    27   27   13 1
    28   14   15 1
@<TRIPOS>SUBSTRUCTURE
     1 RES1 1

@<TRIPOS>CRYSIN
   5.7850   27.9910    7.5960  90.0000  94.6000  90.0000  14 1

