# MOL2 file generated by ConQuest
# Please check atom types

@<TRIPOS>MOLECULE
MNIAAN12
    48    48     2
SMALL
NO_CHARGES
****
Generated from CSD

@<TRIPOS>ATOM
      1 O1         4.7919    5.3686    1.9432 O.2       1 RES1    0.0000
      2 O2         4.9242    8.7403    5.4560 O.2       1 RES1    0.0000
      3 O3         5.4988    7.9073    7.3563 O.2       1 RES1    0.0000
      4 N1         4.4097    7.0071    3.4933 N.am      1 RES1    0.0000
      5 H1         4.5451    7.8747    3.6473 H         1 RES1    0.0000
      6 N2         4.9495    7.8148    6.2644 N.pl3     1 RES1    0.0000
      7 C1         4.0163    6.2102    4.5779 C.ar      1 RES1    0.0000
      8 C2         4.2820    6.5617    5.9196 C.ar      1 RES1    0.0000
      9 C3         3.9372    5.7358    6.9866 C.ar      1 RES1    0.0000
     10 H2         4.1421    6.0355    7.8800 H         1 RES1    0.0000
     11 C4         3.2906    4.5320    6.7697 C.ar      1 RES1    0.0000
     12 C5         2.9939    4.1954    5.4518 C.ar      1 RES1    0.0000
     13 H3         2.5434    3.4226    5.2918 H         1 RES1    0.0000
     14 C6         3.3438    4.9969    4.3819 C.ar      1 RES1    0.0000
     15 H4         3.0862    4.7580    3.4522 H         1 RES1    0.0000
     16 C7         2.8960    3.6289    7.9048 C.3       1 RES1    0.0000
     17 H5         3.1851    4.0256    8.7528 H         1 RES1    0.0000
     18 H6         3.3232    2.7541    7.7895 H         1 RES1    0.0000
     19 H7         1.9221    3.5178    7.9101 H         1 RES1    0.0000
     20 C8         4.8072    6.5456    2.2553 C.2       1 RES1    0.0000
     21 C9         5.2740    7.6247    1.3193 C.3       1 RES1    0.0000
     22 H8         6.0992    7.3378    0.8746 H         1 RES1    0.0000
     23 H9         5.4448    8.4462    1.8272 H         1 RES1    0.0000
     24 H10        4.5826    7.7943    0.6457 H         1 RES1    0.0000
     25 O4         1.4866   13.7236    6.7936 O.2       2 RES2    0.0000
     26 O5         2.7007   10.1124    3.7569 O.2       2 RES2    0.0000
     27 O6         4.0421   10.6024    2.1561 O.2       2 RES2    0.0000
     28 N3         1.6681   12.0776    5.2291 N.am      2 RES2    0.0000
     29 H11        1.7374   11.1717    5.1339 H         2 RES2    0.0000
     30 N4         3.1918   10.9270    2.9803 N.pl3     2 RES2    0.0000
     31 C10        2.0472   12.8450    4.1199 C.ar      2 RES2    0.0000
     32 C11        2.7615   12.3173    3.0246 C.ar      2 RES2    0.0000
     33 C12        3.1200   13.1020    1.9246 C.ar      2 RES2    0.0000
     34 H12        3.5975   12.6567    1.2329 H         2 RES2    0.0000
     35 C13        2.7846   14.4368    1.8614 C.ar      2 RES2    0.0000
     36 C14        2.0602   14.9683    2.9365 C.ar      2 RES2    0.0000
     37 H13        1.8042   15.8847    2.9146 H         2 RES2    0.0000
     38 C15        1.7000   14.2018    4.0266 C.ar      2 RES2    0.0000
     39 H14        1.1563   14.6136    4.7684 H         2 RES2    0.0000
     40 C16        3.1972   15.3085    0.7066 C.3       2 RES2    0.0000
     41 H15        3.7739   16.0307    1.0325 H         2 RES2    0.0000
     42 H16        2.3996   15.6919    0.2856 H         2 RES2    0.0000
     43 H17        3.6871   14.7705    0.0497 H         2 RES2    0.0000
     44 C17        1.3875   12.5539    6.4919 C.2       2 RES2    0.0000
     45 C18        0.9525   11.5019    7.4716 C.3       2 RES2    0.0000
     46 H18        1.2470   11.7522    8.3714 H         2 RES2    0.0000
     47 H19        1.3510   10.6409    7.2254 H         2 RES2    0.0000
     48 H20       -0.0244   11.4261    7.4560 H         2 RES2    0.0000
@<TRIPOS>BOND
     1    1   20 2
     2    2    6 2
     3    3    6 2
     4    4    5 1
     5    6    8 1
     6    7    4 1
     7    8    7 ar
     8    9    8 ar
     9   10    9 1
    10   11    9 ar
    11   12   11 ar
    12   13   12 1
    13   14    7 ar
    14   15   14 1
    15   16   11 1
    16   17   16 1
    17   18   16 1
    18   19   16 1
    19   20    4 1
    20   21   20 1
    21   22   21 1
    22   23   21 1
    23   24   21 1
    24   25   44 2
    25   26   30 2
    26   27   30 2
    27   28   29 1
    28   30   32 1
    29   31   28 1
    30   32   31 ar
    31   33   32 ar
    32   34   33 1
    33   35   33 ar
    34   36   35 ar
    35   37   36 1
    36   38   31 ar
    37   39   38 1
    38   40   35 1
    39   41   40 1
    40   42   40 1
    41   43   40 1
    42   44   28 1
    43   45   44 1
    44   46   45 1
    45   47   45 1
    46   48   45 1
    47   12   14 ar
    48   36   38 ar
@<TRIPOS>SUBSTRUCTURE
     1 RES1 1
     2 RES2 25

@<TRIPOS>CRYSIN
   3.9291   12.8584   17.8340  89.2110  84.1260  86.9530   2 1

