# MOL2 file generated by ConQuest
# Please check atom types

@<TRIPOS>MOLECULE
MNIANL02
    16    16     1
SMALL
NO_CHARGES
****
Generated from CSD

@<TRIPOS>ATOM
      1 C1         2.8685    6.7758    0.8989 C.ar      1 RES1    0.0000
      2 C2         1.7313    6.5852    0.1028 C.ar      1 RES1    0.0000
      3 H1         1.4840    7.3114   -0.6541 H         1 RES1    0.0000
      4 C3         0.9201    5.4777    0.2663 C.ar      1 RES1    0.0000
      5 H2         0.0416    5.3668   -0.3386 H         1 RES1    0.0000
      6 C4         1.2163    4.5129    1.2239 C.ar      1 RES1    0.0000
      7 H3         0.5974    3.6375    1.3744 H         1 RES1    0.0000
      8 C5         2.3482    4.7223    1.9989 C.ar      1 RES1    0.0000
      9 C6         3.1808    5.8194    1.8629 C.ar      1 RES1    0.0000
     10 H4         4.0570    5.9225    2.4889 H         1 RES1    0.0000
     11 N1         3.7024    7.8567    0.6967 N.3       1 RES1    0.0000
     12 H5         4.3122    8.0706    1.4632 H         1 RES1    0.0000
     13 H6         3.3046    8.6548    0.2453 H         1 RES1    0.0000
     14 N2         2.6768    3.7387    3.0216 N.pl3     1 RES1    0.0000
     15 O1         1.9132    2.7985    3.1847 O.2       1 RES1    0.0000
     16 O2         3.6899    3.8898    3.6858 O.2       1 RES1    0.0000
@<TRIPOS>BOND
     1    1    2 ar
     2    2    3 1
     3    4    2 ar
     4    5    4 1
     5    6    4 ar
     6    7    6 1
     7    8    6 ar
     8    9    1 ar
     9   10    9 1
    10   11    1 1
    11   12   11 1
    12   13   11 1
    13   14    8 1
    14   15   14 2
    15   16   14 2
    16    8    9 ar
@<TRIPOS>SUBSTRUCTURE
     1 RES1 1

@<TRIPOS>CRYSIN
  18.9050    6.4840    5.0160  90.0000  90.0000  90.0000  29 1

