# MOL2 file generated by ConQuest
# Please check atom types

@<TRIPOS>MOLECULE
MNIAAN01
    36    36     2
SMALL
NO_CHARGES
****
Generated from CSD

@<TRIPOS>ATOM
      1 C1        14.0174    6.2831    2.9891 C.ar      1 RES1    0.0000
      2 C2        15.0148    5.8107    2.1203 C.ar      1 RES1    0.0000
      3 C3        16.0537    6.6225    1.6886 C.ar      1 RES1    0.0000
      4 H1        16.6531    6.3201    1.1409 H         1 RES1    0.0000
      5 C4        16.1599    7.9274    2.0971 C.ar      1 RES1    0.0000
      6 C5        15.1849    8.4058    2.9738 C.ar      1 RES1    0.0000
      7 H2        15.2005    9.3338    3.3118 H         1 RES1    0.0000
      8 C6        14.1544    7.6161    3.4028 C.ar      1 RES1    0.0000
      9 H3        13.5472    7.9757    3.9685 H         1 RES1    0.0000
     10 C7        17.2681    8.8301    1.6048 C.3       1 RES1    0.0000
     11 N1        15.0128    4.4507    1.6080 N.pl3     1 RES1    0.0000
     12 O1        14.2877    3.6148    2.0814 O.2       1 RES1    0.0000
     13 O2        15.7523    4.1773    0.6879 O.2       1 RES1    0.0000
     14 N2        12.9686    5.4816    3.4461 N.am      1 RES1    0.0000
     15 H4        13.1069    4.5528    3.3162 H         1 RES1    0.0000
     16 C8        11.7800    5.9000    3.9729 C.2       1 RES1    0.0000
     17 O3        11.4818    7.0648    4.0815 O.2       1 RES1    0.0000
     18 C9        10.8613    4.7904    4.3994 C.3       1 RES1    0.0000
     19 C10       13.8272   -0.5061    4.6796 C.ar      2 RES2    0.0000
     20 C11       12.4680   -0.1674    4.5742 C.ar      2 RES2    0.0000
     21 C12       11.4605   -1.0129    5.0100 C.ar      2 RES2    0.0000
     22 H5        10.5937   -0.7237    4.9354 H         2 RES2    0.0000
     23 C13       11.7501   -2.2376    5.5845 C.ar      2 RES2    0.0000
     24 C14       13.0985   -2.5617    5.7083 C.ar      2 RES2    0.0000
     25 H6        13.2895   -3.4383    6.0976 H         2 RES2    0.0000
     26 C15       14.1053   -1.7321    5.2810 C.ar      2 RES2    0.0000
     27 H7        15.0588   -2.0071    5.3780 H         2 RES2    0.0000
     28 C16       10.6749   -3.1654    6.0635 C.3       2 RES2    0.0000
     29 N3        12.0379    1.0967    3.9845 N.pl3     2 RES2    0.0000
     30 O4        12.8227    2.0056    3.8835 O.2       2 RES2    0.0000
     31 O5        10.8868    1.2062    3.6036 O.2       2 RES2    0.0000
     32 N4        14.8532    0.3242    4.2150 N.am      2 RES2    0.0000
     33 H8        14.6066    1.1660    4.0178 H         2 RES2    0.0000
     34 C17       16.0561   -0.0788    3.6898 C.2       2 RES2    0.0000
     35 O6        16.3950   -1.2404    3.6413 O.2       2 RES2    0.0000
     36 C18       16.9136    1.0352    3.1803 C.3       2 RES2    0.0000
@<TRIPOS>BOND
     1    1    2 ar
     2    2    3 ar
     3    3    4 1
     4    5    3 ar
     5    6    5 ar
     6    7    6 1
     7    8    1 ar
     8    9    8 1
     9   10    5 1
    10   11    2 1
    11   12   11 2
    12   13   11 2
    13   14    1 1
    14   15   14 1
    15   16   14 1
    16   17   16 2
    17   18   16 1
    18   19   20 ar
    19   20   21 ar
    20   21   22 1
    21   23   21 ar
    22   24   23 ar
    23   25   24 1
    24   26   19 ar
    25   27   26 1
    26   28   23 1
    27   29   20 1
    28   30   29 2
    29   31   29 2
    30   32   19 1
    31   33   32 1
    32   34   32 1
    33   35   34 2
    34   36   34 1
    35    6    8 ar
    36   24   26 ar
@<TRIPOS>SUBSTRUCTURE
     1 RES1 1
     2 RES2 19

@<TRIPOS>CRYSIN
  17.9560   12.9080    4.0390  93.1300  83.7100  90.7700   2 1

