# MOL2 file generated by ConQuest
# Please check atom types

@<TRIPOS>MOLECULE
MNIANL04
    16    16     1
SMALL
NO_CHARGES
****
Generated from CSD

@<TRIPOS>ATOM
      1 N1         6.8365    6.0194    4.6381 N.pl3     1 RES1    0.0000
      2 N2         5.8064    1.8920    2.3085 N.pl3     1 RES1    0.0000
      3 H1         5.0742    1.8092    2.7882 H         1 RES1    0.0000
      4 H2         6.0051    1.2878    1.7003 H         1 RES1    0.0000
      5 O1         7.6104    6.9611    4.8014 O.2       1 RES1    0.0000
      6 O2         5.8189    5.8734    5.2946 O.2       1 RES1    0.0000
      7 C1         7.1730    5.0268    3.6064 C.ar      1 RES1    0.0000
      8 C2         6.3340    3.9332    3.4769 C.ar      1 RES1    0.0000
      9 H3         5.5664    3.8367    4.0289 H         1 RES1    0.0000
     10 C3         6.6495    2.9745    2.5109 C.ar      1 RES1    0.0000
     11 C4         7.7906    3.1570    1.7264 C.ar      1 RES1    0.0000
     12 H4         8.0157    2.5105    1.0674 H         1 RES1    0.0000
     13 C5         8.5974    4.2675    1.8977 C.ar      1 RES1    0.0000
     14 H5         9.3663    4.3751    1.3486 H         1 RES1    0.0000
     15 C6         8.3061    5.2249    2.8545 C.ar      1 RES1    0.0000
     16 H6         8.8627    5.9835    2.9846 H         1 RES1    0.0000
@<TRIPOS>BOND
     1    1    5 2
     2    2    3 1
     3    4    2 1
     4    6    1 2
     5    7    1 1
     6    8    7 ar
     7    9    8 1
     8   10    2 1
     9   11   10 ar
    10   12   11 1
    11   13   11 ar
    12   14   13 1
    13   15    7 ar
    14   16   15 1
    15    8   10 ar
    16   13   15 ar
@<TRIPOS>SUBSTRUCTURE
     1 RES1 1

@<TRIPOS>CRYSIN
  19.0760    6.5173    5.0229  90.0000  90.0000  90.0000  29 1

