# MOL2 file generated by ConQuest
# Please check atom types

@<TRIPOS>MOLECULE
MNIANL01
    16    16     1
SMALL
NO_CHARGES
****
Generated from CSD

@<TRIPOS>ATOM
      1 C1         3.5218    2.9286    2.7586 C.ar      1 RES1    0.0000
      2 C2         2.5691    3.2424    1.7962 C.ar      1 RES1    0.0000
      3 C3         1.4824    2.3940    1.6472 C.ar      1 RES1    0.0000
      4 C4         1.2907    1.2551    2.3905 C.ar      1 RES1    0.0000
      5 C5         2.2467    0.9626    3.3498 C.ar      1 RES1    0.0000
      6 C6         3.3476    1.7800    3.5308 C.ar      1 RES1    0.0000
      7 N1         4.5961    3.7866    2.9752 N.3       1 RES1    0.0000
      8 N2         0.4913    2.7330    0.6202 N.pl3     1 RES1    0.0000
      9 O1         0.6181    3.7615   -0.0254 O.2       1 RES1    0.0000
     10 O2        -0.4335    1.9563    0.4347 O.2       1 RES1    0.0000
     11 H1         2.6347    4.1120    1.2639 H         1 RES1    0.0000
     12 H2         0.5362    0.6411    2.1821 H         1 RES1    0.0000
     13 H3         2.1200    0.1433    3.9391 H         1 RES1    0.0000
     14 H4         4.0079    1.4953    4.1745 H         1 RES1    0.0000
     15 H5         5.2882    3.5058    3.3788 H         1 RES1    0.0000
     16 H6         4.7443    4.4142    2.1566 H         1 RES1    0.0000
@<TRIPOS>BOND
     1    1    2 ar
     2    2    3 ar
     3    3    4 ar
     4    4    5 ar
     5    5    6 ar
     6    6    1 ar
     7    7    1 1
     8    8    3 1
     9    9    8 2
    10   10    8 2
    11   11    2 1
    12   12    4 1
    13   13    5 1
    14   14    6 1
    15   15    7 1
    16   16    7 1
@<TRIPOS>SUBSTRUCTURE
     1 RES1 1

@<TRIPOS>CRYSIN
   6.4990   19.3690    5.0840  90.0000  90.0000  90.0000  29 5

