# MOL2 file generated by ConQuest
# Please check atom types

@<TRIPOS>MOLECULE
MNIANL05
    16    16     1
SMALL
NO_CHARGES
****
Generated from CSD

@<TRIPOS>ATOM
      1 C1        12.0764    1.4851    3.7070 C.ar      1 RES1    0.0000
      2 C2        12.6108    3.5248    2.5995 C.ar      1 RES1    0.0000
      3 C3        12.9233    2.5664    3.5686 C.ar      1 RES1    0.0000
      4 H1        13.6785    2.6555    4.1038 H         1 RES1    0.0000
      5 C4        11.4600    3.3480    1.8332 C.ar      1 RES1    0.0000
      6 H2        11.2371    3.9813    1.1895 H         1 RES1    0.0000
      7 N1        13.4578    4.5977    2.3862 N.3       1 RES1    0.0000
      8 H3        13.2778    5.1712    1.7709 H         1 RES1    0.0000
      9 H4        14.1645    4.6907    2.8682 H         1 RES1    0.0000
     10 N2        12.4158    0.4942    4.7378 N.pl3     1 RES1    0.0000
     11 O1        11.6290   -0.4350    4.9208 O.2       1 RES1    0.0000
     12 C5        10.9363    1.2972    2.9746 C.ar      1 RES1    0.0000
     13 H5        10.3833    0.5631    3.1160 H         1 RES1    0.0000
     14 O2        13.4402    0.6216    5.3749 O.2       1 RES1    0.0000
     15 C6        10.6451    2.2498    2.0141 C.ar      1 RES1    0.0000
     16 H6         9.8896    2.1483    1.4825 H         1 RES1    0.0000
@<TRIPOS>BOND
     1    1    3 ar
     2    2    3 ar
     3    3    4 1
     4    5    2 ar
     5    6    5 1
     6    7    2 1
     7    8    7 1
     8    9    7 1
     9   10    1 1
    10   11   10 2
    11   12    1 ar
    12   13   12 1
    13   14   10 2
    14   15    5 ar
    15   16   15 1
    16   12   15 ar
@<TRIPOS>SUBSTRUCTURE
     1 RES1 1

@<TRIPOS>CRYSIN
  19.3610    6.5022    5.0683  90.0000  90.0000  90.0000  29 1

