# MOL2 file generated by ConQuest
# Please check atom types

@<TRIPOS>MOLECULE
MNIAAN02
    18    18     1
SMALL
NO_CHARGES
****
Generated from CSD

@<TRIPOS>ATOM
      1 C1         2.1563    3.6336    4.1257 C.ar      1 RES1    0.0000
      2 C2         1.2204    2.8715    3.4283 C.ar      1 RES1    0.0000
      3 C3         1.2537    1.4858    3.4435 C.ar      1 RES1    0.0000
      4 H1         0.6366    1.0227    3.0163 H         1 RES1    0.0000
      5 C4         2.2016    0.7982    4.1441 C.ar      1 RES1    0.0000
      6 C5         3.1394    1.5533    4.8439 C.ar      1 RES1    0.0000
      7 H2         3.7869    1.0727    5.2975 H         1 RES1    0.0000
      8 C6         3.1239    2.9204    4.8463 C.ar      1 RES1    0.0000
      9 H3         3.7901    3.4114    5.3208 H         1 RES1    0.0000
     10 C7         2.2297   -0.7109    4.1994 C.3       1 RES1    0.0000
     11 N1         0.1635    3.4812    2.6299 N.pl3     1 RES1    0.0000
     12 O1        -0.0254    4.6994    2.6804 O.2       1 RES1    0.0000
     13 O2        -0.5349    2.7540    1.9350 O.2       1 RES1    0.0000
     14 N2         2.1615    5.0333    4.1120 N.am      1 RES1    0.0000
     15 H4         1.5743    5.3125    3.6664 H         1 RES1    0.0000
     16 C8         3.0399    5.9083    4.6892 C.2       1 RES1    0.0000
     17 O3         3.9686    5.5615    5.3761 O.2       1 RES1    0.0000
     18 C9         2.7566    7.3510    4.3685 C.3       1 RES1    0.0000
@<TRIPOS>BOND
     1    1    2 ar
     2    2    3 ar
     3    3    4 1
     4    5    3 ar
     5    6    5 ar
     6    7    6 1
     7    8    1 ar
     8    9    8 1
     9   10    5 1
    10   11    2 1
    11   12   11 2
    12   13   11 2
    13   14    1 1
    14   15   14 1
    15   16   14 1
    16   17   16 2
    17   18   16 1
    18    6    8 ar
@<TRIPOS>SUBSTRUCTURE
     1 RES1 1

@<TRIPOS>CRYSIN
  10.1580   11.6350    8.0410  90.0000  94.5500  90.0000  14 1

