# MOL2 file generated by ConQuest
# Please check atom types

@<TRIPOS>MOLECULE
MNIANL10
    16    16     1
SMALL
NO_CHARGES
****
Generated from CSD

@<TRIPOS>ATOM
      1 C1         3.5027    2.9420    2.7636 C.ar      1 RES1    0.0000
      2 C2         2.5737    3.2378    1.8067 C.ar      1 RES1    0.0000
      3 C3         1.4718    2.4182    1.6567 C.ar      1 RES1    0.0000
      4 C4         1.3009    1.2429    2.4134 C.ar      1 RES1    0.0000
      5 C5         2.2383    0.9800    3.3455 C.ar      1 RES1    0.0000
      6 C6         3.3578    1.7629    3.5396 C.ar      1 RES1    0.0000
      7 H1         5.2918    3.5374    3.6692 H         1 RES1    0.0000
      8 H2         4.7522    4.6199    2.3987 H         1 RES1    0.0000
      9 H3         2.6914    4.0206    1.3162 H         1 RES1    0.0000
     10 H4         0.3901    0.7925    2.2615 H         1 RES1    0.0000
     11 H5         2.0673    0.1160    4.0758 H         1 RES1    0.0000
     12 H6         4.1996    1.6431    4.2536 H         1 RES1    0.0000
     13 N1         4.6170    3.7694    2.9811 N.pl3     1 RES1    0.0000
     14 N2         0.5077    2.7159    0.6302 N.pl3     1 RES1    0.0000
     15 O1         0.6163    3.7655   -0.0254 O.2       1 RES1    0.0000
     16 O2        -0.4388    1.9813    0.4594 O.2       1 RES1    0.0000
@<TRIPOS>BOND
     1    1    2 ar
     2    2    3 ar
     3    3    4 ar
     4    4    5 ar
     5    5    6 ar
     6    6    1 ar
     7    7   13 1
     8    8   13 1
     9    9    2 1
    10   10    4 1
    11   11    5 1
    12   12    6 1
    13   13    1 1
    14   14    3 1
    15   15   14 2
    16   16   14 2
@<TRIPOS>SUBSTRUCTURE
     1 RES1 1

@<TRIPOS>CRYSIN
   6.5010   19.3300    5.0820  90.0000  90.0000  90.0000  29 5

