# MOL2 file generated by ConQuest
# Please check atom types

@<TRIPOS>MOLECULE
MNIAAN10
    18    18     1
SMALL
NO_CHARGES
****
Generated from CSD

@<TRIPOS>ATOM
      1 C1         6.2043    3.4960    3.8652 C.ar      1 RES1    0.0000
      2 C2         5.9875    4.3413    2.7828 C.ar      1 RES1    0.0000
      3 C3         4.7105    4.5898    2.2940 C.ar      1 RES1    0.0000
      4 H1         4.5950    5.2056    1.5655 H         1 RES1    0.0000
      5 C4         3.6016    4.0379    2.8980 C.ar      1 RES1    0.0000
      6 C5         3.8135    3.2415    4.0096 C.ar      1 RES1    0.0000
      7 H2         3.0084    2.8443    4.4418 H         1 RES1    0.0000
      8 C6         5.0723    2.9591    4.4701 C.ar      1 RES1    0.0000
      9 H3         5.1542    2.4581    5.2816 H         1 RES1    0.0000
     10 C7         2.2216    4.2984    2.3525 C.3       1 RES1    0.0000
     11 N1         7.0816    5.0918    2.1742 N.pl3     1 RES1    0.0000
     12 O1         7.8920    5.6227    2.8980 O.2       1 RES1    0.0000
     13 O2         7.0880    5.1906    0.9474 O.2       1 RES1    0.0000
     14 N2         7.4785    3.1158    4.3332 N.am      1 RES1    0.0000
     15 H4         7.5504    2.9042    5.2231 H         1 RES1    0.0000
     16 C8         8.4912    2.6986    3.5510 C.2       1 RES1    0.0000
     17 O3         8.4196    2.7605    2.3299 O.2       1 RES1    0.0000
     18 C9         9.6904    2.1716    4.2615 C.3       1 RES1    0.0000
@<TRIPOS>BOND
     1    1    2 ar
     2    2    3 ar
     3    3    4 1
     4    5    3 ar
     5    6    5 ar
     6    7    6 1
     7    8    1 ar
     8    9    8 1
     9   10    5 1
    10   11    2 1
    11   12   11 2
    12   13   11 2
    13   14    1 1
    14   15   14 1
    15   16   14 1
    16   17   16 2
    17   18   16 1
    18    6    8 ar
@<TRIPOS>SUBSTRUCTURE
     1 RES1 1

@<TRIPOS>CRYSIN
  10.4210    9.9800    9.5680  90.0000  99.5100  90.0000  14 1

