# MOL2 file generated by ConQuest
# Please check atom types

@<TRIPOS>MOLECULE
MNIMET04
    21    21     1
SMALL
NO_CHARGES
****
Generated from CSD

@<TRIPOS>ATOM
      1 C1         0.9673    1.8378    6.8501 C.2       1 RES1    0.0000
      2 C2         0.8938    3.1903    7.4380 C.3       1 RES1    0.0000
      3 H1         0.5241    3.8138    6.7785 H         1 RES1    0.0000
      4 H2         1.7923    3.4833    7.6961 H         1 RES1    0.0000
      5 H3         0.3163    3.1718    8.2291 H         1 RES1    0.0000
      6 C3         1.8753    0.7201    8.9005 C.3       1 RES1    0.0000
      7 H4         2.1464    1.6343    9.1671 H         1 RES1    0.0000
      8 H5         2.6721    0.1358    8.9678 H         1 RES1    0.0000
      9 C4         0.8115    0.2192    9.8570 C.3       1 RES1    0.0000
     10 H6         0.5573   -0.7043    9.6080 H         1 RES1    0.0000
     11 H7         1.1827    0.1955   10.7749 H         1 RES1    0.0000
     12 C5         1.3462   -0.2867    6.5859 C.2       1 RES1    0.0000
     13 C6         0.8653    0.2221    5.4227 C.2       1 RES1    0.0000
     14 H8         0.7186   -0.2699    4.6238 H         1 RES1    0.0000
     15 N1         0.6283    1.5489    5.5886 N.2       1 RES1    0.0000
     16 N2         1.4112    0.7429    7.5064 N.pl3     1 RES1    0.0000
     17 N3         1.7007   -1.6364    6.8387 N.pl3     1 RES1    0.0000
     18 O1        -0.3402    1.0384    9.8418 O.3       1 RES1    0.0000
     19 H9        -0.2903    1.6032   10.4617 H         1 RES1    0.0000
     20 O2         1.6431   -2.4079    5.8827 O.2       1 RES1    0.0000
     21 O3         2.0436   -1.9764    7.9643 O.2       1 RES1    0.0000
@<TRIPOS>BOND
     1    1    2 1
     2    2    3 1
     3    4    2 1
     4    5    2 1
     5    6    7 1
     6    8    6 1
     7    9    6 1
     8   10    9 1
     9   11    9 1
    10   12   13 2
    11   13   14 1
    12   15    1 2
    13   16    1 1
    14   17   12 1
    15   18    9 1
    16   19   18 1
    17   20   17 2
    18   21   17 2
    19    6   16 1
    20   12   16 1
    21   13   15 1
@<TRIPOS>SUBSTRUCTURE
     1 RES1 1

@<TRIPOS>CRYSIN
   6.9056    8.6519   12.8180  90.0000  94.4100  90.0000  14 1

