# MOL2 file generated by ConQuest
# Please check atom types

@<TRIPOS>MOLECULE
MNIPZN01
    36    38     1
SMALL
NO_CHARGES
****
Generated from CSD

@<TRIPOS>ATOM
      1 O1         3.1692    7.1054   10.9451 O.2       1 RES1    0.0000
      2 O2         4.0811    9.8192   10.0756 O.2       1 RES1    0.0000
      3 O3         4.2209   11.8020    9.2911 O.2       1 RES1    0.0000
      4 N1         3.4302    6.5214    8.1555 N.2       1 RES1    0.0000
      5 N2         3.6526    7.7797    8.5030 N.3       1 RES1    0.0000
      6 N3         4.1478   10.5908    9.1267 N.pl3     1 RES1    0.0000
      7 C1         3.0161    5.9398   10.5205 C.2       1 RES1    0.0000
      8 C2         2.7145    4.8499   11.4040 C.2       1 RES1    0.0000
      9 H1         2.6108    5.0199   12.3127 H         1 RES1    0.0000
     10 C3         2.5784    3.5960   10.9559 C.2       1 RES1    0.0000
     11 H2         2.4039    2.9201   11.5697 H         1 RES1    0.0000
     12 C4         2.6905    3.2511    9.5615 C.ar      1 RES1    0.0000
     13 C5         2.5457    1.9301    9.1243 C.ar      1 RES1    0.0000
     14 H3         2.3904    1.2563    9.7456 H         1 RES1    0.0000
     15 C6         2.6304    1.6154    7.7953 C.ar      1 RES1    0.0000
     16 H4         2.5444    0.7313    7.5180 H         1 RES1    0.0000
     17 C7         2.8438    2.6159    6.8668 C.ar      1 RES1    0.0000
     18 H5         2.8818    2.4042    5.9618 H         1 RES1    0.0000
     19 C8         3.0000    3.9233    7.2690 C.ar      1 RES1    0.0000
     20 H6         3.1468    4.5866    6.6331 H         1 RES1    0.0000
     21 C9         2.9413    4.2622    8.6184 C.ar      1 RES1    0.0000
     22 C10        3.1412    5.6361    9.0864 C.2       1 RES1    0.0000
     23 C11        3.9197    8.7091    7.5064 C.ar      1 RES1    0.0000
     24 C12        4.1462   10.0675    7.7756 C.ar      1 RES1    0.0000
     25 C13        4.3904   10.9773    6.7536 C.ar      1 RES1    0.0000
     26 H7         4.5412   11.8701    6.9663 H         1 RES1    0.0000
     27 C14        4.4138   10.5848    5.4339 C.ar      1 RES1    0.0000
     28 C15        4.1848    9.2377    5.1695 C.ar      1 RES1    0.0000
     29 H8         4.1887    8.9474    4.2860 H         1 RES1    0.0000
     30 C16        3.9542    8.3252    6.1619 C.ar      1 RES1    0.0000
     31 H9         3.8186    7.4332    5.9379 H         1 RES1    0.0000
     32 C17        4.6959   11.5711    4.3365 C.3       1 RES1    0.0000
     33 H10        4.6430   12.4634    4.6862 H         1 RES1    0.0000
     34 H11        4.0495   11.4638    3.6354 H         1 RES1    0.0000
     35 H12        5.5766   11.4174    3.9862 H         1 RES1    0.0000
     36 H13        3.6294    8.0033    9.4474 H         1 RES1    0.0000
@<TRIPOS>BOND
     1    1    7 2
     2    2    6 2
     3    3    6 2
     4    4    5 1
     5    5   23 1
     6    6   24 1
     7    7    8 1
     8    8    9 1
     9   10    8 2
    10   11   10 1
    11   12   10 1
    12   13   12 ar
    13   14   13 1
    14   15   13 ar
    15   16   15 1
    16   17   15 ar
    17   18   17 1
    18   19   17 ar
    19   20   19 1
    20   21   12 ar
    21   22    4 2
    22   23   24 ar
    23   24   25 ar
    24   25   26 1
    25   27   25 ar
    26   28   27 ar
    27   29   28 1
    28   30   23 ar
    29   31   30 1
    30   32   27 1
    31   33   32 1
    32   34   32 1
    33   35   32 1
    34   36    5 1
    35    7   22 1
    36   19   21 ar
    37   21   22 1
    38   28   30 ar
@<TRIPOS>SUBSTRUCTURE
     1 RES1 1

@<TRIPOS>CRYSIN
   6.9711   12.8981   16.3447  90.0000 102.6980  90.0000 231 1

