# MOL2 file generated by ConQuest
# Please check atom types

@<TRIPOS>MOLECULE
MNPHOL11
    15    15     1
SMALL
NO_CHARGES
****
Generated from CSD

@<TRIPOS>ATOM
      1 O1         5.0892    1.2803    4.3524 O.2       1 RES1    0.0000
      2 O2         4.3079    0.1847    2.6979 O.2       1 RES1    0.0000
      3 O3        -0.5633    0.2822    3.1851 O.3       1 RES1    0.0000
      4 H1        -1.2834    0.5022    3.5084 H         1 RES1    0.0000
      5 N1         4.1529    0.8383    3.7046 N.pl3     1 RES1    0.0000
      6 C1         2.7928    1.0936    4.1773 C.ar      1 RES1    0.0000
      7 C2         1.7399    0.5783    3.4672 C.ar      1 RES1    0.0000
      8 H2         1.8859    0.0795    2.6957 H         1 RES1    0.0000
      9 C3         0.4505    0.8183    3.9243 C.ar      1 RES1    0.0000
     10 C4         0.2602    1.5515    5.0480 C.ar      1 RES1    0.0000
     11 H3        -0.6051    1.7106    5.3490 H         1 RES1    0.0000
     12 C5         1.3297    2.0668    5.7560 C.ar      1 RES1    0.0000
     13 H4         1.1809    2.5773    6.5185 H         1 RES1    0.0000
     14 C6         2.6258    1.8219    5.3268 C.ar      1 RES1    0.0000
     15 H5         3.3581    2.1422    5.8028 H         1 RES1    0.0000
@<TRIPOS>BOND
     1    1    5 2
     2    2    5 2
     3    3    4 1
     4    5    6 1
     5    6    7 ar
     6    7    8 1
     7    9    3 1
     8   10    9 ar
     9   11   10 1
    10   12   10 ar
    11   13   12 1
    12   14    6 ar
    13   15   14 1
    14    7    9 ar
    15   12   14 ar
@<TRIPOS>SUBSTRUCTURE
     1 RES1 1

@<TRIPOS>CRYSIN
   8.1530    6.9170   11.2600  90.0000  98.0700  90.0000 231 1

