# MOL2 file generated by ConQuest
# Please check atom types

@<TRIPOS>MOLECULE
MNPHOL23
    15    15     1
SMALL
NO_CHARGES
****
Generated from CSD

@<TRIPOS>ATOM
      1 O1         4.6388    0.3996    1.1973 O.2       1 RES1    0.0000
      2 O2         5.4180    1.5714    2.8294 O.2       1 RES1    0.0000
      3 O3        10.2918    1.4306    2.3959 O.3       1 RES1    0.0000
      4 H1        11.0197    1.2255    2.0531 H         1 RES1    0.0000
      5 N1         5.5800    0.8782    1.8330 N.pl3     1 RES1    0.0000
      6 C1         6.9410    0.6154    1.3686 C.ar      1 RES1    0.0000
      7 C2         7.9845    1.1437    2.1093 C.ar      1 RES1    0.0000
      8 H2         7.8212    1.6519    2.8833 H         1 RES1    0.0000
      9 C3         9.2862    0.8970    1.6705 C.ar      1 RES1    0.0000
     10 C4         9.4996    0.1240    0.5327 C.ar      1 RES1    0.0000
     11 H3        10.3769   -0.0510    0.2435 H         1 RES1    0.0000
     12 C5         8.4230   -0.3902   -0.1774 C.ar      1 RES1    0.0000
     13 H4         8.5791   -0.9097   -0.9446 H         1 RES1    0.0000
     14 C6         7.1143   -0.1455    0.2329 C.ar      1 RES1    0.0000
     15 H5         6.3800   -0.4860   -0.2446 H         1 RES1    0.0000
@<TRIPOS>BOND
     1    1    5 2
     2    2    5 2
     3    3    4 1
     4    5    6 1
     5    6    7 ar
     6    7    8 1
     7    9    3 1
     8   10    9 ar
     9   11   10 1
    10   12   10 ar
    11   13   12 1
    12   14    6 ar
    13   15   14 1
    14    7    9 ar
    15   12   14 ar
@<TRIPOS>SUBSTRUCTURE
     1 RES1 1

@<TRIPOS>CRYSIN
   8.1057    6.7040   11.2190  90.0000  90.0000  90.0000  19 1

