# MOL2 file generated by ConQuest
# Please check atom types

@<TRIPOS>MOLECULE
MNPHOL12
    15    15     1
SMALL
NO_CHARGES
****
Generated from CSD

@<TRIPOS>ATOM
      1 O1         8.3361    1.2872    9.9433 O.2       1 RES1    0.0000
      2 O2         7.5670    0.1981    8.2742 O.2       1 RES1    0.0000
      3 O3         2.7158    0.2820    8.7822 O.3       1 RES1    0.0000
      4 H1         2.0051    0.6256    9.0032 H         1 RES1    0.0000
      5 N1         7.4089    0.8452    9.2980 N.pl3     1 RES1    0.0000
      6 C1         6.0472    1.0891    9.7658 C.ar      1 RES1    0.0000
      7 C2         5.0132    0.5889    9.0602 C.ar      1 RES1    0.0000
      8 H2         5.1628    0.0949    8.2865 H         1 RES1    0.0000
      9 C3         3.7252    0.8237    9.5068 C.ar      1 RES1    0.0000
     10 C4         3.5285    1.5595   10.6433 C.ar      1 RES1    0.0000
     11 H3         2.6662    1.7147   10.9548 H         1 RES1    0.0000
     12 C5         4.6088    2.0708   11.3255 C.ar      1 RES1    0.0000
     13 H4         4.4676    2.5959   12.0802 H         1 RES1    0.0000
     14 C6         5.8901    1.8165   10.9102 C.ar      1 RES1    0.0000
     15 H5         6.6239    2.1276   11.3891 H         1 RES1    0.0000
@<TRIPOS>BOND
     1    1    5 2
     2    2    5 2
     3    3    4 1
     4    5    6 1
     5    6    7 ar
     6    7    8 1
     7    9    3 1
     8   10    9 ar
     9   11   10 1
    10   12   10 ar
    11   13   12 1
    12   14    6 ar
    13   15   14 1
    14    7    9 ar
    15   12   14 ar
@<TRIPOS>SUBSTRUCTURE
     1 RES1 1

@<TRIPOS>CRYSIN
   8.1190    6.9280   11.2750  90.0000  98.0200  90.0000 231 1

