# MOL2 file generated by ConQuest
# Please check atom types

@<TRIPOS>MOLECULE
MNPHOL18
    15    15     1
SMALL
NO_CHARGES
****
Generated from CSD

@<TRIPOS>ATOM
      1 O1         4.6449    0.3952    6.8731 O.2       1 RES1    0.0000
      2 O2         5.4073    1.5598    8.5036 O.2       1 RES1    0.0000
      3 O3        10.2717    1.4107    8.0925 O.3       1 RES1    0.0000
      4 H1        10.9912    1.2148    7.7517 H         1 RES1    0.0000
      5 N1         5.5758    0.8670    7.5083 N.pl3     1 RES1    0.0000
      6 C1         6.9467    0.6054    7.0531 C.ar      1 RES1    0.0000
      7 C2         7.9772    1.1165    7.7800 C.ar      1 RES1    0.0000
      8 H2         7.8136    1.6080    8.5523 H         1 RES1    0.0000
      9 C3         9.2679    0.8942    7.3509 C.ar      1 RES1    0.0000
     10 C4         9.4850    0.1254    6.2095 C.ar      1 RES1    0.0000
     11 H3        10.3535   -0.0481    5.9265 H         1 RES1    0.0000
     12 C5         8.4277   -0.3742    5.5018 C.ar      1 RES1    0.0000
     13 H4         8.5841   -0.8765    4.7353 H         1 RES1    0.0000
     14 C6         7.1233   -0.1410    5.9117 C.ar      1 RES1    0.0000
     15 H5         6.3981   -0.4752    5.4350 H         1 RES1    0.0000
@<TRIPOS>BOND
     1    1    5 2
     2    2    5 2
     3    3    4 1
     4    5    6 1
     5    6    7 ar
     6    7    8 1
     7    9    3 1
     8   10    9 ar
     9   11   10 1
    10   12   10 ar
    11   13   12 1
    12   14    6 ar
    13   15   14 1
    14    7    9 ar
    15   12   14 ar
@<TRIPOS>SUBSTRUCTURE
     1 RES1 1

@<TRIPOS>CRYSIN
   8.1020    6.7790   11.3230  90.0000  90.0000  90.0000  19 1

