# MOL2 file generated by ConQuest
# Please check atom types

@<TRIPOS>MOLECULE
MNPHOL03
    15    15     1
SMALL
NO_CHARGES
****
Generated from CSD

@<TRIPOS>ATOM
      1 C1         6.9945    1.0379    7.2358 C.ar      1 RES1    0.0000
      2 C2         6.2618    0.5027    6.1872 C.ar      1 RES1    0.0000
      3 C3         6.6994    0.7533    4.8886 C.ar      1 RES1    0.0000
      4 C4         7.8397    1.5386    4.6742 C.ar      1 RES1    0.0000
      5 C5         8.5447    2.0619    5.7576 C.ar      1 RES1    0.0000
      6 C6         8.1326    1.8132    7.0626 C.ar      1 RES1    0.0000
      7 N1         6.5268    0.7766    8.5951 N.pl3     1 RES1    0.0000
      8 O1         7.1649    1.2533    9.5336 O.2       1 RES1    0.0000
      9 O2         5.5335    0.0738    8.7512 O.2       1 RES1    0.0000
     10 O3         5.9811    0.2221    3.8732 O.3       1 RES1    0.0000
     11 H1         5.3765   -0.0911    6.3903 H         1 RES1    0.0000
     12 H2         8.1783    1.7420    3.6652 H         1 RES1    0.0000
     13 H3         9.4266    2.6709    5.5868 H         1 RES1    0.0000
     14 H4         8.7006    2.2188    7.8936 H         1 RES1    0.0000
     15 H5         6.3175    0.5479    3.0333 H         1 RES1    0.0000
@<TRIPOS>BOND
     1    1    2 ar
     2    2    3 ar
     3    3    4 ar
     4    4    5 ar
     5    5    6 ar
     6    6    1 ar
     7    7    1 1
     8    8    7 2
     9    9    7 2
    10   10    3 1
    11   11    2 1
    12   12    4 1
    13   13    5 1
    14   14    6 1
    15   15   10 1
@<TRIPOS>SUBSTRUCTURE
     1 RES1 1

@<TRIPOS>CRYSIN
  11.1360    6.6490    8.0910  90.0000  90.0000  90.0000  19 1

