# MOL2 file generated by ConQuest
# Please check atom types

@<TRIPOS>MOLECULE
MNPHOL22
    15    15     1
SMALL
NO_CHARGES
****
Generated from CSD

@<TRIPOS>ATOM
      1 O1         3.4683    0.4027    6.7847 O.2       1 RES1    0.0000
      2 O2         2.6864    1.5773    8.4137 O.2       1 RES1    0.0000
      3 O3        -2.1907    1.4347    7.9751 O.3       1 RES1    0.0000
      4 H1        -2.9271    1.2033    7.6433 H         1 RES1    0.0000
      5 N1         2.5267    0.8819    7.4202 N.pl3     1 RES1    0.0000
      6 C1         1.1655    0.6177    6.9532 C.ar      1 RES1    0.0000
      7 C2         0.1184    1.1479    7.6898 C.ar      1 RES1    0.0000
      8 H2         0.2803    1.6648    8.4696 H         1 RES1    0.0000
      9 C3        -1.1801    0.8982    7.2494 C.ar      1 RES1    0.0000
     10 C4        -1.3915    0.1229    6.1137 C.ar      1 RES1    0.0000
     11 H3        -2.2774   -0.0548    5.8208 H         1 RES1    0.0000
     12 C5        -0.3149   -0.3926    5.4075 C.ar      1 RES1    0.0000
     13 H4        -0.4723   -0.9209    4.6334 H         1 RES1    0.0000
     14 C6         0.9946   -0.1476    5.8166 C.ar      1 RES1    0.0000
     15 H5         1.7370   -0.4921    5.3345 H         1 RES1    0.0000
@<TRIPOS>BOND
     1    1    5 2
     2    2    5 2
     3    3    4 1
     4    5    6 1
     5    6    7 ar
     6    7    8 1
     7    9    3 1
     8   10    9 ar
     9   11   10 1
    10   12   10 ar
    11   13   12 1
    12   14    6 ar
    13   15   14 1
    14    7    9 ar
    15   12   14 ar
@<TRIPOS>SUBSTRUCTURE
     1 RES1 1

@<TRIPOS>CRYSIN
   8.1017    6.6777   11.1810  90.0000  90.0000  90.0000  19 1

