# MOL2 file generated by ConQuest
# Please check atom types

@<TRIPOS>MOLECULE
MNPHOL02
    15    15     1
SMALL
NO_CHARGES
****
Generated from CSD

@<TRIPOS>ATOM
      1 C1         1.8062   -0.8049   -1.0011 C.ar      1 RES1    0.0000
      2 C2         2.4409   -0.5664   -2.2146 C.ar      1 RES1    0.0000
      3 C3         1.8634   -1.0853   -3.3522 C.ar      1 RES1    0.0000
      4 C4         0.7120   -1.8199   -3.3498 C.ar      1 RES1    0.0000
      5 C5         0.1049   -2.0583   -2.1323 C.ar      1 RES1    0.0000
      6 C6         0.6508   -1.5512   -0.9696 C.ar      1 RES1    0.0000
      7 H1         2.0871   -0.4686    0.5813 H         1 RES1    0.0000
      8 H2         3.2061   -0.0069   -2.2445 H         1 RES1    0.0000
      9 H3         0.3014   -2.1431   -4.1176 H         1 RES1    0.0000
     10 H4        -0.6799   -2.5979   -2.1072 H         1 RES1    0.0000
     11 H5         0.2208   -1.7365   -0.2099 H         1 RES1    0.0000
     12 N1         2.5457   -0.8249   -4.6399 N.pl3     1 RES1    0.0000
     13 O1         2.3964   -0.2625    0.1033 O.3       1 RES1    0.0000
     14 O2         2.0256   -1.2735   -5.6516 O.2       1 RES1    0.0000
     15 O3         3.5642   -0.1730   -4.6415 O.2       1 RES1    0.0000
@<TRIPOS>BOND
     1    1    2 ar
     2    2    3 ar
     3    3    4 ar
     4    4    5 ar
     5    5    6 ar
     6    6    1 ar
     7    7   13 1
     8    8    2 1
     9    9    4 1
    10   10    5 1
    11   11    6 1
    12   12    3 1
    13   13    1 1
    14   14   12 2
    15   15   12 2
@<TRIPOS>SUBSTRUCTURE
     1 RES1 1

@<TRIPOS>CRYSIN
  11.2400    6.8910    8.1540  90.0000  98.0500  90.0000 231 1

