# MOL2 file generated by ConQuest
# Please check atom types

@<TRIPOS>MOLECULE
MNPHOL20
    15    15     1
SMALL
NO_CHARGES
****
Generated from CSD

@<TRIPOS>ATOM
      1 O1         0.5755    0.4039    1.1860 O.2       1 RES1    0.0000
      2 O2         1.3623    1.5888    2.8112 O.2       1 RES1    0.0000
      3 O3         6.2388    1.4384    2.3652 O.3       1 RES1    0.0000
      4 H1         6.9735    1.1993    2.0350 H         1 RES1    0.0000
      5 N1         1.5191    0.8870    1.8197 N.pl3     1 RES1    0.0000
      6 C1         2.8781    0.6215    1.3532 C.ar      1 RES1    0.0000
      7 C2         3.9263    1.1553    2.0824 C.ar      1 RES1    0.0000
      8 H2         3.7654    1.6784    2.8592 H         1 RES1    0.0000
      9 C3         5.2247    0.9031    1.6440 C.ar      1 RES1    0.0000
     10 C4         5.4360    0.1213    0.5104 C.ar      1 RES1    0.0000
     11 H3         6.3216   -0.0576    0.2177 H         1 RES1    0.0000
     12 C5         4.3568   -0.3982   -0.1945 C.ar      1 RES1    0.0000
     13 H4         4.5129   -0.9303   -0.9664 H         1 RES1    0.0000
     14 C6         3.0487   -0.1491    0.2162 C.ar      1 RES1    0.0000
     15 H5         2.3054   -0.4936   -0.2644 H         1 RES1    0.0000
@<TRIPOS>BOND
     1    1    5 2
     2    2    5 2
     3    3    4 1
     4    5    6 1
     5    6    7 ar
     6    7    8 1
     7    9    3 1
     8   10    9 ar
     9   11   10 1
    10   12   10 ar
    11   13   12 1
    12   14    6 ar
    13   15   14 1
    14    7    9 ar
    15   12   14 ar
@<TRIPOS>SUBSTRUCTURE
     1 RES1 1

@<TRIPOS>CRYSIN
   8.0890    6.6260   11.1080  90.0000  90.0000  90.0000  19 1

