# MOL2 file generated by ConQuest
# Please check atom types

@<TRIPOS>MOLECULE
MNPHOL13
    15    15     1
SMALL
NO_CHARGES
****
Generated from CSD

@<TRIPOS>ATOM
      1 O1        -1.8070    1.2324    1.1936 O.2       1 RES1    0.0000
      2 O2        -1.0049    0.1071    2.8494 O.2       1 RES1    0.0000
      3 O3         3.8674    0.2318    2.3312 O.3       1 RES1    0.0000
      4 H1         4.5673    0.4881    1.9512 H         1 RES1    0.0000
      5 N1        -0.8583    0.7755    1.8392 N.pl3     1 RES1    0.0000
      6 C1         0.4976    1.0439    1.3569 C.ar      1 RES1    0.0000
      7 C2         1.5534    0.5138    2.0796 C.ar      1 RES1    0.0000
      8 H2         1.4036   -0.0027    2.8631 H         1 RES1    0.0000
      9 C3         2.8455    0.7660    1.6161 C.ar      1 RES1    0.0000
     10 C4         3.0427    1.5320    0.4720 C.ar      1 RES1    0.0000
     11 H3         3.9237    1.7008    0.1600 H         1 RES1    0.0000
     12 C5         1.9518    2.0512   -0.2148 C.ar      1 RES1    0.0000
     13 H4         2.0960    2.5868   -0.9854 H         1 RES1    0.0000
     14 C6         0.6530    1.7977    0.2099 C.ar      1 RES1    0.0000
     15 H5        -0.0974    2.1299   -0.2686 H         1 RES1    0.0000
@<TRIPOS>BOND
     1    1    5 2
     2    2    5 2
     3    3    4 1
     4    5    6 1
     5    6    7 ar
     6    7    8 1
     7    9    3 1
     8   10    9 ar
     9   11   10 1
    10   12   10 ar
    11   13   12 1
    12   14    6 ar
    13   15   14 1
    14    7    9 ar
    15   12   14 ar
@<TRIPOS>SUBSTRUCTURE
     1 RES1 1

@<TRIPOS>CRYSIN
   8.1365    6.7787   11.0690  90.0000  97.9910  90.0000 231 1

