# MOL2 file generated by ConQuest
# Please check atom types

@<TRIPOS>MOLECULE
MNPHOL24
    15    15     1
SMALL
NO_CHARGES
****
Generated from CSD

@<TRIPOS>ATOM
      1 O1         3.4649    0.3990   10.0503 O.2       1 RES1    0.0000
      2 O2         2.6905    1.5636    8.4178 O.2       1 RES1    0.0000
      3 O3        -2.1808    1.4277    8.8436 O.3       1 RES1    0.0000
      4 H1        -2.9010    1.2218    9.1774 H         1 RES1    0.0000
      5 N1         2.5271    0.8740    9.4112 N.pl3     1 RES1    0.0000
      6 C1         1.1639    0.6129    9.8775 C.ar      1 RES1    0.0000
      7 C2         0.1240    1.1391    9.1390 C.ar      1 RES1    0.0000
      8 H2         0.2870    1.6430    8.3741 H         1 RES1    0.0000
      9 C3        -1.1775    0.8942    9.5724 C.ar      1 RES1    0.0000
     10 C4        -1.3921    0.1265   10.7113 C.ar      1 RES1    0.0000
     11 H3        -2.2605   -0.0431   10.9979 H         1 RES1    0.0000
     12 C5        -0.3178   -0.3882   11.4228 C.ar      1 RES1    0.0000
     13 H4        -0.4719   -0.9002   12.1837 H         1 RES1    0.0000
     14 C6         0.9883   -0.1440   11.0092 C.ar      1 RES1    0.0000
     15 H5         1.7156   -0.4811   11.4816 H         1 RES1    0.0000
@<TRIPOS>BOND
     1    1    5 2
     2    2    5 2
     3    3    4 1
     4    5    6 1
     5    6    7 ar
     6    7    8 1
     7    9    3 1
     8   10    9 ar
     9   11   10 1
    10   12   10 ar
    11   13   12 1
    12   14    6 ar
    13   15   14 1
    14    7    9 ar
    15   12   14 ar
@<TRIPOS>SUBSTRUCTURE
     1 RES1 1

@<TRIPOS>CRYSIN
   8.1078    6.7282   11.2510  90.0000  90.0000  90.0000  19 1

