# MOL2 file generated by ConQuest
# Please check atom types

@<TRIPOS>MOLECULE
MNPHOX
   104   108     2
SMALL
NO_CHARGES
****
Generated from CSD

@<TRIPOS>ATOM
      1 O1         0.3377    2.8752    7.9985 O.3       1 RES1    0.0000
      2 O2         8.9489    4.2887    3.5112 O.2       1 RES1    0.0000
      3 O3         7.8080    6.0664    3.0415 O.2       1 RES1    0.0000
      4 N1        -0.1303    4.2308    7.9527 N.2       1 RES1    0.0000
      5 N2         2.2963    2.3952    9.3252 N.3       1 RES1    0.0000
      6 N3         3.7363    3.0561    6.7787 N.3       1 RES1    0.0000
      7 N4         7.9334    4.9882    3.5647 N.pl3     1 RES1    0.0000
      8 C1         1.7632    2.5568    8.0176 C.3       1 RES1    0.0000
      9 C2         2.5231    3.5603    7.1728 C.2       1 RES1    0.0000
     10 C3         1.9972    4.7832    6.9361 C.2       1 RES1    0.0000
     11 C4         0.6850    5.0775    7.4532 C.2       1 RES1    0.0000
     12 C5         1.7029    1.3025   10.0577 C.3       1 RES1    0.0000
     13 C6         2.3928    3.5506   10.1822 C.3       1 RES1    0.0000
     14 C7         4.7422    3.6013    5.9408 C.ar      1 RES1    0.0000
     15 C8         5.9507    2.9307    5.9508 C.ar      1 RES1    0.0000
     16 C9         6.9806    3.3842    5.1541 C.ar      1 RES1    0.0000
     17 C10        6.7973    4.4913    4.3827 C.ar      1 RES1    0.0000
     18 C11        5.6105    5.1595    4.3506 C.ar      1 RES1    0.0000
     19 C12        4.5758    4.7108    5.1175 C.ar      1 RES1    0.0000
     20 C13        0.0844    6.4379    7.2851 C.ar      1 RES1    0.0000
     21 C14       -0.7357    6.6502    6.1303 C.ar      1 RES1    0.0000
     22 C15       -1.2977    7.9262    6.0340 C.ar      1 RES1    0.0000
     23 O1'       12.1618    9.3155    3.0514 O.3       2 RES2    0.0000
     24 O2'        4.8218    6.0954    8.7333 O.2       2 RES2    0.0000
     25 O3'        6.2305    4.4407    8.7890 O.2       2 RES2    0.0000
     26 N1'       12.8083    8.0733    2.8199 N.2       2 RES2    0.0000
     27 N2'        9.8993    9.5953    2.2379 N.3       2 RES2    0.0000
     28 N3'        9.1467    8.4496    4.8853 N.3       2 RES2    0.0000
     29 N4'        5.8638    5.5551    8.4232 N.pl3     2 RES2    0.0000
     30 C1'       10.7363    9.3758    3.3768 C.3       2 RES2    0.0000
     31 C2'       10.3069    8.1867    4.1826 C.2       2 RES2    0.0000
     32 C3'       11.0281    7.0626    4.1253 C.2       2 RES2    0.0000
     33 C4'       12.2318    7.0626    3.3554 C.2       2 RES2    0.0000
     34 C5'       10.1815   10.8713    1.5192 C.3       2 RES2    0.0000
     35 C6'        9.7352    8.4858    1.3214 C.3       2 RES2    0.0000
     36 C7'        8.4255    7.6657    5.7759 C.ar      2 RES2    0.0000
     37 C8'        7.1374    8.1215    6.0638 C.ar      2 RES2    0.0000
     38 C9'        6.3149    7.4534    6.9200 C.ar      2 RES2    0.0000
     39 C10'       6.7828    6.3101    7.5158 C.ar      2 RES2    0.0000
     40 C11'       8.0637    5.8349    7.2492 C.ar      2 RES2    0.0000
     41 C12'       8.8621    6.5271    6.3823 C.ar      2 RES2    0.0000
     42 C13'      13.0229    5.7770    3.1514 C.ar      2 RES2    0.0000
     43 C14'      13.9878    5.4369    4.0963 C.ar      2 RES2    0.0000
     44 C15'      14.8127    4.3418    3.8312 C.ar      2 RES2    0.0000
     45 C16       -1.0589    8.9392    6.9216 C.ar      1 RES1    0.0000
     46 C17       -0.2629    8.6908    7.9970 C.ar      1 RES1    0.0000
     47 C18        0.3642    7.4269    8.2200 C.ar      1 RES1    0.0000
     48 C19       -1.0541    5.5840    5.1564 C.3       1 RES1    0.0000
     49 C20       -1.7319   10.3045    6.6756 C.3       1 RES1    0.0000
     50 C21        1.2350    7.1784    9.4047 C.3       1 RES1    0.0000
     51 H1         4.1488    2.3783    7.3172 H         1 RES1    0.0000
     52 H2         1.7753    1.6330    7.5204 H         1 RES1    0.0000
     53 H3         2.3856    5.5961    6.4579 H         1 RES1    0.0000
     54 H4         0.7526    1.4617   10.4327 H         1 RES1    0.0000
     55 H5         2.2843    1.1530   10.9147 H         1 RES1    0.0000
     56 H6         1.7126    0.4390    9.4047 H         1 RES1    0.0000
     57 H7         1.5052    3.7556   10.4350 H         1 RES1    0.0000
     58 H8         2.7667    4.4383    9.5826 H         1 RES1    0.0000
     59 H9         3.0417    3.4228   10.9980 H         1 RES1    0.0000
     60 H10        6.0520    2.1709    6.8520 H         1 RES1    0.0000
     61 H11        7.6994    2.9645    5.2687 H         1 RES1    0.0000
     62 H12        5.5551    6.0375    3.7197 H         1 RES1    0.0000
     63 H13        3.7508    5.2801    5.1564 H         1 RES1    0.0000
     64 H14       -0.2774    5.5068    4.8677 H         1 RES1    0.0000
     65 H15       -1.4569    5.8711    4.2788 H         1 RES1    0.0000
     66 H16       -1.6885    4.8194    5.5650 H         1 RES1    0.0000
     67 H17       -1.9007    8.1939    5.1182 H         1 RES1    0.0000
     68 H18       -2.6702   10.6012    6.1669 H         1 RES1    0.0000
     69 H19       -0.9890   10.8641    5.9569 H         1 RES1    0.0000
     70 H20       -1.7222   10.9148    7.5601 H         1 RES1    0.0000
     71 H21        0.0579    9.5447    8.6943 H         1 RES1    0.0000
     72 H22        0.8153    6.4910   10.0814 H         1 RES1    0.0000
     73 H23        1.4859    8.0998    9.9775 H         1 RES1    0.0000
     74 H24        2.2481    6.7587    9.1213 H         1 RES1    0.0000
     75 C16'      14.6342    3.5989    2.6855 C.ar      2 RES2    0.0000
     76 C17'      13.6549    3.9148    1.7957 C.ar      2 RES2    0.0000
     77 C18'      12.8348    5.0123    2.0248 C.ar      2 RES2    0.0000
     78 C19'      14.2386    6.2498    5.3359 C.3       2 RES2    0.0000
     79 C20'      15.5870    2.4073    2.3937 C.3       2 RES2    0.0000
     80 C21'      11.7855    5.3645    1.0075 C.3       2 RES2    0.0000
     81 H1'        8.7559    9.3541    5.0235 H         2 RES2    0.0000
     82 H2'       10.6253   10.2876    3.9855 H         2 RES2    0.0000
     83 H3'       10.3913    6.1629    4.4766 H         2 RES2    0.0000
     84 H4'       10.8762   10.8014    0.8394 H         2 RES2    0.0000
     85 H5'        9.2866   11.2669    1.0999 H         2 RES2    0.0000
     86 H6'       10.5553   11.5998    2.2784 H         2 RES2    0.0000
     87 H7'       10.4058    8.3435    0.8272 H         2 RES2    0.0000
     88 H8'        9.4313    7.6970    1.8904 H         2 RES2    0.0000
     89 H9'        8.8958    8.7511    0.8547 H         2 RES2    0.0000
     90 H10'       6.7925    9.0454    5.5757 H         2 RES2    0.0000
     91 H11'       5.4320    7.8080    7.3119 H         2 RES2    0.0000
     92 H12'       8.3917    5.1305    7.8572 H         2 RES2    0.0000
     93 H13'       9.8124    6.2473    6.3052 H         2 RES2    0.0000
     94 H14'      13.5319    7.0867    5.3863 H         2 RES2    0.0000
     95 H15'      14.1759    5.6660    6.2105 H         2 RES2    0.0000
     96 H16'      15.2493    6.7032    5.2725 H         2 RES2    0.0000
     97 H17'      15.6304    4.0716    4.5255 H         2 RES2    0.0000
     98 H18'      16.4336    2.3036    3.1056 H         2 RES2    0.0000
     99 H19'      14.7572    1.6668    2.6397 H         2 RES2    0.0000
    100 H20'      15.9753    2.3132    1.4023 H         2 RES2    0.0000
    101 H21'      13.4716    3.2925    0.9158 H         2 RES2    0.0000
    102 H22'      11.9520    6.2498    0.5278 H         2 RES2    0.0000
    103 H23'      11.6456    4.5878    0.2788 H         2 RES2    0.0000
    104 H24'      10.7990    5.4899    1.5337 H         2 RES2    0.0000
@<TRIPOS>BOND
     1    1    4 1
     2    2    7 2
     3    3    7 2
     4    4   11 2
     5    5    8 1
     6    6    9 1
     7    7   17 1
     8    8    1 1
     9    9    8 1
    10   10    9 2
    11   11   10 1
    12   12    5 1
    13   13    5 1
    14   14    6 1
    15   15   14 ar
    16   16   15 ar
    17   17   16 ar
    18   18   17 ar
    19   19   14 ar
    20   20   11 1
    21   21   20 ar
    22   22   21 ar
    23   23   26 1
    24   24   29 2
    25   25   29 2
    26   26   33 2
    27   27   30 1
    28   28   31 1
    29   29   39 1
    30   30   23 1
    31   31   30 1
    32   32   31 2
    33   33   32 1
    34   34   27 1
    35   35   27 1
    36   36   28 1
    37   37   36 ar
    38   38   37 ar
    39   39   38 ar
    40   40   39 ar
    41   41   36 ar
    42   42   33 1
    43   43   42 ar
    44   44   43 ar
    45   45   22 ar
    46   46   45 ar
    47   47   20 ar
    48   48   21 1
    49   49   45 1
    50   50   47 1
    51   51    6 1
    52   52    8 1
    53   53   10 1
    54   54   12 1
    55   55   12 1
    56   56   12 1
    57   57   13 1
    58   58   13 1
    59   59   13 1
    60   60   15 1
    61   61   16 1
    62   62   18 1
    63   63   19 1
    64   64   48 1
    65   65   48 1
    66   66   48 1
    67   67   22 1
    68   68   49 1
    69   69   49 1
    70   70   49 1
    71   71   46 1
    72   72   50 1
    73   73   50 1
    74   74   50 1
    75   75   44 ar
    76   76   75 ar
    77   77   42 ar
    78   78   43 1
    79   79   75 1
    80   80   77 1
    81   81   28 1
    82   82   30 1
    83   83   32 1
    84   84   34 1
    85   85   34 1
    86   86   34 1
    87   87   35 1
    88   88   35 1
    89   89   35 1
    90   90   37 1
    91   91   38 1
    92   92   40 1
    93   93   41 1
    94   94   78 1
    95   95   78 1
    96   96   78 1
    97   97   44 1
    98   98   79 1
    99   99   79 1
   100  100   79 1
   101  101   76 1
   102  102   80 1
   103  103   80 1
   104  104   80 1
   105   18   19 ar
   106   40   41 ar
   107   46   47 ar
   108   76   77 ar
@<TRIPOS>SUBSTRUCTURE
     1 RES1 1
     2 RES2 23

@<TRIPOS>CRYSIN
  24.1210   24.1210    7.6380  90.0000  90.0000  90.0000  81 1

