# MOL2 file generated by ConQuest
# Please check atom types

@<TRIPOS>MOLECULE
MNPPRB
    91    93     2
SMALL
NO_CHARGES
****
Generated from CSD

@<TRIPOS>ATOM
      1 C1         4.0826   -4.4249    1.9686 C.ar      1 RES1    0.0000
      2 C2         2.0554   -0.5017    2.0871 C.ar      1 RES1    0.0000
      3 C3         0.8010   -0.6890    1.5606 C.ar      1 RES1    0.0000
      4 C4         0.5079   -1.8345    0.8686 C.ar      1 RES1    0.0000
      5 C5         1.4471   -2.8320    0.6987 C.ar      1 RES1    0.0000
      6 C6         1.1149   -4.1216   -0.0212 C.3       1 RES1    0.0000
      7 C7         0.3879   -3.8626   -1.3303 C.3       1 RES1    0.0000
      8 C8         0.3012   -5.0408    0.8261 C.3       1 RES1    0.0000
      9 C9         4.4611   -1.2253    2.4325 C.3       1 RES1    0.0000
     10 C10        5.2677   -0.4478    1.4298 C.3       1 RES1    0.0000
     11 C11        4.4899   -0.5181    3.7639 C.3       1 RES1    0.0000
     12 C12        5.1575   -5.2372    1.6690 C.ar      1 RES1    0.0000
     13 C13        5.6749   -6.1416    2.5745 C.ar      1 RES1    0.0000
     14 C14        5.0320   -6.1923    3.7975 C.ar      1 RES1    0.0000
     15 C15        3.9619   -5.3931    4.1094 C.ar      1 RES1    0.0000
     16 C16        3.4676   -4.4923    3.1949 C.ar      1 RES1    0.0000
     17 C17        6.8675   -6.9631    2.1531 C.3       1 RES1    0.0000
     18 C18        2.7046   -2.6019    1.2364 C.ar      1 RES1    0.0000
     19 C19        3.0497   -1.4513    1.9284 C.ar      1 RES1    0.0000
     20 H1         2.2379    0.3355    2.5376 H         1 RES1    0.0000
     21 H2         0.1228   -0.0345    1.6880 H         1 RES1    0.0000
     22 H3        -0.3446   -1.9846    0.5589 H         1 RES1    0.0000
     23 H4         1.9856   -4.4637   -0.2795 H         1 RES1    0.0000
     24 H5         0.7089   -3.1985   -1.9116 H         1 RES1    0.0000
     25 H6         0.3188   -4.6523   -1.7104 H         1 RES1    0.0000
     26 H7         0.7842   -5.2384    1.5315 H         1 RES1    0.0000
     27 H8         0.1976   -5.8680    0.4248 H         1 RES1    0.0000
     28 H9        -0.5192   -4.5889    1.0173 H         1 RES1    0.0000
     29 H10        4.9092   -2.1146    2.4817 H         1 RES1    0.0000
     30 H11        4.7577    0.4204    1.3191 H         1 RES1    0.0000
     31 H12        5.2279   -0.9197    0.6372 H         1 RES1    0.0000
     32 H13        6.1201   -0.2368    1.6545 H         1 RES1    0.0000
     33 H14        3.8701   -1.0505    4.4045 H         1 RES1    0.0000
     34 H15        5.3342   -0.3812    4.0915 H         1 RES1    0.0000
     35 H16        4.0286    0.3703    3.5661 H         1 RES1    0.0000
     36 H17        5.6048   -5.1425    0.8272 H         1 RES1    0.0000
     37 H18        3.5516   -5.4509    5.0417 H         1 RES1    0.0000
     38 H19        2.7330   -3.9196    3.4319 H         1 RES1    0.0000
     39 H20        6.5931   -7.8266    2.3252 H         1 RES1    0.0000
     40 H21        7.2088   -6.6047    1.3303 H         1 RES1    0.0000
     41 H22        7.5462   -6.8638    2.8730 H         1 RES1    0.0000
     42 N1         5.4683   -7.0971    4.8550 N.pl3     1 RES1    0.0000
     43 O1         3.7050   -3.5539    0.9826 O.3       1 RES1    0.0000
     44 O2         6.2164   -7.9541    4.5666 O.2       1 RES1    0.0000
     45 O3         4.9781   -7.0709    5.9181 O.2       1 RES1    0.0000
     46 C20        3.5864   -0.3087   -3.6343 C.ar      2 RES2    0.0000
     47 C21        3.8621   -4.7325   -3.5202 C.ar      2 RES2    0.0000
     48 C22        2.6767   -5.1899   -4.0177 C.ar      2 RES2    0.0000
     49 C23        1.8397   -4.3553   -4.6985 C.ar      2 RES2    0.0000
     50 C24        2.1405   -3.0191   -4.8762 C.ar      2 RES2    0.0000
     51 C25        1.1960   -2.0767   -5.5961 C.3       2 RES2    0.0000
     52 C26        0.7057   -2.6326   -6.8840 C.3       2 RES2    0.0000
     53 C27        0.0572   -1.6702   -4.7309 C.3       2 RES2    0.0000
     54 C28        5.5891   -2.9082   -3.2083 C.3       2 RES2    0.0000
     55 C29        6.6501   -3.2034   -4.2334 C.3       2 RES2    0.0000
     56 C30        5.9924   -3.4896   -1.8613 C.3       2 RES2    0.0000
     57 C31        4.0120    0.9570   -3.9674 C.ar      2 RES2    0.0000
     58 C32        3.9843    2.0174   -3.0921 C.ar      2 RES2    0.0000
     59 C33        3.4854    1.7253   -1.8255 C.ar      2 RES2    0.0000
     60 C34        3.0359    0.4695   -1.4801 C.ar      2 RES2    0.0000
     61 C35        3.0771   -0.5673   -2.3800 C.ar      2 RES2    0.0000
     62 C36        4.4678    3.3680   -3.5560 C.3       2 RES2    0.0000
     63 C37        3.3455   -2.5840   -4.3542 C.ar      2 RES2    0.0000
     64 C38        4.2419   -3.4080   -3.6868 C.ar      2 RES2    0.0000
     65 H23        4.4754   -5.4021   -3.0630 H         2 RES2    0.0000
     66 H24        2.4322   -6.0770   -3.9126 H         2 RES2    0.0000
     67 H25        0.9968   -4.6846   -5.0976 H         2 RES2    0.0000
     68 H26        1.7210   -1.3243   -5.7907 H         2 RES2    0.0000
     69 H27        0.0287   -3.4610   -6.6067 H         2 RES2    0.0000
     70 H28        1.3615   -3.0568   -7.4340 H         2 RES2    0.0000
     71 H29        0.1537   -1.9811   -7.2886 H         2 RES2    0.0000
     72 H30       -0.4662   -2.4044   -4.4157 H         2 RES2    0.0000
     73 H31       -0.5427   -0.9867   -5.1423 H         2 RES2    0.0000
     74 H32        0.3027   -1.3009   -3.9014 H         2 RES2    0.0000
     75 H33        5.4900   -2.0063   -3.2083 H         2 RES2    0.0000
     76 H34        7.4351   -2.8860   -4.0020 H         2 RES2    0.0000
     77 H35        6.7253   -4.2740   -4.3374 H         2 RES2    0.0000
     78 H36        6.4842   -2.6521   -5.0976 H         2 RES2    0.0000
     79 H37        5.3146   -3.0899   -1.2520 H         2 RES2    0.0000
     80 H38        6.7611   -3.1568   -1.5874 H         2 RES2    0.0000
     81 H39        6.1296   -4.5813   -1.9787 H         2 RES2    0.0000
     82 H40        4.3566    1.1027   -4.9075 H         2 RES2    0.0000
     83 H41        2.6669    0.3338   -0.5813 H         2 RES2    0.0000
     84 H42        2.7583   -1.4250   -2.1911 H         2 RES2    0.0000
     85 H43        5.3961    3.6066   -3.1413 H         2 RES2    0.0000
     86 H44        3.7305    3.9549   -3.3313 H         2 RES2    0.0000
     87 H45        4.7278    3.2621   -4.4492 H         2 RES2    0.0000
     88 N2         3.4154    2.7276   -0.7803 N.pl3     2 RES2    0.0000
     89 O4         3.7266   -1.2482   -4.6057 O.3       2 RES2    0.0000
     90 O5         3.8529    3.8065   -0.9770 O.2       2 RES2    0.0000
     91 O6         2.9760    2.4601    0.2895 O.2       2 RES2    0.0000
@<TRIPOS>BOND
     1    1   12 ar
     2    2    3 ar
     3    3    4 ar
     4    4    5 ar
     5    5    6 1
     6    6    7 1
     7    7   24 1
     8    8    6 1
     9    9   10 1
    10   10   30 1
    11   11    9 1
    12   12   13 ar
    13   13   14 ar
    14   14   15 ar
    15   15   16 ar
    16   16    1 ar
    17   17   13 1
    18   18    5 ar
    19   19    2 ar
    20   20    2 1
    21   21    3 1
    22   22    4 1
    23   23    6 1
    24   25    7 1
    25   26    8 1
    26   27    8 1
    27   28    8 1
    28   29    9 1
    29   31   10 1
    30   32   10 1
    31   33   11 1
    32   34   11 1
    33   35   11 1
    34   36   12 1
    35   37   15 1
    36   38   16 1
    37   39   17 1
    38   40   17 1
    39   41   17 1
    40   42   14 1
    41   43    1 1
    42   44   42 2
    43   45   42 2
    44   46   57 ar
    45   47   48 ar
    46   48   49 ar
    47   49   50 ar
    48   50   51 1
    49   51   52 1
    50   52   69 1
    51   53   51 1
    52   54   55 1
    53   55   76 1
    54   56   54 1
    55   57   58 ar
    56   58   59 ar
    57   59   60 ar
    58   60   61 ar
    59   61   46 ar
    60   62   58 1
    61   63   50 ar
    62   64   47 ar
    63   65   47 1
    64   66   48 1
    65   67   49 1
    66   68   51 1
    67   70   52 1
    68   71   52 1
    69   72   53 1
    70   73   53 1
    71   74   53 1
    72   75   54 1
    73   77   55 1
    74   78   55 1
    75   79   56 1
    76   80   56 1
    77   81   56 1
    78   82   57 1
    79   83   60 1
    80   84   61 1
    81   85   62 1
    82   86   62 1
    83   87   62 1
    84   88   59 1
    85   89   46 1
    86   90   88 2
    87   91   88 2
    88    9   19 1
    89   18   19 ar
    90   18   43 1
    91   54   64 1
    92   63   64 ar
    93   63   89 1
@<TRIPOS>SUBSTRUCTURE
     1 RES1 1
     2 RES2 46

@<TRIPOS>CRYSIN
  12.4220   13.1800   11.2410  89.9900  95.8100 105.4600   2 1

