# MOL2 file generated by ConQuest
# Please check atom types

@<TRIPOS>MOLECULE
MNPYDO30
    17    17     1
SMALL
NO_CHARGES
****
Generated from CSD

@<TRIPOS>ATOM
      1 N1         3.2784    0.3019    2.5958 N.pl3     1 RES1    0.0000
      2 C1         3.8135    1.0923    1.6365 C.ar      1 RES1    0.0000
      3 H1         4.5986    0.8168    1.2221 H         1 RES1    0.0000
      4 C2         3.2465    2.2936    1.2427 C.ar      1 RES1    0.0000
      5 C3         2.0644    2.6512    1.8961 C.ar      1 RES1    0.0000
      6 C4         1.5291    1.8583    2.9017 C.ar      1 RES1    0.0000
      7 H2         0.7540    2.1240    3.3413 H         1 RES1    0.0000
      8 C5         2.1436    0.6858    3.2442 C.ar      1 RES1    0.0000
      9 H3         1.7870    0.1525    3.9182 H         1 RES1    0.0000
     10 O1         3.8476   -0.8217    2.9038 O.2       1 RES1    0.0000
     11 C6         3.9813    3.1006    0.2128 C.3       1 RES1    0.0000
     12 H4         4.7562    2.6163   -0.0797 H         1 RES1    0.0000
     13 H5         4.2536    3.9382    0.5964 H         1 RES1    0.0000
     14 H6         3.4037    3.2641   -0.5368 H         1 RES1    0.0000
     15 N2         1.3340    3.8752    1.5691 N.pl3     1 RES1    0.0000
     16 O2         1.5981    4.4495    0.5244 O.2       1 RES1    0.0000
     17 O3         0.4782    4.2689    2.3480 O.2       1 RES1    0.0000
@<TRIPOS>BOND
     1    1    2 ar
     2    2    3 1
     3    4    2 ar
     4    5    4 ar
     5    6    5 ar
     6    7    6 1
     7    8    1 ar
     8    9    8 1
     9   10    1 1
    10   11    4 1
    11   12   11 1
    12   13   11 1
    13   14   11 1
    14   15    5 1
    15   16   15 2
    16   17   15 2
    17    6    8 ar
@<TRIPOS>SUBSTRUCTURE
     1 RES1 1

@<TRIPOS>CRYSIN
  21.2997    6.1229    5.1413  90.0000  90.0000  90.0000  19 1

