# MOL2 file generated by ConQuest
# Please check atom types

@<TRIPOS>MOLECULE
MNPYDO01
    17    17     1
SMALL
NO_CHARGES
****
Generated from CSD

@<TRIPOS>ATOM
      1 N1         3.2014    0.3108   -0.0231 N.pl3     1 RES1    0.0000
      2 C1         3.7401    1.0977   -0.9950 C.ar      1 RES1    0.0000
      3 C2         3.1834    2.3150   -1.3704 C.ar      1 RES1    0.0000
      4 C3         2.0211    2.6966   -0.6914 C.ar      1 RES1    0.0000
      5 C4         1.4836    1.9094    0.3222 C.ar      1 RES1    0.0000
      6 C5         2.0888    0.7198    0.6521 C.ar      1 RES1    0.0000
      7 O1         3.7500   -0.8176    0.2659 O.2       1 RES1    0.0000
      8 C6         3.9250    3.1175   -2.4021 C.3       1 RES1    0.0000
      9 N2         1.3083    3.9320   -1.0111 N.pl3     1 RES1    0.0000
     10 O2         1.5766    4.5024   -2.0606 O.2       1 RES1    0.0000
     11 O3         0.4652    4.3319   -0.2154 O.2       1 RES1    0.0000
     12 H1         4.6599    0.7118   -1.4407 H         1 RES1    0.0000
     13 H2         0.5922    2.2223    0.8597 H         1 RES1    0.0000
     14 H3         1.7945    0.0436    1.4361 H         1 RES1    0.0000
     15 H4         4.8738    2.6104   -2.6414 H         1 RES1    0.0000
     16 H5         3.3541    3.2614   -3.3197 H         1 RES1    0.0000
     17 H6         4.1431    4.1124   -2.0146 H         1 RES1    0.0000
@<TRIPOS>BOND
     1    1    2 ar
     2    2    3 ar
     3    3    4 ar
     4    4    5 ar
     5    5    6 ar
     6    6    1 ar
     7    7    1 1
     8    8    3 1
     9    9    4 1
    10   10    9 2
    11   11    9 2
    12   12    2 1
    13   13    5 1
    14   14    6 1
    15   15    8 1
    16   16    8 1
    17   17    8 1
@<TRIPOS>SUBSTRUCTURE
     1 RES1 1

@<TRIPOS>CRYSIN
  20.8900    6.0940    5.1350  90.0000  90.0000  90.0000  19 1

