# MOL2 file generated by ConQuest
# Please check atom types

@<TRIPOS>MOLECULE
MNPYDO21
    17    17     1
SMALL
NO_CHARGES
****
Generated from CSD

@<TRIPOS>ATOM
      1 N1         3.2504    0.3256    2.5674 N.pl3     1 RES1    0.0000
      2 C1         3.7728    1.1446    1.6142 C.ar      1 RES1    0.0000
      3 H1         4.5595    0.8716    1.1979 H         1 RES1    0.0000
      4 C2         3.2166    2.3505    1.2163 C.ar      1 RES1    0.0000
      5 C3         2.0556    2.6547    1.8655 C.ar      1 RES1    0.0000
      6 C4         1.5163    1.8755    2.8667 C.ar      1 RES1    0.0000
      7 H2         0.7444    2.1540    3.3014 H         1 RES1    0.0000
      8 C5         2.1042    0.7039    3.2243 C.ar      1 RES1    0.0000
      9 H3         1.7405    0.1726    3.8950 H         1 RES1    0.0000
     10 O1         3.7982   -0.8080    2.8887 O.2       1 RES1    0.0000
     11 C6         3.9610    3.1584    0.1921 C.3       1 RES1    0.0000
     12 H4         4.7350    2.6743   -0.1017 H         1 RES1    0.0000
     13 H5         4.2359    3.9933    0.5828 H         1 RES1    0.0000
     14 H6         3.3879    3.3323   -0.5583 H         1 RES1    0.0000
     15 N2         1.3266    3.8770    1.5575 N.pl3     1 RES1    0.0000
     16 O2         1.5905    4.4500    0.5118 O.2       1 RES1    0.0000
     17 O3         0.4617    4.2559    2.3176 O.2       1 RES1    0.0000
@<TRIPOS>BOND
     1    1    2 ar
     2    2    3 1
     3    4    2 ar
     4    5    4 ar
     5    6    5 ar
     6    7    6 1
     7    8    1 ar
     8    9    8 1
     9   10    1 1
    10   11    4 1
    11   12   11 1
    12   13   11 1
    13   14   11 1
    14   15    5 1
    15   16   15 2
    16   17   15 2
    17    6    8 ar
@<TRIPOS>SUBSTRUCTURE
     1 RES1 1

@<TRIPOS>CRYSIN
  21.1480    6.1210    5.1082  90.0000  90.0000  90.0000  19 1

