# MOL2 file generated by ConQuest
# Please check atom types

@<TRIPOS>MOLECULE
MNPYDO12
    17    17     1
SMALL
NO_CHARGES
****
Generated from CSD

@<TRIPOS>ATOM
      1 N1         3.2710    0.3030    2.5901 N.pl3     1 RES1    0.0000
      2 C1         3.8061    1.0940    1.6265 C.ar      1 RES1    0.0000
      3 H1         4.5879    0.8148    1.2082 H         1 RES1    0.0000
      4 C2         3.2413    2.2982    1.2370 C.ar      1 RES1    0.0000
      5 C3         2.0592    2.6563    1.8948 C.ar      1 RES1    0.0000
      6 C4         1.5235    1.8641    2.8943 C.ar      1 RES1    0.0000
      7 H2         0.7462    2.1298    3.3322 H         1 RES1    0.0000
      8 C5         2.1362    0.6906    3.2397 C.ar      1 RES1    0.0000
      9 H3         1.7794    0.1592    3.9145 H         1 RES1    0.0000
     10 O1         3.8393   -0.8234    2.8959 O.2       1 RES1    0.0000
     11 C6         3.9764    3.1007    0.2076 C.3       1 RES1    0.0000
     12 H4         4.7516    2.6141   -0.0838 H         1 RES1    0.0000
     13 H5         4.2498    3.9376    0.5900 H         1 RES1    0.0000
     14 H6         3.3994    3.2636   -0.5422 H         1 RES1    0.0000
     15 N2         1.3307    3.8825    1.5685 N.pl3     1 RES1    0.0000
     16 O2         1.5945    4.4561    0.5211 O.2       1 RES1    0.0000
     17 O3         0.4771    4.2768    2.3465 O.2       1 RES1    0.0000
@<TRIPOS>BOND
     1    1    2 ar
     2    2    3 1
     3    4    2 ar
     4    5    4 ar
     5    6    5 ar
     6    7    6 1
     7    8    1 ar
     8    9    8 1
     9   10    1 1
    10   11    4 1
    11   12   11 1
    12   13   11 1
    13   14   11 1
    14   15    5 1
    15   16   15 2
    16   17   15 2
    17    6    8 ar
@<TRIPOS>SUBSTRUCTURE
     1 RES1 1

@<TRIPOS>CRYSIN
  21.2598    6.1219    5.1391  90.0000  90.0000  90.0000  19 1

