# MOL2 file generated by ConQuest
# Please check atom types

@<TRIPOS>MOLECULE
MNPYDO22
    17    17     1
SMALL
NO_CHARGES
****
Generated from CSD

@<TRIPOS>ATOM
      1 N1         3.2306    0.2812    2.5592 N.pl3     1 RES1    0.0000
      2 C1         3.7475    1.0757    1.5873 C.ar      1 RES1    0.0000
      3 H1         4.5156    0.7836    1.1514 H         1 RES1    0.0000
      4 C2         3.2052    2.2859    1.2049 C.ar      1 RES1    0.0000
      5 C3         2.0426    2.6282    1.8535 C.ar      1 RES1    0.0000
      6 C4         1.4771    1.8458    2.8335 C.ar      1 RES1    0.0000
      7 H2         0.6816    2.1025    3.2399 H         1 RES1    0.0000
      8 C5         2.0890    0.6907    3.1996 C.ar      1 RES1    0.0000
      9 H3         1.7345    0.1791    3.8885 H         1 RES1    0.0000
     10 O1         3.8066   -0.8373    2.8718 O.2       1 RES1    0.0000
     11 C6         3.9311    3.0988    0.1774 C.3       1 RES1    0.0000
     12 H4         4.7055    2.6202   -0.1214 H         1 RES1    0.0000
     13 H5         4.2012    3.9367    0.5639 H         1 RES1    0.0000
     14 H6         3.3487    3.2650   -0.5685 H         1 RES1    0.0000
     15 N2         1.3209    3.8567    1.5450 N.pl3     1 RES1    0.0000
     16 O2         1.5784    4.4740    0.5130 O.2       1 RES1    0.0000
     17 O3         0.4431    4.2845    2.2844 O.2       1 RES1    0.0000
@<TRIPOS>BOND
     1    1    2 ar
     2    2    3 1
     3    4    2 ar
     4    5    4 ar
     5    6    5 ar
     6    7    6 1
     7    8    1 ar
     8    9    8 1
     9   10    1 1
    10   11    4 1
    11   12   11 1
    12   13   11 1
    13   14   11 1
    14   15    5 1
    15   16   15 2
    16   17   15 2
    17    6    8 ar
@<TRIPOS>SUBSTRUCTURE
     1 RES1 1

@<TRIPOS>CRYSIN
  21.1010    6.1120    5.0990  90.0000  90.0000  90.0000  19 1

