# MOL2 file generated by ConQuest
# Please check atom types

@<TRIPOS>MOLECULE
MNPYDO16
    17    17     1
SMALL
NO_CHARGES
****
Generated from CSD

@<TRIPOS>ATOM
      1 N1         3.3007    0.2978    2.6181 N.pl3     1 RES1    0.0000
      2 C1         3.8372    1.0913    1.6584 C.ar      1 RES1    0.0000
      3 H1         4.6275    0.8205    1.2496 H         1 RES1    0.0000
      4 C2         3.2643    2.2856    1.2599 C.ar      1 RES1    0.0000
      5 C3         2.0749    2.6348    1.9066 C.ar      1 RES1    0.0000
      6 C4         1.5397    1.8407    2.9075 C.ar      1 RES1    0.0000
      7 H2         0.7605    2.1017    3.3425 H         1 RES1    0.0000
      8 C5         2.1586    0.6734    3.2550 C.ar      1 RES1    0.0000
      9 H3         1.7996    0.1373    3.9254 H         1 RES1    0.0000
     10 O1         3.8770   -0.8229    2.9312 O.2       1 RES1    0.0000
     11 C6         3.9983    3.0925    0.2317 C.3       1 RES1    0.0000
     12 H4         4.7817    2.6152   -0.0499 H         1 RES1    0.0000
     13 H5         4.2568    3.9363    0.6106 H         1 RES1    0.0000
     14 H6         3.4278    3.2433   -0.5252 H         1 RES1    0.0000
     15 N2         1.3424    3.8560    1.5745 N.pl3     1 RES1    0.0000
     16 O2         1.6014    4.4253    0.5293 O.2       1 RES1    0.0000
     17 O3         0.4812    4.2439    2.3478 O.2       1 RES1    0.0000
@<TRIPOS>BOND
     1    1    2 ar
     2    2    3 1
     3    4    2 ar
     4    5    4 ar
     5    6    5 ar
     6    7    6 1
     7    8    1 ar
     8    9    8 1
     9   10    1 1
    10   11    4 1
    11   12   11 1
    12   13   11 1
    13   14   11 1
    14   15    5 1
    15   16   15 2
    16   17   15 2
    17    6    8 ar
@<TRIPOS>SUBSTRUCTURE
     1 RES1 1

@<TRIPOS>CRYSIN
  21.4235    6.1275    5.1487  90.0000  90.0000  90.0000  19 1

