# MOL2 file generated by ConQuest
# Please check atom types

@<TRIPOS>MOLECULE
MNPYDO04
    17    17     1
SMALL
NO_CHARGES
****
Generated from CSD

@<TRIPOS>ATOM
      1 N1         3.2115    0.3140    2.5481 N.pl3     1 RES1    0.0000
      2 C1         3.7509    1.1021    1.5779 C.ar      1 RES1    0.0000
      3 H1         4.5238    0.8137    1.1498 H         1 RES1    0.0000
      4 C2         3.1973    2.3178    1.2001 C.ar      1 RES1    0.0000
      5 C3         2.0266    2.6917    1.8757 C.ar      1 RES1    0.0000
      6 C4         1.4923    1.9079    2.8895 C.ar      1 RES1    0.0000
      7 H2         0.7313    2.1871    3.3438 H         1 RES1    0.0000
      8 C5         2.0951    0.7160    3.2180 C.ar      1 RES1    0.0000
      9 H3         1.7412    0.1857    3.8956 H         1 RES1    0.0000
     10 O1         3.7670   -0.8248    2.8412 O.2       1 RES1    0.0000
     11 C6         3.9350    3.1224    0.1694 C.3       1 RES1    0.0000
     12 H4         4.7061    2.6337   -0.1258 H         1 RES1    0.0000
     13 H5         4.2137    3.9569    0.5539 H         1 RES1    0.0000
     14 H6         3.3567    3.2910   -0.5785 H         1 RES1    0.0000
     15 N2         1.3144    3.9319    1.5579 N.pl3     1 RES1    0.0000
     16 O2         1.5799    4.5074    0.5082 O.2       1 RES1    0.0000
     17 O3         0.4654    4.3320    2.3510 O.2       1 RES1    0.0000
@<TRIPOS>BOND
     1    1    2 ar
     2    2    3 1
     3    4    2 ar
     4    5    4 ar
     5    6    5 ar
     6    7    6 1
     7    8    1 ar
     8    9    8 1
     9   10    1 1
    10   11    4 1
    11   12   11 1
    12   13   11 1
    13   14   11 1
    14   15    5 1
    15   16   15 2
    16   17   15 2
    17    6    8 ar
@<TRIPOS>SUBSTRUCTURE
     1 RES1 1

@<TRIPOS>CRYSIN
  20.9533    6.1092    5.1332  90.0000  90.0000  90.0000  19 1

