# MOL2 file generated by ConQuest
# Please check atom types

@<TRIPOS>MOLECULE
MNPYDO
    17    17     1
SMALL
NO_CHARGES
****
Generated from CSD

@<TRIPOS>ATOM
      1 N1         3.2914    0.2994    0.0441 N.pl3     1 RES1    0.0000
      2 C1         3.8382    1.0951   -0.9181 C.ar      1 RES1    0.0000
      3 C2         3.2444    2.2702   -1.3092 C.ar      1 RES1    0.0000
      4 C3         2.0697    2.6235   -0.6687 C.ar      1 RES1    0.0000
      5 C4         1.5293    1.8309    0.3351 C.ar      1 RES1    0.0000
      6 C5         2.1573    0.6655    0.6841 C.ar      1 RES1    0.0000
      7 O1         3.8617   -0.8170    0.3582 O.2       1 RES1    0.0000
      8 C6         3.9920    3.0793   -2.3381 C.3       1 RES1    0.0000
      9 N2         1.3285    3.8426   -0.9992 N.pl3     1 RES1    0.0000
     10 O2         1.5934    4.4036   -2.0461 O.2       1 RES1    0.0000
     11 O3         0.4806    4.2337   -0.2299 O.2       1 RES1    0.0000
     12 H1         4.7844    0.7150   -1.3908 H         1 RES1    0.0000
     13 H2         0.5126    2.1144    0.7493 H         1 RES1    0.0000
     14 H3         1.5592    0.0000    1.4524 H         1 RES1    0.0000
     15 H4         4.9980    2.7011   -2.4377 H         1 RES1    0.0000
     16 H5         3.1398    3.1838   -3.0997 H         1 RES1    0.0000
     17 H6         4.1223    3.9722   -2.0323 H         1 RES1    0.0000
@<TRIPOS>BOND
     1    1    2 ar
     2    2    3 ar
     3    3    4 ar
     4    4    5 ar
     5    5    6 ar
     6    6    1 ar
     7    7    1 1
     8    8    3 1
     9    9    4 1
    10   10    9 2
    11   11    9 2
    12   12    2 1
    13   13    5 1
    14   14    6 1
    15   15    8 1
    16   16    8 1
    17   17    8 1
@<TRIPOS>SUBSTRUCTURE
     1 RES1 1

@<TRIPOS>CRYSIN
  21.3590    6.1110    5.1320  90.0000  90.0000  90.0000  19 1

