# MOL2 file generated by ConQuest
# Please check atom types

@<TRIPOS>MOLECULE
MNPYDO08
    17    17     1
SMALL
NO_CHARGES
****
Generated from CSD

@<TRIPOS>ATOM
      1 N1         3.2389    0.3095    2.5687 N.pl3     1 RES1    0.0000
      2 C1         3.7798    1.0972    1.6022 C.ar      1 RES1    0.0000
      3 H1         4.5592    0.8140    1.1816 H         1 RES1    0.0000
      4 C2         3.2184    2.3099    1.2160 C.ar      1 RES1    0.0000
      5 C3         2.0424    2.6756    1.8831 C.ar      1 RES1    0.0000
      6 C4         1.5066    1.8879    2.8912 C.ar      1 RES1    0.0000
      7 H2         0.7384    2.1607    3.3379 H         1 RES1    0.0000
      8 C5         2.1144    0.7027    3.2275 C.ar      1 RES1    0.0000
      9 H3         1.7595    0.1712    3.9028 H         1 RES1    0.0000
     10 O1         3.7992   -0.8232    2.8650 O.2       1 RES1    0.0000
     11 C6         3.9539    3.1129    0.1869 C.3       1 RES1    0.0000
     12 H4         4.7258    2.6255   -0.1073 H         1 RES1    0.0000
     13 H5         4.2300    3.9489    0.5700 H         1 RES1    0.0000
     14 H6         3.3756    3.2792   -0.5618 H         1 RES1    0.0000
     15 N2         1.3232    3.9098    1.5616 N.pl3     1 RES1    0.0000
     16 O2         1.5882    4.4859    0.5146 O.2       1 RES1    0.0000
     17 O3         0.4696    4.3061    2.3468 O.2       1 RES1    0.0000
@<TRIPOS>BOND
     1    1    2 ar
     2    2    3 1
     3    4    2 ar
     4    5    4 ar
     5    6    5 ar
     6    7    6 1
     7    8    1 ar
     8    9    8 1
     9   10    1 1
    10   11    4 1
    11   12   11 1
    12   13   11 1
    13   14   11 1
    14   15    5 1
    15   16   15 2
    16   17   15 2
    17    6    8 ar
@<TRIPOS>SUBSTRUCTURE
     1 RES1 1

@<TRIPOS>CRYSIN
  21.0975    6.1157    5.1353  90.0000  90.0000  90.0000  19 1

