# MOL2 file generated by ConQuest
# Please check atom types

@<TRIPOS>MOLECULE
MNPYDO07
    17    17     1
SMALL
NO_CHARGES
****
Generated from CSD

@<TRIPOS>ATOM
      1 N1         3.2319    0.3112    2.5630 N.pl3     1 RES1    0.0000
      2 C1         3.7699    1.1000    1.5937 C.ar      1 RES1    0.0000
      3 H1         4.5466    0.8138    1.1681 H         1 RES1    0.0000
      4 C2         3.2125    2.3137    1.2112 C.ar      1 RES1    0.0000
      5 C3         2.0376    2.6806    1.8792 C.ar      1 RES1    0.0000
      6 C4         1.5023    1.8930    2.8906 C.ar      1 RES1    0.0000
      7 H2         0.7350    2.1676    3.3393 H         1 RES1    0.0000
      8 C5         2.1097    0.7062    3.2254 C.ar      1 RES1    0.0000
      9 H3         1.7563    0.1755    3.9021 H         1 RES1    0.0000
     10 O1         3.7912   -0.8242    2.8588 O.2       1 RES1    0.0000
     11 C6         3.9483    3.1147    0.1828 C.3       1 RES1    0.0000
     12 H4         4.7214    2.6267   -0.1109 H         1 RES1    0.0000
     13 H5         4.2244    3.9505    0.5658 H         1 RES1    0.0000
     14 H6         3.3715    3.2816   -0.5663 H         1 RES1    0.0000
     15 N2         1.3193    3.9144    1.5613 N.pl3     1 RES1    0.0000
     16 O2         1.5855    4.4898    0.5129 O.2       1 RES1    0.0000
     17 O3         0.4690    4.3125    2.3474 O.2       1 RES1    0.0000
@<TRIPOS>BOND
     1    1    2 ar
     2    2    3 1
     3    4    2 ar
     4    5    4 ar
     5    6    5 ar
     6    7    6 1
     7    8    1 ar
     8    9    8 1
     9   10    1 1
    10   11    4 1
    11   12   11 1
    12   13   11 1
    13   14   11 1
    14   15    5 1
    15   16   15 2
    16   17   15 2
    17    6    8 ar
@<TRIPOS>SUBSTRUCTURE
     1 RES1 1

@<TRIPOS>CRYSIN
  21.0588    6.1144    5.1343  90.0000  90.0000  90.0000  19 1

