# MOL2 file generated by ConQuest
# Please check atom types

@<TRIPOS>MOLECULE
MNPYDO23
    17    17     1
SMALL
NO_CHARGES
****
Generated from CSD

@<TRIPOS>ATOM
      1 N1         3.2320    0.2833    2.5772 N.pl3     1 RES1    0.0000
      2 C1         3.7453    1.0806    1.5989 C.ar      1 RES1    0.0000
      3 H1         4.5200    0.7888    1.1754 H         1 RES1    0.0000
      4 C2         3.2121    2.2955    1.1799 C.ar      1 RES1    0.0000
      5 C3         2.0280    2.6606    1.8356 C.ar      1 RES1    0.0000
      6 C4         1.4822    1.9066    2.8551 C.ar      1 RES1    0.0000
      7 H2         0.7201    2.1954    3.3036 H         1 RES1    0.0000
      8 C5         2.0826    0.7295    3.1896 C.ar      1 RES1    0.0000
      9 H3         1.7005    0.2076    3.8574 H         1 RES1    0.0000
     10 O1         3.7848   -0.8657    2.8536 O.2       1 RES1    0.0000
     11 C6         3.9490    3.1074    0.1603 C.3       1 RES1    0.0000
     12 H4         4.7237    2.6239   -0.1369 H         1 RES1    0.0000
     13 H5         4.2240    3.9402    0.5528 H         1 RES1    0.0000
     14 H6         3.3737    3.2808   -0.5879 H         1 RES1    0.0000
     15 N2         1.3216    3.9011    1.5464 N.pl3     1 RES1    0.0000
     16 O2         1.5657    4.4811    0.4871 O.2       1 RES1    0.0000
     17 O3         0.4285    4.2466    2.3008 O.2       1 RES1    0.0000
@<TRIPOS>BOND
     1    1    2 ar
     2    2    3 1
     3    4    2 ar
     4    5    4 ar
     5    6    5 ar
     6    7    6 1
     7    8    1 ar
     8    9    8 1
     9   10    1 1
    10   11    4 1
    11   12   11 1
    12   13   11 1
    13   14   11 1
    14   15    5 1
    15   16   15 2
    16   17   15 2
    17    6    8 ar
@<TRIPOS>SUBSTRUCTURE
     1 RES1 1

@<TRIPOS>CRYSIN
  20.9940    6.1050    5.0903  90.0000  90.0000  90.0000  19 1

