# MOL2 file generated by ConQuest
# Please check atom types

@<TRIPOS>MOLECULE
MNPYDO27
    17    17     1
SMALL
NO_CHARGES
****
Generated from CSD

@<TRIPOS>ATOM
      1 N1         3.0622    0.3942    2.4269 N.pl3     1 RES1    0.0000
      2 C1         3.5889    1.1074    1.4413 C.ar      1 RES1    0.0000
      3 H1         4.3283    0.7747    0.9846 H         1 RES1    0.0000
      4 C2         3.0659    2.3295    1.0779 C.ar      1 RES1    0.0000
      5 C3         1.9501    2.7356    1.7819 C.ar      1 RES1    0.0000
      6 C4         1.4062    2.0057    2.8127 C.ar      1 RES1    0.0000
      7 H2         0.6606    2.3175    3.2714 H         1 RES1    0.0000
      8 C5         1.9776    0.8219    3.1478 C.ar      1 RES1    0.0000
      9 H3         1.6415    0.3118    3.8494 H         1 RES1    0.0000
     10 O1         3.5787   -0.7944    2.7402 O.2       1 RES1    0.0000
     11 C6         3.8121    3.1060    0.0462 C.3       1 RES1    0.0000
     12 H4         4.5760    2.6006   -0.2428 H         1 RES1    0.0000
     13 H5         4.1027    3.9392    0.4215 H         1 RES1    0.0000
     14 H6         3.2387    3.2744   -0.7040 H         1 RES1    0.0000
     15 N2         1.2663    3.9529    1.4682 N.pl3     1 RES1    0.0000
     16 O2         1.5261    4.5365    0.4121 O.2       1 RES1    0.0000
     17 O3         0.4123    4.3627    2.2352 O.2       1 RES1    0.0000
@<TRIPOS>BOND
     1    1    2 ar
     2    2    3 1
     3    4    2 ar
     4    5    4 ar
     5    6    5 ar
     6    7    6 1
     7    8    1 ar
     8    9    8 1
     9   10    1 1
    10   11    4 1
    11   12   11 1
    12   13   11 1
    13   14   11 1
    14   15    5 1
    15   16   15 2
    16   17   15 2
    17    6    8 ar
@<TRIPOS>SUBSTRUCTURE
     1 RES1 1

@<TRIPOS>CRYSIN
  20.1410    5.9730    4.9650  90.0000  90.0000  90.0000  19 1

