# MOL2 file generated by ConQuest
# Please check atom types

@<TRIPOS>MOLECULE
MNPYDO18
    17    17     1
SMALL
NO_CHARGES
****
Generated from CSD

@<TRIPOS>ATOM
      1 N1         3.3011    0.3076    2.5971 N.pl3     1 RES1    0.0000
      2 C1         3.8022    1.1443    1.6269 C.ar      1 RES1    0.0000
      3 H1         4.5849    0.8816    1.2016 H         1 RES1    0.0000
      4 C2         3.2329    2.3439    1.2293 C.ar      1 RES1    0.0000
      5 C3         2.0643    2.6927    1.9040 C.ar      1 RES1    0.0000
      6 C4         1.5567    1.8518    2.8762 C.ar      1 RES1    0.0000
      7 H2         0.7741    2.1138    3.3087 H         1 RES1    0.0000
      8 C5         2.1197    0.6706    3.2446 C.ar      1 RES1    0.0000
      9 H3         1.7359    0.1304    3.8972 H         1 RES1    0.0000
     10 O1         3.8470   -0.8244    2.9178 O.2       1 RES1    0.0000
     11 C6         3.9942    3.1498    0.2150 C.3       1 RES1    0.0000
     12 H4         4.7661    2.6534   -0.0693 H         1 RES1    0.0000
     13 H5         4.2735    3.9785    0.6080 H         1 RES1    0.0000
     14 H6         3.4312    3.3258   -0.5418 H         1 RES1    0.0000
     15 N2         1.3413    3.9127    1.5669 N.pl3     1 RES1    0.0000
     16 O2         1.5919    4.4171    0.5192 O.2       1 RES1    0.0000
     17 O3         0.4753    4.2756    2.3308 O.2       1 RES1    0.0000
@<TRIPOS>BOND
     1    1    2 ar
     2    2    3 1
     3    4    2 ar
     4    5    4 ar
     5    6    5 ar
     6    7    6 1
     7    8    1 ar
     8    9    8 1
     9   10    1 1
    10   11    4 1
    11   12   11 1
    12   13   11 1
    13   14   11 1
    14   15    5 1
    15   16   15 2
    16   17   15 2
    17    6    8 ar
@<TRIPOS>SUBSTRUCTURE
     1 RES1 1

@<TRIPOS>CRYSIN
  21.3250    6.1520    5.1306  90.0000  90.0000  90.0000  19 1

