# MOL2 file generated by ConQuest
# Please check atom types

@<TRIPOS>MOLECULE
MNPYDO24
    17    17     1
SMALL
NO_CHARGES
****
Generated from CSD

@<TRIPOS>ATOM
      1 N1         3.1863    0.3098    2.5224 N.pl3     1 RES1    0.0000
      2 C1         3.7055    1.0935    1.5525 C.ar      1 RES1    0.0000
      3 H1         4.4699    0.7958    1.1147 H         1 RES1    0.0000
      4 C2         3.1613    2.3176    1.1678 C.ar      1 RES1    0.0000
      5 C3         2.0002    2.7034    1.8254 C.ar      1 RES1    0.0000
      6 C4         1.4976    1.9428    2.8409 C.ar      1 RES1    0.0000
      7 H2         0.7581    2.2520    3.3116 H         1 RES1    0.0000
      8 C5         2.0522    0.7357    3.1886 C.ar      1 RES1    0.0000
      9 H3         1.6721    0.2151    3.8593 H         1 RES1    0.0000
     10 O1         3.7284   -0.8323    2.8252 O.2       1 RES1    0.0000
     11 C6         3.9091    3.1165    0.1458 C.3       1 RES1    0.0000
     12 H4         4.6797    2.6262   -0.1468 H         1 RES1    0.0000
     13 H5         4.1916    3.9512    0.5346 H         1 RES1    0.0000
     14 H6         3.3379    3.2945   -0.6049 H         1 RES1    0.0000
     15 N2         1.2899    3.9366    1.5156 N.pl3     1 RES1    0.0000
     16 O2         1.5686    4.4651    0.4622 O.2       1 RES1    0.0000
     17 O3         0.4271    4.2981    2.2987 O.2       1 RES1    0.0000
@<TRIPOS>BOND
     1    1    2 ar
     2    2    3 1
     3    4    2 ar
     4    5    4 ar
     5    6    5 ar
     6    7    6 1
     7    8    1 ar
     8    9    8 1
     9   10    1 1
    10   11    4 1
    11   12   11 1
    12   13   11 1
    13   14   11 1
    14   15    5 1
    15   16   15 2
    16   17   15 2
    17    6    8 ar
@<TRIPOS>SUBSTRUCTURE
     1 RES1 1

@<TRIPOS>CRYSIN
  20.7710    6.0750    5.0621  90.0000  90.0000  90.0000  19 1

