# MOL2 file generated by ConQuest
# Please check atom types

@<TRIPOS>MOLECULE
MNPYDO17
    17    17     1
SMALL
NO_CHARGES
****
Generated from CSD

@<TRIPOS>ATOM
      1 N1         3.3049    0.2456    2.6088 N.pl3     1 RES1    0.0000
      2 C1         3.8154    1.0992    1.6573 C.ar      1 RES1    0.0000
      3 H1         4.6123    0.8468    1.2496 H         1 RES1    0.0000
      4 C2         3.2536    2.2967    1.2507 C.ar      1 RES1    0.0000
      5 C3         2.0701    2.6529    1.9061 C.ar      1 RES1    0.0000
      6 C4         1.5424    1.8362    2.8889 C.ar      1 RES1    0.0000
      7 H2         0.7520    2.0886    3.3109 H         1 RES1    0.0000
      8 C5         2.1406    0.6694    3.2590 C.ar      1 RES1    0.0000
      9 H3         1.7753    0.1511    3.9417 H         1 RES1    0.0000
     10 O1         3.8624   -0.8720    2.9290 O.2       1 RES1    0.0000
     11 C6         3.9885    3.1135    0.2318 C.3       1 RES1    0.0000
     12 H4         4.7639    2.6363   -0.0648 H         1 RES1    0.0000
     13 H5         4.2576    3.9493    0.6256 H         1 RES1    0.0000
     14 H6         3.4117    3.2873   -0.5166 H         1 RES1    0.0000
     15 N2         1.3416    3.8750    1.5668 N.pl3     1 RES1    0.0000
     16 O2         1.5937    4.4092    0.5253 O.2       1 RES1    0.0000
     17 O3         0.4717    4.2250    2.3466 O.2       1 RES1    0.0000
@<TRIPOS>BOND
     1    1    2 ar
     2    2    3 1
     3    4    2 ar
     4    5    4 ar
     5    6    5 ar
     6    7    6 1
     7    8    1 ar
     8    9    8 1
     9   10    1 1
    10   11    4 1
    11   12   11 1
    12   13   11 1
    13   14   11 1
    14   15    5 1
    15   16   15 2
    16   17   15 2
    17    6    8 ar
@<TRIPOS>SUBSTRUCTURE
     1 RES1 1

@<TRIPOS>CRYSIN
  21.3630    6.1410    5.1404  90.0000  90.0000  90.0000  19 1

