# MOL2 file generated by ConQuest
# Please check atom types

@<TRIPOS>MOLECULE
MNQUON10
    24    25     1
SMALL
NO_CHARGES
****
Generated from CSD

@<TRIPOS>ATOM
      1 C1         4.5238   -4.8162    0.7251 C.2       1 RES1    0.0000
      2 C2         0.1958   -6.8008   -0.1523 C.3       1 RES1    0.0000
      3 C3         6.0547   -2.8074    1.8057 C.2       1 RES1    0.0000
      4 C4         6.6999   -3.8725    1.2414 C.2       1 RES1    0.0000
      5 C5         5.9186   -4.8760    0.6710 C.2       1 RES1    0.0000
      6 C6         3.7201   -5.9144    0.1523 C.2       1 RES1    0.0000
      7 C7         2.2992   -5.7541    0.2443 C.2       1 RES1    0.0000
      8 C8         1.7435   -4.6679    0.8418 C.2       1 RES1    0.0000
      9 C9         2.5080   -3.6371    1.4270 C.2       1 RES1    0.0000
     10 C10        3.9140   -3.7007    1.3535 C.2       1 RES1    0.0000
     11 H1         4.4007   -2.0934    2.3577 H         1 RES1    0.0000
     12 H2        -0.0932   -6.8020    0.8658 H         1 RES1    0.0000
     13 H3         6.4332   -1.8834    2.2262 H         1 RES1    0.0000
     14 H4         7.6826   -3.9323    1.1750 H         1 RES1    0.0000
     15 H5         6.3400   -5.5549    0.3556 H         1 RES1    0.0000
     16 H6         0.8205   -4.6068    0.8039 H         1 RES1    0.0000
     17 H7        -0.3170   -6.0830   -0.6571 H         1 RES1    0.0000
     18 H8        -0.1119   -7.6992   -0.6107 H         1 RES1    0.0000
     19 N1         4.7475   -2.7501    1.8776 N.pl3     1 RES1    0.0000
     20 N2         1.8199   -2.6216    2.1072 N.pl3     1 RES1    0.0000
     21 O1         0.5911   -2.6998    2.2425 O.2       1 RES1    0.0000
     22 O2         2.4689   -1.6697    2.5872 O.2       1 RES1    0.0000
     23 O3         1.6148   -6.7842   -0.3355 O.3       1 RES1    0.0000
     24 O4         4.2832   -6.8701   -0.3726 O.2       1 RES1    0.0000
@<TRIPOS>BOND
     1    1    5 2
     2    2   12 1
     3    3    4 2
     4    4    5 1
     5    5   15 1
     6    6    1 1
     7    7    6 1
     8    8    7 2
     9    9    8 1
    10   10    1 1
    11   11   19 1
    12   13    3 1
    13   14    4 1
    14   16    8 1
    15   17    2 1
    16   18    2 1
    17   19    3 1
    18   20    9 1
    19   21   20 2
    20   22   20 2
    21   23    2 1
    22   24    6 2
    23    7   23 1
    24    9   10 2
    25   10   19 1
@<TRIPOS>SUBSTRUCTURE
     1 RES1 1

@<TRIPOS>CRYSIN
  18.6470    6.3630    7.7300  90.0000  90.0000  90.0000  29 1

