# MOL2 file generated by ConQuest
# Please check atom types

@<TRIPOS>MOLECULE
MNTBZA
    23    23     1
SMALL
NO_CHARGES
****
Generated from CSD

@<TRIPOS>ATOM
      1 C1         4.4222    1.9363    2.6424 C.ar      1 RES1    0.0000
      2 C2         5.5989    1.1830    2.5930 C.ar      1 RES1    0.0000
      3 C3         5.6008   -0.1031    2.0693 C.ar      1 RES1    0.0000
      4 C4         4.3849   -0.5879    1.6050 C.ar      1 RES1    0.0000
      5 C5         3.1900    0.1266    1.6136 C.ar      1 RES1    0.0000
      6 C6         3.2355    1.3984    2.1577 C.ar      1 RES1    0.0000
      7 C7         4.4493    3.3234    3.1653 C.2       1 RES1    0.0000
      8 C8         6.8558   -0.9278    2.0090 C.3       1 RES1    0.0000
      9 C9         1.9015   -0.4185    1.0562 C.3       1 RES1    0.0000
     10 H1         6.3473    1.3677    2.8811 H         1 RES1    0.0000
     11 H2         2.4134    1.9597    2.3331 H         1 RES1    0.0000
     12 H3         7.2949   -1.2350    2.7794 H         1 RES1    0.0000
     13 H4         7.4711   -0.4389    1.7694 H         1 RES1    0.0000
     14 H5         6.9298   -1.5923    1.2996 H         1 RES1    0.0000
     15 H6         2.0260   -1.0207    0.1488 H         1 RES1    0.0000
     16 H7         1.1209    0.2041    0.8377 H         1 RES1    0.0000
     17 H8         1.5651   -1.2248    1.5658 H         1 RES1    0.0000
     18 H9         5.3137    4.7054    4.0712 H         1 RES1    0.0000
     19 N1         4.3841   -1.9434    1.0311 N.pl3     1 RES1    0.0000
     20 O1         5.5897    3.8848    3.2859 O.3       1 RES1    0.0000
     21 O2         3.3741    3.9021    3.4762 O.2       1 RES1    0.0000
     22 O3         4.6779   -2.0894   -0.1198 O.2       1 RES1    0.0000
     23 O4         4.0489   -2.8661    1.7287 O.2       1 RES1    0.0000
@<TRIPOS>BOND
     1    1    2 ar
     2    2    3 ar
     3    3    4 ar
     4    4    5 ar
     5    5    6 ar
     6    6    1 ar
     7    7    1 1
     8    8    3 1
     9    9    5 1
    10   10    2 1
    11   11    6 1
    12   12    8 1
    13   13    8 1
    14   14    8 1
    15   15    9 1
    16   16    9 1
    17   17    9 1
    18   18   20 1
    19   19    4 1
    20   20    7 1
    21   21    7 2
    22   22   19 2
    23   23   19 2
@<TRIPOS>SUBSTRUCTURE
     1 RES1 1

@<TRIPOS>CRYSIN
  11.9650   10.2070    8.3640  90.0000 110.6000  90.0000  14 2

