# MOL2 file generated by ConQuest
# Please check atom types

@<TRIPOS>MOLECULE
MNTDMA01
    22    22     1
SMALL
NO_CHARGES
****
Generated from CSD

@<TRIPOS>ATOM
      1 C1         4.5843    1.3786    5.8860 C.ar      1 RES1    0.0000
      2 C2         3.7188    0.5600    5.1371 C.ar      1 RES1    0.0000
      3 C3         3.3443    0.9491    3.8705 C.ar      1 RES1    0.0000
      4 C4         3.7753    2.1175    3.2640 C.ar      1 RES1    0.0000
      5 C5         4.6448    2.9073    3.9948 C.ar      1 RES1    0.0000
      6 C6         5.0483    2.5609    5.2759 C.ar      1 RES1    0.0000
      7 C7         5.7453    1.9316    7.9741 C.3       1 RES1    0.0000
      8 C8         4.3947   -0.1559    7.7819 C.3       1 RES1    0.0000
      9 N1         4.9697    1.0218    7.1554 N.pl3     1 RES1    0.0000
     10 N2         2.4406    0.0612    3.1262 N.pl3     1 RES1    0.0000
     11 O1         2.1973   -1.0472    3.5777 O.2       1 RES1    0.0000
     12 O2         1.9584    0.4722    2.0681 O.2       1 RES1    0.0000
     13 H1         5.9234    1.4317    8.8490 H         1 RES1    0.0000
     14 H2         5.3339    2.8057    8.0512 H         1 RES1    0.0000
     15 H3         6.6168    2.1360    7.5797 H         1 RES1    0.0000
     16 H4         4.7218   -0.2656    8.6405 H         1 RES1    0.0000
     17 H5         4.6181   -1.0045    7.3258 H         1 RES1    0.0000
     18 H6         3.3819   -0.0924    7.8245 H         1 RES1    0.0000
     19 H7         3.4400   -0.3002    5.4400 H         1 RES1    0.0000
     20 H8         3.4736    2.3323    2.4389 H         1 RES1    0.0000
     21 H9         4.9633    3.7294    3.6629 H         1 RES1    0.0000
     22 H10        5.6641    3.1521    5.7482 H         1 RES1    0.0000
@<TRIPOS>BOND
     1    1    2 ar
     2    2    3 ar
     3    3    4 ar
     4    4    5 ar
     5    5    6 ar
     6    6    1 ar
     7    7    9 1
     8    8    9 1
     9    9    1 1
    10   10    3 1
    11   11   10 2
    12   12   10 2
    13   13    7 1
    14   14    7 1
    15   15    7 1
    16   16    8 1
    17   17    8 1
    18   18    8 1
    19   19    2 1
    20   20    4 1
    21   21    5 1
    22   22    6 1
@<TRIPOS>SUBSTRUCTURE
     1 RES1 1

@<TRIPOS>CRYSIN
   7.7610   11.5460   10.4120  90.0000 119.4500  90.0000  14 1

