# MOL2 file generated by ConQuest
# Please check atom types

@<TRIPOS>MOLECULE
MNTRPH
    11    11     1
SMALL
NO_CHARGES
****
Generated from CSD

@<TRIPOS>ATOM
      1 C1         2.8574   -0.9614    0.4268 C.2       1 RES1    0.0000
      2 C2         1.7623   -1.7138    0.4481 C.2       1 RES1    0.0000
      3 C3         0.9753   -1.9760   -0.7469 C.2       1 RES1    0.0000
      4 C4         1.5399   -1.7480   -1.9526 C.2       1 RES1    0.0000
      5 C5         2.7034   -0.9880   -2.0593 C.2       1 RES1    0.0000
      6 C6         3.5076   -0.6346   -0.8323 C.2       1 RES1    0.0000
      7 C7         1.7452   -1.7290    2.8062 C.3       1 RES1    0.0000
      8 N1         3.2509   -0.7334   -3.1263 N.2       1 RES1    0.0000
      9 O1         2.5665   -1.0374   -4.2680 O.3       1 RES1    0.0000
     10 O2         4.5684   -0.0000   -0.8856 O.2       1 RES1    0.0000
     11 O3         1.0266   -1.9000    1.5472 O.3       1 RES1    0.0000
@<TRIPOS>BOND
     1    1    2 2
     2    2    3 1
     3    3    4 2
     4    4    5 1
     5    5    6 1
     6    6    1 1
     7    7   11 1
     8    8    5 2
     9    9    8 1
    10   10    6 2
    11   11    2 1
@<TRIPOS>SUBSTRUCTURE
     1 RES1 1

@<TRIPOS>CRYSIN
  17.1100    3.8000   10.6700  90.0000  90.0000  90.0000  19 1

