# MOL2 file generated by ConQuest
# Please check atom types

@<TRIPOS>MOLECULE
MOBGAM
   106   114     2
SMALL
NO_CHARGES
****
Generated from CSD

@<TRIPOS>ATOM
      1 O1         8.3224    6.0310   13.0737 O.2       1 RES1    0.0000
      2 O2        15.6940    8.5193    9.6631 O.2       2 RES2    0.0000
      3 N1         9.8015    2.6326    9.7341 N.ar      1 RES1    0.0000
      4 N2         9.4957    5.5895   12.7188 N.pl3     1 RES1    0.0000
      5 N3        13.8205   11.7322   12.9448 N.ar      2 RES2    0.0000
      6 N4        14.5112    9.0183    9.7991 N.pl3     2 RES2    0.0000
      7 C1         8.6360    2.9884   10.2892 C.ar      1 RES1    0.0000
      8 C2         8.4748    3.9418   11.2697 C.ar      1 RES1    0.0000
      9 C3         9.6095    4.5796   11.7493 C.ar      1 RES1    0.0000
     10 C4        10.8562    4.2271   11.2227 C.ar      1 RES1    0.0000
     11 C5        10.8735    3.2585   10.2359 C.ar      1 RES1    0.0000
     12 C6        10.6279    6.1340   13.4384 C.ar      1 RES1    0.0000
     13 C7        11.2733    5.2999   14.3660 C.ar      1 RES1    0.0000
     14 C8        12.3226    5.8455   15.1033 C.ar      1 RES1    0.0000
     15 C9        12.6800    7.1829   14.9825 C.ar      1 RES1    0.0000
     16 C10       11.9999    7.9824   14.0654 C.ar      1 RES1    0.0000
     17 C11       10.9766    7.4780   13.2608 C.ar      1 RES1    0.0000
     18 C12       10.8085    3.9071   14.6331 C.ar      1 RES1    0.0000
     19 C13        9.4909    3.6750   15.0122 C.ar      1 RES1    0.0000
     20 C14        9.0599    2.4015   15.3501 C.ar      1 RES1    0.0000
     21 C15        9.9551    1.3429   15.3200 C.ar      1 RES1    0.0000
     22 C16       11.2612    1.5620   14.9375 C.ar      1 RES1    0.0000
     23 C17       11.7005    2.8322   14.5977 C.ar      1 RES1    0.0000
     24 C18       13.7655    7.7448   15.8535 C.ar      1 RES1    0.0000
     25 C19       14.9348    7.0246   16.0828 C.ar      1 RES1    0.0000
     26 C20       15.9202    7.5105   16.9386 C.ar      1 RES1    0.0000
     27 C21       15.7287    8.7178   17.5839 C.ar      1 RES1    0.0000
     28 C22       14.5635    9.4294   17.3941 C.ar      1 RES1    0.0000
     29 C23       13.5831    8.9575   16.5214 C.ar      1 RES1    0.0000
     30 C24       10.3206    8.3631   12.2558 C.ar      1 RES1    0.0000
     31 C25       10.1602    7.9683   10.9215 C.ar      1 RES1    0.0000
     32 C26        9.6026    8.8393    9.9926 C.ar      1 RES1    0.0000
     33 C27        9.2075   10.1073   10.3718 C.ar      1 RES1    0.0000
     34 C28        9.3592   10.5130   11.6940 C.ar      1 RES1    0.0000
     35 C29        9.9078    9.6420   12.6198 C.ar      1 RES1    0.0000
     36 C30       14.9851   11.0988   12.7638 C.ar      2 RES2    0.0000
     37 C31       15.2701   10.2028   11.7552 C.ar      2 RES2    0.0000
     38 C32       14.2516    9.9229   10.8425 C.ar      2 RES2    0.0000
     39 C33       13.0215   10.5390   11.0039 C.ar      2 RES2    0.0000
     40 C34       12.8730   11.4339   12.0476 C.ar      2 RES2    0.0000
     41 C35       13.4826    8.5323    8.9126 C.ar      2 RES2    0.0000
     42 C36       13.1024    7.1981    8.9917 C.ar      2 RES2    0.0000
     43 C37       12.1035    6.7393    8.1203 C.ar      2 RES2    0.0000
     44 C38       11.4767    7.5930    7.2023 C.ar      2 RES2    0.0000
     45 C39       11.9034    8.9141    7.1333 C.ar      2 RES2    0.0000
     46 C40       12.9301    9.4023    7.9534 C.ar      2 RES2    0.0000
     47 C41       13.7423    6.2143    9.9404 C.ar      2 RES2    0.0000
     48 C42       13.9114    6.5083   11.2863 C.ar      2 RES2    0.0000
     49 C43       14.5262    5.5906   12.1208 C.ar      2 RES2    0.0000
     50 C44       14.9812    4.3833   11.6305 C.ar      2 RES2    0.0000
     51 C45       14.7940    4.0687   10.2954 C.ar      2 RES2    0.0000
     52 C46       14.1763    4.9897    9.4578 C.ar      2 RES2    0.0000
     53 C47       10.3692    7.0983    6.3267 C.ar      2 RES2    0.0000
     54 C48        9.5361    6.0624    6.7454 C.ar      2 RES2    0.0000
     55 C49        8.5302    5.5787    5.9222 C.ar      2 RES2    0.0000
     56 C50        8.3227    6.1536    4.6734 C.ar      2 RES2    0.0000
     57 C51        9.1177    7.2025    4.2510 C.ar      2 RES2    0.0000
     58 C52       10.1443    7.6646    5.0654 C.ar      2 RES2    0.0000
     59 C53       13.4363   10.7809    7.7426 C.ar      2 RES2    0.0000
     60 C54       14.8100   11.0011    7.5994 C.ar      2 RES2    0.0000
     61 C55       15.2913   12.2572    7.2608 C.ar      2 RES2    0.0000
     62 C56       14.4185   13.2996    7.0654 C.ar      2 RES2    0.0000
     63 C57       13.0488   13.1066    7.2244 C.ar      2 RES2    0.0000
     64 C58       12.5631   11.8472    7.5655 C.ar      2 RES2    0.0000
     65 H1         7.8548    2.5469    9.9789 H         1 RES1    0.0000
     66 H2         7.6142    4.1544   11.6082 H         1 RES1    0.0000
     67 H3        11.6567    4.6350   11.5317 H         1 RES1    0.0000
     68 H4        11.7214    3.0112    9.8850 H         1 RES1    0.0000
     69 H5        12.8043    5.2869   15.7011 H         1 RES1    0.0000
     70 H6        12.2396    8.8979   13.9866 H         1 RES1    0.0000
     71 H7         8.8751    4.3985   15.0349 H         1 RES1    0.0000
     72 H8         8.1582    2.2573   15.6093 H         1 RES1    0.0000
     73 H9         9.6673    0.4686   15.5547 H         1 RES1    0.0000
     74 H10       11.8700    0.8331   14.9105 H         1 RES1    0.0000
     75 H11       12.6018    2.9743   14.3339 H         1 RES1    0.0000
     76 H12       15.0600    6.1894   15.6487 H         1 RES1    0.0000
     77 H13       16.7211    7.0170   17.0683 H         1 RES1    0.0000
     78 H14       16.3982    9.0530   18.1690 H         1 RES1    0.0000
     79 H15       14.4282   10.2494   17.8545 H         1 RES1    0.0000
     80 H16       12.7911    9.4630   16.3825 H         1 RES1    0.0000
     81 H17       10.4336    7.1005   10.6494 H         1 RES1    0.0000
     82 H18        9.4904    8.5594    9.0922 H         1 RES1    0.0000
     83 H19        8.8334   10.7007    9.7299 H         1 RES1    0.0000
     84 H20        9.0836   11.3829   11.9576 H         1 RES1    0.0000
     85 H21       10.0076    9.9262   13.5214 H         1 RES1    0.0000
     86 H22       15.6765   11.2886   13.3860 H         2 RES2    0.0000
     87 H23       16.1198    9.7830   11.6912 H         2 RES2    0.0000
     88 H24       12.3028   10.3514   10.4135 H         2 RES2    0.0000
     89 H25       12.0334   11.8689   12.1389 H         2 RES2    0.0000
     90 H26       11.8485    5.8249    8.1487 H         2 RES2    0.0000
     91 H27       11.4868    9.5042    6.5150 H         2 RES2    0.0000
     92 H28       13.6086    7.3381   11.6366 H         2 RES2    0.0000
     93 H29       14.6399    5.7967   13.0409 H         2 RES2    0.0000
     94 H30       15.4168    3.7683   12.2088 H         2 RES2    0.0000
     95 H31       15.0884    3.2314    9.9549 H         2 RES2    0.0000
     96 H32       14.0456    4.7760    8.5418 H         2 RES2    0.0000
     97 H33        9.6588    5.6806    7.6070 H         2 RES2    0.0000
     98 H34        7.9858    4.8595    6.2180 H         2 RES2    0.0000
     99 H35        7.6343    5.8216    4.1082 H         2 RES2    0.0000
    100 H36        8.9635    7.6168    3.4093 H         2 RES2    0.0000
    101 H37       10.7038    8.3696    4.7612 H         2 RES2    0.0000
    102 H38       15.4167   10.2820    7.7315 H         2 RES2    0.0000
    103 H39       16.2283   12.3972    7.1702 H         2 RES2    0.0000
    104 H40       14.7470   14.1544    6.8142 H         2 RES2    0.0000
    105 H41       12.4493   13.8322    7.1025 H         2 RES2    0.0000
    106 H42       11.6282   11.7203    7.6791 H         2 RES2    0.0000
@<TRIPOS>BOND
     1    1    4 1
     2    2    6 1
     3    3    7 ar
     4    4    9 1
     5    5   36 ar
     6    6   38 1
     7    7    8 ar
     8    8    9 ar
     9    9   10 ar
    10   10   11 ar
    11   11    3 ar
    12   12    4 1
    13   13   12 ar
    14   14   13 ar
    15   15   14 ar
    16   16   15 ar
    17   17   12 ar
    18   18   13 1
    19   19   18 ar
    20   20   19 ar
    21   21   20 ar
    22   22   21 ar
    23   23   18 ar
    24   24   15 1
    25   25   24 ar
    26   26   25 ar
    27   27   26 ar
    28   28   27 ar
    29   29   24 ar
    30   30   17 1
    31   31   30 ar
    32   32   31 ar
    33   33   32 ar
    34   34   33 ar
    35   35   30 ar
    36   36   37 ar
    37   37   38 ar
    38   38   39 ar
    39   39   40 ar
    40   40    5 ar
    41   41    6 1
    42   42   41 ar
    43   43   42 ar
    44   44   43 ar
    45   45   44 ar
    46   46   41 ar
    47   47   42 1
    48   48   47 ar
    49   49   48 ar
    50   50   49 ar
    51   51   50 ar
    52   52   47 ar
    53   53   44 1
    54   54   53 ar
    55   55   54 ar
    56   56   55 ar
    57   57   56 ar
    58   58   53 ar
    59   59   46 1
    60   60   59 ar
    61   61   60 ar
    62   62   61 ar
    63   63   62 ar
    64   64   59 ar
    65   65    7 1
    66   66    8 1
    67   67   10 1
    68   68   11 1
    69   69   14 1
    70   70   16 1
    71   71   19 1
    72   72   20 1
    73   73   21 1
    74   74   22 1
    75   75   23 1
    76   76   25 1
    77   77   26 1
    78   78   27 1
    79   79   28 1
    80   80   29 1
    81   81   31 1
    82   82   32 1
    83   83   33 1
    84   84   34 1
    85   85   35 1
    86   86   36 1
    87   87   37 1
    88   88   39 1
    89   89   40 1
    90   90   43 1
    91   91   45 1
    92   92   48 1
    93   93   49 1
    94   94   50 1
    95   95   51 1
    96   96   52 1
    97   97   54 1
    98   98   55 1
    99   99   56 1
   100  100   57 1
   101  101   58 1
   102  102   60 1
   103  103   61 1
   104  104   62 1
   105  105   63 1
   106  106   64 1
   107   16   17 ar
   108   22   23 ar
   109   28   29 ar
   110   34   35 ar
   111   45   46 ar
   112   51   52 ar
   113   57   58 ar
   114   63   64 ar
@<TRIPOS>SUBSTRUCTURE
     1 RES1 1
     2 RES2 2

@<TRIPOS>CRYSIN
  18.2162   10.8471   22.0773  90.0000  98.4008  90.0000  14 1

