# MOL2 file generated by ConQuest
# Please check atom types

@<TRIPOS>MOLECULE
MOBMUN
    78    84     2
SMALL
NO_CHARGES
****
Generated from CSD

@<TRIPOS>ATOM
      1 C1         5.8414   11.9180    3.9283 C.ar      1 RES1    0.0000
      2 C2         6.0370    9.7572    4.5896 C.3       1 RES1    0.0000
      3 C3         5.6413   13.0795    3.2201 C.ar      1 RES1    0.0000
      4 H1         5.3830   13.0734    2.3260 H         1 RES1    0.0000
      5 C4         5.8482   14.2637    3.9215 C.ar      1 RES1    0.0000
      6 C5         7.2662    8.9477    4.2358 C.ar      1 RES1    0.0000
      7 C6         7.9059    9.0855    3.0117 C.ar      1 RES1    0.0000
      8 H2         7.5552    9.6538    2.3646 H         1 RES1    0.0000
      9 C7         9.0717    8.3728    2.7549 C.ar      1 RES1    0.0000
     10 H3         9.4998    8.4675    1.9350 H         1 RES1    0.0000
     11 C8         9.5966    7.5267    3.7108 C.ar      1 RES1    0.0000
     12 H4        10.3830    7.0613    3.5395 H         1 RES1    0.0000
     13 C9         8.9492    7.3743    4.9224 C.ar      1 RES1    0.0000
     14 H5         9.2961    6.7979    5.5644 H         1 RES1    0.0000
     15 C10        7.7845    8.0783    5.1855 C.ar      1 RES1    0.0000
     16 H6         7.3489    7.9668    5.9995 H         1 RES1    0.0000
     17 N1         5.7132   15.5040    3.1499 N.pl3     1 RES1    0.0000
     18 O1         5.6933   10.6438    3.4760 O.3       1 RES1    0.0000
     19 O2         4.7885   15.5638    2.3468 O.2       1 RES1    0.0000
     20 O3         6.5412   16.3851    3.3220 O.2       1 RES1    0.0000
     21 C11        4.0377    2.7257    2.5245 C.3       2 RES2    0.0000
     22 C12        4.2625    1.0775    4.0640 C.ar      2 RES2    0.0000
     23 C13        4.5227   -0.1006    4.7159 C.ar      2 RES2    0.0000
     24 H7         4.8513   -0.8489    4.2702 H         2 RES2    0.0000
     25 C14        4.2654   -0.1104    6.0840 C.ar      2 RES2    0.0000
     26 C15        3.7399    0.9991    6.7329 C.ar      2 RES2    0.0000
     27 C16        3.4649    2.1852    6.0553 C.ar      2 RES2    0.0000
     28 H8         3.1152    2.9299    6.4879 H         2 RES2    0.0000
     29 C17        3.7422    2.1861    4.7106 C.ar      2 RES2    0.0000
     30 C18        2.8817    2.7531    1.5592 C.ar      2 RES2    0.0000
     31 C19        2.3866    3.9884    1.1527 C.ar      2 RES2    0.0000
     32 H9         2.7807    4.7714    1.4632 H         2 RES2    0.0000
     33 C20        1.3108    4.0555    0.2886 C.ar      2 RES2    0.0000
     34 H10        0.9744    4.8824    0.0294 H         2 RES2    0.0000
     35 C21        0.7346    2.8985   -0.1915 C.ar      2 RES2    0.0000
     36 H11        0.0085    2.9451   -0.7711 H         2 RES2    0.0000
     37 C22        1.2353    1.6711    0.1882 C.ar      2 RES2    0.0000
     38 H12        0.8528    0.8925   -0.1469 H         2 RES2    0.0000
     39 C23        2.3068    1.5908    1.0668 C.ar      2 RES2    0.0000
     40 H13        2.6376    0.7597    1.3236 H         2 RES2    0.0000
     41 C24        5.2332    3.5418    2.0826 C.ar      2 RES2    0.0000
     42 C25        5.8605    3.2094    0.8823 C.ar      2 RES2    0.0000
     43 H14        5.5390    2.5011    0.3708 H         2 RES2    0.0000
     44 C26        6.9601    3.9292    0.4503 C.ar      2 RES2    0.0000
     45 H15        7.3716    3.7091   -0.3543 H         2 RES2    0.0000
     46 C27        7.4485    4.9773    1.2153 C.ar      2 RES2    0.0000
     47 H16        8.1972    5.4505    0.9326 H         2 RES2    0.0000
     48 C28        6.8235    5.3162    2.3967 C.ar      2 RES2    0.0000
     49 H17        7.1480    6.0230    2.9061 H         2 RES2    0.0000
     50 C29        5.7130    4.6057    2.8287 C.ar      2 RES2    0.0000
     51 H18        5.2898    4.8454    3.6221 H         2 RES2    0.0000
     52 N2         4.5151   -1.3722    6.7889 N.pl3     2 RES2    0.0000
     53 N3         3.5241    1.0080    8.1844 N.pl3     2 RES2    0.0000
     54 O4         5.5538   -1.9662    6.5174 O.2       2 RES2    0.0000
     55 O5         3.6681   -1.7762    7.5651 O.2       2 RES2    0.0000
     56 O6         4.3847    0.5300    8.9018 O.2       2 RES2    0.0000
     57 O7         2.4922    1.5342    8.5892 O.2       2 RES2    0.0000
     58 O8         4.4684    1.3485    2.7494 O.3       2 RES2    0.0000
     59 O9         3.5654    3.2063    3.8292 O.3       2 RES2    0.0000
     60 C1A        6.2325   11.9180    5.2509 C.ar      1 RES1    0.0000
     61 C3A        6.4327   13.0795    5.9591 C.ar      1 RES1    0.0000
     62 H1A        6.6909   13.0734    6.8532 H         1 RES1    0.0000
     63 C4A        6.2258   14.2637    5.2577 C.ar      1 RES1    0.0000
     64 C5A        4.8078    8.9477    4.9434 C.ar      1 RES1    0.0000
     65 C6A        4.1681    9.0855    6.1675 C.ar      1 RES1    0.0000
     66 H2A        4.5188    9.6538    6.8146 H         1 RES1    0.0000
     67 C7A        3.0023    8.3728    6.4243 C.ar      1 RES1    0.0000
     68 H3A        2.5742    8.4675    7.2442 H         1 RES1    0.0000
     69 C8A        2.4774    7.5267    5.4684 C.ar      1 RES1    0.0000
     70 H4A        1.6909    7.0613    5.6397 H         1 RES1    0.0000
     71 C9A        3.1248    7.3743    4.2568 C.ar      1 RES1    0.0000
     72 H5A        2.7779    6.7979    3.6148 H         1 RES1    0.0000
     73 C10A       4.2894    8.0783    3.9937 C.ar      1 RES1    0.0000
     74 H6A        4.7250    7.9668    3.1797 H         1 RES1    0.0000
     75 N1A        6.3608   15.5040    6.0293 N.pl3     1 RES1    0.0000
     76 O1A        6.3807   10.6438    5.7032 O.3       1 RES1    0.0000
     77 O2A        7.2855   15.5638    6.8324 O.2       1 RES1    0.0000
     78 O3A        5.5328   16.3851    5.8572 O.2       1 RES1    0.0000
@<TRIPOS>BOND
     1    1    3 ar
     2    2    6 1
     3    3    4 1
     4    5    3 ar
     5    6    7 ar
     6    7    8 1
     7    9    7 ar
     8   10    9 1
     9   11    9 ar
    10   12   11 1
    11   13   11 ar
    12   14   13 1
    13   15    6 ar
    14   16   15 1
    15   17    5 1
    16   18    1 1
    17   19   17 2
    18   20   17 2
    19   21   30 1
    20   22   23 ar
    21   23   24 1
    22   25   23 ar
    23   26   25 ar
    24   27   26 ar
    25   28   27 1
    26   29   22 ar
    27   30   31 ar
    28   31   32 1
    29   33   31 ar
    30   34   33 1
    31   35   33 ar
    32   36   35 1
    33   37   35 ar
    34   38   37 1
    35   39   30 ar
    36   40   39 1
    37   41   21 1
    38   42   41 ar
    39   43   42 1
    40   44   42 ar
    41   45   44 1
    42   46   44 ar
    43   47   46 1
    44   48   46 ar
    45   49   48 1
    46   50   41 ar
    47   51   50 1
    48   52   25 1
    49   53   26 1
    50   54   52 2
    51   55   52 2
    52   56   53 2
    53   57   53 2
    54   58   21 1
    55   59   21 1
    56   60    1 ar
    57   61   60 ar
    58   62   61 1
    59   63    5 ar
    60   64    2 1
    61   65   64 ar
    62   66   65 1
    63   67   65 ar
    64   68   67 1
    65   69   67 ar
    66   70   69 1
    67   71   69 ar
    68   72   71 1
    69   73   64 ar
    70   74   73 1
    71   75   63 1
    72   76    2 1
    73   77   75 2
    74   78   75 2
    75    2   18 1
    76   13   15 ar
    77   22   58 1
    78   27   29 ar
    79   29   59 1
    80   37   39 ar
    81   48   50 ar
    82   60   76 1
    83   61   63 ar
    84   71   73 ar
@<TRIPOS>SUBSTRUCTURE
     1 RES1 1
     2 RES2 21

@<TRIPOS>CRYSIN
  12.2483   21.7673   18.3617  90.0000  91.0880  90.0000  15 1

