# MOL2 file generated by ConQuest
# Please check atom types

@<TRIPOS>MOLECULE
MOBNIA
    67    71     1
SMALL
NO_CHARGES
****
Generated from CSD

@<TRIPOS>ATOM
      1 C1         9.1096    0.5566   11.3304 C.2       1 RES1    0.0000
      2 C2        10.1473   -0.5056   11.1667 C.3       1 RES1    0.0000
      3 H1        11.0424   -0.0836   11.1273 H         1 RES1    0.0000
      4 H2         9.9969   -0.9806   10.3105 H         1 RES1    0.0000
      5 C3        10.1172   -1.4964   12.2957 C.3       1 RES1    0.0000
      6 H3        10.7667   -2.2208   12.1169 H         1 RES1    0.0000
      7 H4        10.3802   -1.0465   13.1367 H         1 RES1    0.0000
      8 C4         8.7434   -2.0835   12.4487 C.3       1 RES1    0.0000
      9 H5         8.7432   -2.7107   13.2155 H         1 RES1    0.0000
     10 H6         8.5174   -2.5979   11.6350 H         1 RES1    0.0000
     11 C5         7.6797   -1.0200   12.6775 C.3       1 RES1    0.0000
     12 H7         6.7947   -1.4855   12.6412 H         1 RES1    0.0000
     13 C6         7.7696   -0.3534   14.0383 C.3       1 RES1    0.0000
     14 H8         7.9516   -1.0343   14.7339 H         1 RES1    0.0000
     15 H9         8.5116    0.3017   14.0444 H         1 RES1    0.0000
     16 C7         6.4670    0.3473   14.3399 C.2       1 RES1    0.0000
     17 C8         5.7690    0.9826   13.1579 C.3       1 RES1    0.0000
     18 H10        5.4256    1.8660   13.4777 H         1 RES1    0.0000
     19 C9         6.7566    1.2939   12.0077 C.3       1 RES1    0.0000
     20 H11        7.3949    1.9639   12.3866 H         1 RES1    0.0000
     21 C10        7.6562    0.0761   11.5683 C.3       1 RES1    0.0000
     22 C11        6.0105    2.0400   10.8909 C.3       1 RES1    0.0000
     23 H12        6.6132    2.1161   10.1090 H         1 RES1    0.0000
     24 H13        5.8151    2.9581   11.2061 H         1 RES1    0.0000
     25 C12        4.6805    1.3876   10.4257 C.3       1 RES1    0.0000
     26 H14        4.2082    2.0006    9.8090 H         1 RES1    0.0000
     27 H15        4.8767    0.5491    9.9362 H         1 RES1    0.0000
     28 C13        3.7969    1.0846   11.6138 C.3       1 RES1    0.0000
     29 C14        4.5626    0.2243   12.6321 C.3       1 RES1    0.0000
     30 H16        4.9168   -0.5654   12.1305 H         1 RES1    0.0000
     31 C15        3.5000   -0.3058   13.5837 C.3       1 RES1    0.0000
     32 H17        3.3055    0.3506   14.2990 H         1 RES1    0.0000
     33 H18        3.7871   -1.1573   13.9974 H         1 RES1    0.0000
     34 C16        2.2721   -0.5185   12.6791 C.3       1 RES1    0.0000
     35 H19        1.4771   -0.0612   13.0533 H         1 RES1    0.0000
     36 H20        2.0694   -1.4828   12.5851 H         1 RES1    0.0000
     37 C17        2.6671    0.0985   11.3092 C.3       1 RES1    0.0000
     38 H21        3.0106   -0.6231   10.7091 H         1 RES1    0.0000
     39 C18        3.2231    2.3628   12.2108 C.3       1 RES1    0.0000
     40 H22        3.9511    2.9132   12.5669 H         1 RES1    0.0000
     41 H23        2.6018    2.1351   12.9351 H         1 RES1    0.0000
     42 H24        2.7457    2.8629   11.5168 H         1 RES1    0.0000
     43 C19        7.1734   -0.5674   10.2711 C.2       1 RES1    0.0000
     44 C20        7.2750   -0.4383    7.8981 C.3       1 RES1    0.0000
     45 H25        7.6216    0.1543    7.1995 H         1 RES1    0.0000
     46 H26        6.2971   -0.4675    7.8450 H         1 RES1    0.0000
     47 H27        7.6357   -1.3401    7.7723 H         1 RES1    0.0000
     48 C21        0.6444    0.0299   10.0575 C.2       1 RES1    0.0000
     49 C22       -0.4487    0.8671    9.4847 C.ar      1 RES1    0.0000
     50 C23       -1.3431    0.2623    8.6330 C.ar      1 RES1    0.0000
     51 H28       -1.2333   -0.6496    8.3891 H         1 RES1    0.0000
     52 C24       -2.4156    1.0044    8.1314 C.ar      1 RES1    0.0000
     53 H29       -3.0517    0.6014    7.5526 H         1 RES1    0.0000
     54 C25       -2.5346    2.3193    8.4845 C.ar      1 RES1    0.0000
     55 C26       -1.6519    2.9404    9.3225 C.ar      1 RES1    0.0000
     56 H30       -1.7668    3.8530    9.5604 H         1 RES1    0.0000
     57 C27       -0.5764    2.2038    9.8211 C.ar      1 RES1    0.0000
     58 H31        0.0630    2.6169   10.3893 H         1 RES1    0.0000
     59 N1        -3.6575    3.0940    7.9481 N.pl3     1 RES1    0.0000
     60 O1         9.3935    1.7145   11.3349 O.2       1 RES1    0.0000
     61 O2         6.0123    0.4118   15.4613 O.2       1 RES1    0.0000
     62 O3         6.4419   -1.5168   10.1817 O.2       1 RES1    0.0000
     63 O4         7.6769    0.0686    9.2104 O.3       1 RES1    0.0000
     64 O5         1.5575    0.7713   10.6651 O.3       1 RES1    0.0000
     65 O6         0.6640   -1.1743    9.9832 O.2       1 RES1    0.0000
     66 O7        -3.6291    4.3083    8.0951 O.2       1 RES1    0.0000
     67 O8        -4.5153    2.5252    7.3389 O.2       1 RES1    0.0000
@<TRIPOS>BOND
     1    1    2 1
     2    2    3 1
     3    4    2 1
     4    5    2 1
     5    6    5 1
     6    7    5 1
     7    8    5 1
     8    9    8 1
     9   10    8 1
    10   11    8 1
    11   12   11 1
    12   13   11 1
    13   14   13 1
    14   15   13 1
    15   16   13 1
    16   17   16 1
    17   18   17 1
    18   19   17 1
    19   20   19 1
    20   21    1 1
    21   22   19 1
    22   23   22 1
    23   24   22 1
    24   25   22 1
    25   26   25 1
    26   27   25 1
    27   28   25 1
    28   29   17 1
    29   30   29 1
    30   31   29 1
    31   32   31 1
    32   33   31 1
    33   34   31 1
    34   35   34 1
    35   36   34 1
    36   37   28 1
    37   38   37 1
    38   39   28 1
    39   40   39 1
    40   41   39 1
    41   42   39 1
    42   43   21 1
    43   44   45 1
    44   46   44 1
    45   47   44 1
    46   48   49 1
    47   49   50 ar
    48   50   51 1
    49   52   50 ar
    50   53   52 1
    51   54   52 ar
    52   55   54 ar
    53   56   55 1
    54   57   49 ar
    55   58   57 1
    56   59   54 1
    57   60    1 2
    58   61   16 2
    59   62   43 2
    60   63   43 1
    61   64   37 1
    62   65   48 2
    63   66   59 2
    64   67   59 2
    65   11   21 1
    66   19   21 1
    67   28   29 1
    68   34   37 1
    69   44   63 1
    70   48   64 1
    71   55   57 ar
@<TRIPOS>SUBSTRUCTURE
     1 RES1 1

@<TRIPOS>CRYSIN
  13.7982    6.7955   15.1806  90.0000  93.4150  90.0000   4 1

