# MOL2 file generated by ConQuest
# Please check atom types

@<TRIPOS>MOLECULE
MOCJUK
    68    70     2
SMALL
NO_CHARGES
****
Generated from CSD

@<TRIPOS>ATOM
      1 O1         1.9782    0.1869    2.8617 O.2       1 RES1    0.0000
      2 O2         3.2144   -0.5877    1.2735 O.2       1 RES1    0.0000
      3 O3         4.0069   -2.6099    6.3404 O.2       1 RES1    0.0000
      4 N1         3.0495    0.0286    2.3003 N.pl3     1 RES1    0.0000
      5 O4         6.3522    2.7543    6.4482 O.2       1 RES1    0.0000
      6 O5         4.2499   -1.8177    4.3503 O.2       1 RES1    0.0000
      7 N2         5.5936    1.8349    6.1724 N.pl3     1 RES1    0.0000
      8 N3         3.8219   -1.7567    5.4917 N.pl3     1 RES1    0.0000
      9 O6         4.9872    1.1788    7.0020 O.2       1 RES1    0.0000
     10 O7         1.1515    3.5789    5.0820 O.2       1 RES1    0.0000
     11 C1         4.2557    0.9120    4.2754 C.ar      1 RES1    0.0000
     12 N4         2.1170    2.8718    4.8541 N.pl3     1 RES1    0.0000
     13 C2         1.2567    1.4068    6.5885 C.ar      1 RES1    0.0000
     14 H1         0.6254    2.0828    6.8467 H         1 RES1    0.0000
     15 C3         5.4290    1.5038    4.7409 C.ar      1 RES1    0.0000
     16 O8         8.3659    2.6310    2.1473 O.2       1 RES1    0.0000
     17 C4         3.1153    0.6081    5.2064 C.ar      1 RES1    0.0000
     18 C5         2.0942   -0.8384    6.8882 C.ar      1 RES1    0.0000
     19 H2         2.0384   -1.6772    7.3504 H         1 RES1    0.0000
     20 O9         0.4815   -0.9984    9.0641 O.2       1 RES1    0.0000
     21 O10        2.9749    3.1393    4.0586 O.2       1 RES1    0.0000
     22 N5         7.5109    1.8930    1.7057 N.pl3     1 RES1    0.0000
     23 C6         5.2803    0.9398    2.0564 C.ar      1 RES1    0.0000
     24 H3         5.2572    0.7279    1.1207 H         1 RES1    0.0000
     25 C7         6.3838    1.5482    2.5952 C.ar      1 RES1    0.0000
     26 O11       -0.4949    0.8669    8.5795 O.2       1 RES1    0.0000
     27 C8         6.4843    1.8647    3.9215 C.ar      1 RES1    0.0000
     28 H4         7.2440    2.3173    4.2961 H         1 RES1    0.0000
     29 C9         4.2326    0.6547    2.9124 C.ar      1 RES1    0.0000
     30 C10        1.2649    0.1963    7.2436 C.ar      1 RES1    0.0000
     31 N6         0.3537    0.0082    8.3866 N.pl3     1 RES1    0.0000
     32 C11        2.1764    1.5837    5.5778 C.ar      1 RES1    0.0000
     33 O12        7.5124    1.4167    0.5962 O.2       1 RES1    0.0000
     34 C12        2.9866   -0.6088    5.8647 C.ar      1 RES1    0.0000
     35 N7         8.7221   -6.5824    1.6180 N.pl3     2 RES2    0.0000
     36 O13       10.9051   -3.2879    1.9145 O.2       2 RES2    0.0000
     37 O14        9.1589   -2.2637    4.3902 O.2       2 RES2    0.0000
     38 N8         5.7638   -3.2947   -0.3826 N.pl3     2 RES2    0.0000
     39 C13       11.6444   -5.1209    4.7457 C.ar      2 RES2    0.0000
     40 H5        12.6026   -5.0798    4.6915 H         2 RES2    0.0000
     41 C14        6.7608   -3.6335    0.6472 C.ar      2 RES2    0.0000
     42 N9        11.4675   -4.1857    2.5203 N.pl3     2 RES2    0.0000
     43 O15        5.3467   -2.1501   -0.3826 O.2       2 RES2    0.0000
     44 C15        9.4236   -4.7747    3.7940 C.ar      2 RES2    0.0000
     45 N10        7.4601   -5.5514    5.0741 N.pl3     2 RES2    0.0000
     46 N11       11.8812   -5.9940    7.0189 N.pl3     2 RES2    0.0000
     47 O16        7.4803   -1.1037    3.7079 O.2       2 RES2    0.0000
     48 O17        8.9669   -7.0827    0.5452 O.2       2 RES2    0.0000
     49 O18       12.9972   -5.4992    7.0699 O.2       2 RES2    0.0000
     50 O19        5.3957   -4.1803   -1.1302 O.2       2 RES2    0.0000
     51 C16        9.6827   -5.7778    6.0050 C.ar      2 RES2    0.0000
     52 H6         9.3247   -6.1812    6.7989 H         2 RES2    0.0000
     53 C17       11.0441   -5.6080    5.8791 C.ar      2 RES2    0.0000
     54 O20       12.5390   -4.6677    2.2062 O.2       2 RES2    0.0000
     55 C18        8.5304   -4.3372    2.6622 C.ar      2 RES2    0.0000
     56 C19        8.1871   -5.2112    1.6387 C.ar      2 RES2    0.0000
     57 N12        8.2086   -2.0716    3.6362 N.pl3     2 RES2    0.0000
     58 C20        7.0646   -2.7137    1.6101 C.ar      2 RES2    0.0000
     59 H7         6.6678   -1.8408    1.5798 H         2 RES2    0.0000
     60 O21        6.7201   -4.7066    4.5974 O.2       2 RES2    0.0000
     61 C21       10.8134   -4.7112    3.7191 C.ar      2 RES2    0.0000
     62 O22        8.8350   -7.1546    2.6877 O.2       2 RES2    0.0000
     63 C22        7.3301   -4.8821    0.6169 C.ar      2 RES2    0.0000
     64 H8         7.1262   -5.4879   -0.0988 H         2 RES2    0.0000
     65 C23        7.9459   -3.0778    2.6032 C.ar      2 RES2    0.0000
     66 O23       11.4116   -6.7584    7.8366 O.2       2 RES2    0.0000
     67 C24        8.9094   -5.3376    4.9449 C.ar      2 RES2    0.0000
     68 O24        7.0956   -6.5570    5.6384 O.2       2 RES2    0.0000
@<TRIPOS>BOND
     1    1    4 2
     2    2    4 2
     3    3    8 2
     4    4   29 1
     5    5    7 2
     6    6    8 2
     7    7    9 2
     8    8   34 1
     9   10   12 2
    10   11   15 ar
    11   12   21 2
    12   13   14 1
    13   15    7 1
    14   16   22 2
    15   17   11 1
    16   18   19 1
    17   20   31 2
    18   22   25 1
    19   23   24 1
    20   25   23 ar
    21   26   31 2
    22   27   15 ar
    23   28   27 1
    24   29   11 ar
    25   30   13 ar
    26   31   30 1
    27   32   12 1
    28   33   22 2
    29   34   17 ar
    30   35   48 2
    31   36   42 2
    32   37   57 2
    33   38   41 1
    34   39   40 1
    35   41   58 ar
    36   42   54 2
    37   43   38 2
    38   44   55 1
    39   45   60 2
    40   46   49 2
    41   47   57 2
    42   50   38 2
    43   51   52 1
    44   53   39 ar
    45   55   56 ar
    46   56   35 1
    47   57   65 1
    48   58   59 1
    49   61   39 ar
    50   62   35 2
    51   63   41 ar
    52   64   63 1
    53   65   55 ar
    54   66   46 2
    55   67   44 ar
    56   68   45 2
    57   13   32 ar
    58   17   32 ar
    59   18   30 ar
    60   18   34 ar
    61   23   29 ar
    62   25   27 ar
    63   42   61 1
    64   44   61 ar
    65   45   67 1
    66   46   53 1
    67   51   53 ar
    68   51   67 ar
    69   56   63 ar
    70   58   65 ar
@<TRIPOS>SUBSTRUCTURE
     1 RES1 1
     2 RES2 35

@<TRIPOS>CRYSIN
   8.1860   12.1370   16.2040  98.7280  93.1010 104.6880   2 1

