# MOL2 file generated by ConQuest
# Please check atom types

@<TRIPOS>MOLECULE
MOCJUK01
    68    70     2
SMALL
NO_CHARGES
****
Generated from CSD

@<TRIPOS>ATOM
      1 C1         0.5617    9.8120    5.1161 C.ar      1 RES1    0.0000
      2 C2         0.5182    9.5541    3.7550 C.ar      1 RES1    0.0000
      3 C3        -0.6747    8.9651    3.3158 C.ar      1 RES1    0.0000
      4 C4        -1.7043    8.6415    4.1492 C.ar      1 RES1    0.0000
      5 H1        -2.4682    8.2233    3.8226 H         1 RES1    0.0000
      6 C5        -1.5854    8.9453    5.4765 C.ar      1 RES1    0.0000
      7 C6        -0.4684    9.5374    5.9897 C.ar      1 RES1    0.0000
      8 H2        -0.4039    9.7466    6.8939 H         1 RES1    0.0000
      9 C7         1.7754   11.0563    2.1349 C.ar      1 RES1    0.0000
     10 C8         1.6435    9.8396    2.8010 C.ar      1 RES1    0.0000
     11 C9         2.5682    8.8664    2.4310 C.ar      1 RES1    0.0000
     12 C10        3.4873    9.0249    1.4142 C.ar      1 RES1    0.0000
     13 H3         4.0825    8.3464    1.1873 H         1 RES1    0.0000
     14 C11        3.4865   10.2266    0.7529 C.ar      1 RES1    0.0000
     15 C12        2.6676   11.2483    1.1021 C.ar      1 RES1    0.0000
     16 H4         2.7071   12.0619    0.6548 H         1 RES1    0.0000
     17 N1         1.7663   10.4323    5.6953 N.pl3     1 RES1    0.0000
     18 N2        -0.8717    8.6289    1.8839 N.pl3     1 RES1    0.0000
     19 N3        -2.7018    8.6152    6.3855 N.pl3     1 RES1    0.0000
     20 N4         0.9274   12.1952    2.4905 N.pl3     1 RES1    0.0000
     21 N5         2.6275    7.5654    3.1485 N.pl3     1 RES1    0.0000
     22 N6         4.4049   10.4028   -0.3990 N.pl3     1 RES1    0.0000
     23 O1         1.6254   11.0855    6.7056 O.2       1 RES1    0.0000
     24 O2         2.8263   10.2447    5.1333 O.2       1 RES1    0.0000
     25 O3        -0.2759    9.2914    1.0406 O.2       1 RES1    0.0000
     26 O4        -1.6293    7.7185    1.6281 O.2       1 RES1    0.0000
     27 O5        -3.5886    7.9125    5.9607 O.2       1 RES1    0.0000
     28 O6        -2.6639    9.0700    7.5004 O.2       1 RES1    0.0000
     29 O7         0.7727   13.0654    1.6510 O.2       1 RES1    0.0000
     30 O8         0.4832   12.2653    3.6134 O.2       1 RES1    0.0000
     31 O9         1.7389    7.2744    3.8998 O.2       1 RES1    0.0000
     32 O10        3.6045    6.8806    2.9812 O.2       1 RES1    0.0000
     33 O11        5.2504    9.5425   -0.5856 O.2       1 RES1    0.0000
     34 O12        4.2615   11.4128   -1.0747 O.2       1 RES1    0.0000
     35 C13       -0.3871    3.9114    6.3453 C.ar      2 RES2    0.0000
     36 C14       -0.7392    3.0278    5.3253 C.ar      2 RES2    0.0000
     37 C15       -0.1670    1.7597    5.4073 C.ar      2 RES2    0.0000
     38 C16        0.7321    1.3999    6.3887 C.ar      2 RES2    0.0000
     39 H5         1.1175    0.5528    6.4080 H         2 RES2    0.0000
     40 C17        1.0351    2.3446    7.3395 C.ar      2 RES2    0.0000
     41 C18        0.4858    3.5899    7.3524 C.ar      2 RES2    0.0000
     42 H6         0.6943    4.2000    8.0217 H         2 RES2    0.0000
     43 C19       -3.0292    3.4060    4.2618 C.ar      2 RES2    0.0000
     44 C20       -1.6359    3.4545    4.1975 C.ar      2 RES2    0.0000
     45 C21       -1.1255    3.9960    3.0407 C.ar      2 RES2    0.0000
     46 C22       -1.8940    4.4362    1.9740 C.ar      2 RES2    0.0000
     47 H7        -1.5091    4.8135    1.2163 H         2 RES2    0.0000
     48 C23       -3.2451    4.2873    2.0947 C.ar      2 RES2    0.0000
     49 C24       -3.8470    3.7939    3.2322 C.ar      2 RES2    0.0000
     50 H8        -4.7719    3.7274    3.2981 H         2 RES2    0.0000
     51 N7        -0.9178    5.2748    6.3453 N.pl3     2 RES2    0.0000
     52 N8        -0.4484    0.7429    4.3776 N.pl3     2 RES2    0.0000
     53 N9         2.0522    1.9897    8.3627 N.pl3     2 RES2    0.0000
     54 N10       -3.6927    2.9032    5.4781 N.pl3     2 RES2    0.0000
     55 N11        0.3343    4.1889    2.8975 N.pl3     2 RES2    0.0000
     56 N12       -4.0951    4.6763    0.9508 N.pl3     2 RES2    0.0000
     57 O13       -1.1092    5.8033    7.3942 O.2       2 RES2    0.0000
     58 O14       -1.0449    5.8391    5.3011 O.2       2 RES2    0.0000
     59 O15       -1.3909    0.9335    3.6392 O.2       2 RES2    0.0000
     60 O16        0.2744   -0.2234    4.3165 O.2       2 RES2    0.0000
     61 O17        2.4744    0.8541    8.3660 O.2       2 RES2    0.0000
     62 O18        2.3846    2.8720    9.1253 O.2       2 RES2    0.0000
     63 O19       -4.7777    3.3130    5.7339 O.2       2 RES2    0.0000
     64 O20       -3.1241    2.0594    6.1361 O.2       2 RES2    0.0000
     65 O21        1.0757    3.3979    3.4011 O.2       2 RES2    0.0000
     66 O22        0.7024    5.1798    2.3087 O.2       2 RES2    0.0000
     67 O23       -3.6219    5.4607    0.1577 O.2       2 RES2    0.0000
     68 O24       -5.1861    4.1773    0.8768 O.2       2 RES2    0.0000
@<TRIPOS>BOND
     1    1    2 ar
     2    2    3 ar
     3    3    4 ar
     4    4    5 1
     5    6    4 ar
     6    7    1 ar
     7    8    7 1
     8    9   10 ar
     9   10    2 1
    10   11   10 ar
    11   12   11 ar
    12   13   12 1
    13   14   12 ar
    14   15    9 ar
    15   16   15 1
    16   17    1 1
    17   18    3 1
    18   19    6 1
    19   20    9 1
    20   21   11 1
    21   22   14 1
    22   23   17 2
    23   24   17 2
    24   25   18 2
    25   26   18 2
    26   27   19 2
    27   28   19 2
    28   29   20 2
    29   30   20 2
    30   31   21 2
    31   32   21 2
    32   33   22 2
    33   34   22 2
    34   35   36 ar
    35   36   37 ar
    36   37   38 ar
    37   38   39 1
    38   40   38 ar
    39   41   35 ar
    40   42   41 1
    41   43   44 ar
    42   44   36 1
    43   45   44 ar
    44   46   45 ar
    45   47   46 1
    46   48   46 ar
    47   49   43 ar
    48   50   49 1
    49   51   35 1
    50   52   37 1
    51   53   40 1
    52   54   43 1
    53   55   45 1
    54   56   48 1
    55   57   51 2
    56   58   51 2
    57   59   52 2
    58   60   52 2
    59   61   53 2
    60   62   53 2
    61   63   54 2
    62   64   54 2
    63   65   55 2
    64   66   55 2
    65   67   56 2
    66   68   56 2
    67    6    7 ar
    68   14   15 ar
    69   40   41 ar
    70   48   49 ar
@<TRIPOS>SUBSTRUCTURE
     1 RES1 1
     2 RES2 35

@<TRIPOS>CRYSIN
   8.2552   12.2204   16.3239  98.4130  92.6350 104.4240   2 1

