# MOL2 file generated by ConQuest
# Please check atom types

@<TRIPOS>MOLECULE
MOFHEU
   113   105     2
SMALL
NO_CHARGES
****
Generated from CSD

@<TRIPOS>ATOM
      1 C1        19.8258   17.9368   14.4496 C.3       1 RES1    0.0000
      2 H1        19.2492   17.4310   13.8553 H         1 RES1    0.0000
      3 H2        20.4504   18.4400   13.9059 H         1 RES1    0.0000
      4 C2        18.9711   18.9129   15.2866 C.3       1 RES1    0.0000
      5 H3        18.4299   18.4046   15.9112 H         1 RES1    0.0000
      6 H4        19.5603   19.4844   15.8050 H         1 RES1    0.0000
      7 C3        18.0531   19.7879   14.4293 C.3       1 RES1    0.0000
      8 H5        18.5917   20.4074   13.9135 H         1 RES1    0.0000
      9 H6        17.5676   19.2265   13.8047 H         1 RES1    0.0000
     10 C4        17.0694   20.5642   15.2790 C.ar      1 RES1    0.0000
     11 C5        17.1933   21.9272   15.4156 C.ar      1 RES1    0.0000
     12 H7        17.8280   22.3900   14.9174 H         1 RES1    0.0000
     13 C6        16.3740   22.6100   16.2981 C.ar      1 RES1    0.0000
     14 C7        15.4687   21.9475   17.1048 C.ar      1 RES1    0.0000
     15 H8        14.9579   22.4203   17.7193 H         1 RES1    0.0000
     16 C8        20.5819   16.9910   15.3296 C.ar      1 RES1    0.0000
     17 C9        16.0832   19.9168   16.0124 C.ar      1 RES1    0.0000
     18 C10       15.4484   18.1264   14.5684 C.3       1 RES1    0.0000
     19 H9        15.4813   18.8800   13.9590 H         1 RES1    0.0000
     20 H10       16.0579   17.4487   14.2371 H         1 RES1    0.0000
     21 C11       18.1214   15.5976   14.5962 Du        2 SUP2    0.0000
     22 H11       17.4993   16.3133   14.3889 Du        2 SUP2    0.0000
     23 H12       18.8977   15.7544   14.0374 Du        2 SUP2    0.0000
     24 C12       14.1233   17.5954   14.5785 C.2       1 RES1    0.0000
     25 C13       12.3405   16.9480   13.1396 C.3       1 RES1    0.0000
     26 H13       12.1281   17.4563   12.3405 H         1 RES1    0.0000
     27 H14       11.7235   17.2312   13.8351 H         1 RES1    0.0000
     28 C14       12.0877   15.4813   12.8514 C.3       1 RES1    0.0000
     29 H15       11.1647   15.3523   12.6288 H         1 RES1    0.0000
     30 H16       12.3077   14.9604   13.6252 H         1 RES1    0.0000
     31 H17       12.6364   15.2031   12.1130 H         1 RES1    0.0000
     32 C15       16.6420   12.4594   12.8539 Du        2 SUP2    0.0000
     33 H18       16.0427   11.8955   13.3672 Du        2 SUP2    0.0000
     34 H19       17.2287   11.9461   12.2748 Du        2 SUP2    0.0000
     35 C16       15.9947   13.7112   12.2116 Du        2 SUP2    0.0000
     36 H20       15.4029   13.4380   11.5060 Du        2 SUP2    0.0000
     37 H21       16.6825   14.2776   11.8550 Du        2 SUP2    0.0000
     38 H22       15.4990   14.1916   12.8792 Du        2 SUP2    0.0000
     39 N1        16.5004   24.0565   16.4220 N.pl3     1 RES1    0.0000
     40 O1        15.8869   18.5571   15.8728 O.3       1 RES1    0.0000
     41 O2        17.3906   24.6128   15.7772 O.2       1 RES1    0.0000
     42 O3        15.7671   24.6482   17.1958 O.2       1 RES1    0.0000
     43 O4        13.5923   17.2768   13.5291 O.3       1 RES1    0.0000
     44 O5        13.3672   17.4715   15.6482 O.2       1 RES1    0.0000
     45 O6        17.5423   13.4229   15.4257 Du        2 SUP2    0.0000
     46 C8A       15.3296   20.5819   16.9910 C.ar      1 RES1    0.0000
     47 C1A       14.4496   19.8258   17.9368 C.3       1 RES1    0.0000
     48 H1A       13.8553   19.2492   17.4310 H         1 RES1    0.0000
     49 H2A       13.9059   20.4504   18.4400 H         1 RES1    0.0000
     50 C2A       15.2866   18.9711   18.9129 C.3       1 RES1    0.0000
     51 H3A       15.9112   18.4299   18.4046 H         1 RES1    0.0000
     52 H4A       15.8050   19.5603   19.4844 H         1 RES1    0.0000
     53 C3A       14.4293   18.0531   19.7879 C.3       1 RES1    0.0000
     54 H5A       13.9135   18.5917   20.4074 H         1 RES1    0.0000
     55 H6A       13.8047   17.5676   19.2265 H         1 RES1    0.0000
     56 C4A       15.2790   17.0694   20.5642 C.ar      1 RES1    0.0000
     57 C5A       15.4156   17.1933   21.9272 C.ar      1 RES1    0.0000
     58 H7A       14.9174   17.8280   22.3900 H         1 RES1    0.0000
     59 C6A       16.2981   16.3740   22.6100 C.ar      1 RES1    0.0000
     60 C7A       17.1048   15.4687   21.9475 C.ar      1 RES1    0.0000
     61 H8A       17.7193   14.9579   22.4203 H         1 RES1    0.0000
     62 C8B       16.9910   15.3296   20.5819 C.ar      1 RES1    0.0000
     63 C1B       17.9368   14.4496   19.8258 C.3       1 RES1    0.0000
     64 H1B       17.4310   13.8553   19.2492 H         1 RES1    0.0000
     65 H2B       18.4400   13.9059   20.4504 H         1 RES1    0.0000
     66 C2B       18.9129   15.2866   18.9711 C.3       1 RES1    0.0000
     67 H3B       18.4046   15.9112   18.4299 H         1 RES1    0.0000
     68 H4B       19.4844   15.8050   19.5603 H         1 RES1    0.0000
     69 C3B       19.7879   14.4293   18.0531 C.3       1 RES1    0.0000
     70 H5B       20.4074   13.9135   18.5917 H         1 RES1    0.0000
     71 H6B       19.2265   13.8047   17.5676 H         1 RES1    0.0000
     72 C4B       20.5642   15.2790   17.0694 C.ar      1 RES1    0.0000
     73 C5B       21.9272   15.4156   17.1933 C.ar      1 RES1    0.0000
     74 H7B       22.3900   14.9174   17.8280 H         1 RES1    0.0000
     75 C6B       22.6100   16.2981   16.3740 C.ar      1 RES1    0.0000
     76 C7B       21.9475   17.1048   15.4687 C.ar      1 RES1    0.0000
     77 H8B       22.4203   17.7193   14.9579 H         1 RES1    0.0000
     78 C9B       19.9168   16.0124   16.0832 C.ar      1 RES1    0.0000
     79 O1B       18.5571   15.8728   15.8869 O.3       1 RES1    0.0000
     80 C10B      18.1264   14.5684   15.4484 C.3       1 RES1    0.0000
     81 H9B       18.8800   13.9590   15.4813 H         1 RES1    0.0000
     82 H10B      17.4487   14.2371   16.0579 H         1 RES1    0.0000
     83 C12B      17.5954   14.5785   14.1233 C.2       1 RES1    0.0000
     84 O4B       17.2768   13.5291   13.5923 O.3       1 RES1    0.0000
     85 C13B      16.9480   13.1396   12.3405 C.3       1 RES1    0.0000
     86 H13B      17.4563   12.3405   12.1281 H         1 RES1    0.0000
     87 H14B      17.2312   13.8351   11.7235 H         1 RES1    0.0000
     88 C14B      15.4813   12.8514   12.0877 C.3       1 RES1    0.0000
     89 H15B      15.3523   12.6288   11.1647 H         1 RES1    0.0000
     90 H16B      14.9604   13.6252   12.3077 H         1 RES1    0.0000
     91 H17B      15.2031   12.1130   12.6364 H         1 RES1    0.0000
     92 O5B       17.4715   15.6482   13.3672 O.2       1 RES1    0.0000
     93 N1B       24.0565   16.4220   16.5004 N.pl3     1 RES1    0.0000
     94 O2B       24.6128   15.7772   17.3906 O.2       1 RES1    0.0000
     95 O3B       24.6482   17.1958   15.7671 O.2       1 RES1    0.0000
     96 C9A       16.0124   16.0832   19.9168 C.ar      1 RES1    0.0000
     97 O1A       15.8728   15.8869   18.5571 O.3       1 RES1    0.0000
     98 C10A      14.5684   15.4484   18.1264 C.3       1 RES1    0.0000
     99 H9A       13.9590   15.4813   18.8800 H         1 RES1    0.0000
    100 H10A      14.2371   16.0579   17.4487 H         1 RES1    0.0000
    101 C12A      14.5785   14.1233   17.5954 C.2       1 RES1    0.0000
    102 O4A       13.5291   13.5923   17.2768 O.3       1 RES1    0.0000
    103 C13A      13.1396   12.3405   16.9480 C.3       1 RES1    0.0000
    104 H13A      12.3405   12.1281   17.4563 H         1 RES1    0.0000
    105 H14A      13.8351   11.7235   17.2312 H         1 RES1    0.0000
    106 C14A      12.8514   12.0877   15.4813 C.3       1 RES1    0.0000
    107 H15A      12.6288   11.1647   15.3523 H         1 RES1    0.0000
    108 H16A      13.6252   12.3077   14.9604 H         1 RES1    0.0000
    109 H17A      12.1130   12.6364   15.2031 H         1 RES1    0.0000
    110 O5A       15.6482   13.3672   17.4715 O.2       1 RES1    0.0000
    111 N1A       16.4220   16.5004   24.0565 N.pl3     1 RES1    0.0000
    112 O2A       15.7772   17.3906   24.6128 O.2       1 RES1    0.0000
    113 O3A       17.1958   15.7671   24.6482 O.2       1 RES1    0.0000
@<TRIPOS>BOND
     1    1    2 1
     2    3    1 1
     3    4    1 1
     4    5    4 1
     5    6    4 1
     6    7    4 1
     7    8    7 1
     8    9    7 1
     9   10    7 1
    10   11   10 ar
    11   12   11 1
    12   13   11 ar
    13   14   13 ar
    14   15   14 1
    15   16    1 1
    16   17   10 ar
    17   18   19 1
    18   20   18 1
    19   24   18 1
    20   25   26 1
    21   27   25 1
    22   28   25 1
    23   29   28 1
    24   30   28 1
    25   31   28 1
    26   39   13 1
    27   40   17 1
    28   41   39 2
    29   42   39 2
    30   43   24 1
    31   44   24 2
    32   46   14 ar
    33   47   46 1
    34   48   47 1
    35   49   47 1
    36   50   47 1
    37   51   50 1
    38   52   50 1
    39   53   50 1
    40   54   53 1
    41   55   53 1
    42   56   53 1
    43   57   56 ar
    44   58   57 1
    45   59   57 ar
    46   60   59 ar
    47   61   60 1
    48   62   60 ar
    49   63   62 1
    50   64   63 1
    51   65   63 1
    52   66   63 1
    53   67   66 1
    54   68   66 1
    55   69   66 1
    56   70   69 1
    57   71   69 1
    58   72   69 1
    59   73   72 ar
    60   74   73 1
    61   75   73 ar
    62   76   16 ar
    63   77   76 1
    64   78   16 ar
    65   79   78 1
    66   80   79 1
    67   81   80 1
    68   82   80 1
    69   83   80 1
    70   84   83 1
    71   85   84 1
    72   86   85 1
    73   87   85 1
    74   88   85 1
    75   89   88 1
    76   90   88 1
    77   91   88 1
    78   92   83 2
    79   93   75 1
    80   94   93 2
    81   95   93 2
    82   96   56 ar
    83   97   96 1
    84   98   97 1
    85   99   98 1
    86  100   98 1
    87  101   98 1
    88  102  101 1
    89  103  102 1
    90  104  103 1
    91  105  103 1
    92  106  103 1
    93  107  106 1
    94  108  106 1
    95  109  106 1
    96  110  101 2
    97  111   59 1
    98  112  111 2
    99  113  111 2
   100   17   46 ar
   101   18   40 1
   102   25   43 1
   103   62   96 ar
   104   72   78 ar
   105   75   76 ar
@<TRIPOS>SUBSTRUCTURE
     1 RES1 1
     2 SUP2 21

