# MOL2 file generated by ConQuest
# Please check atom types

@<TRIPOS>MOLECULE
MOFJIB
    72    74     1
SMALL
NO_CHARGES
****
Generated from CSD

@<TRIPOS>ATOM
      1 C1         3.0543    3.7569   -1.2104 C.ar      1 RES1    0.0000
      2 C2         2.6212    2.6493   -0.4697 C.ar      1 RES1    0.0000
      3 C3         1.6792    1.7706   -1.0209 C.ar      1 RES1    0.0000
      4 C4         1.1854    2.0105   -2.2626 C.ar      1 RES1    0.0000
      5 H1         0.5494    1.4133   -2.6407 H         1 RES1    0.0000
      6 C5         1.6148    3.1506   -3.0024 C.ar      1 RES1    0.0000
      7 H2         1.2822    3.2965   -3.8800 H         1 RES1    0.0000
      8 C6         2.4993    4.0316   -2.4583 C.ar      1 RES1    0.0000
      9 H3         2.7350    4.8235   -2.9249 H         1 RES1    0.0000
     10 O1         3.0940    2.3477    0.7806 O.3       1 RES1    0.0000
     11 H4         3.7905    2.7926    0.9309 H         1 RES1    0.0000
     12 O2         1.3332    0.7127   -0.2466 O.3       1 RES1    0.0000
     13 C7         0.3611   -0.1891   -0.7657 C.3       1 RES1    0.0000
     14 H5        -0.4760    0.2918   -0.9309 H         1 RES1    0.0000
     15 H6         0.2029   -0.9056   -0.1174 H         1 RES1    0.0000
     16 H7         0.6884   -0.5722   -1.6057 H         1 RES1    0.0000
     17 C8         4.0497    4.7034   -0.6662 C.2       1 RES1    0.0000
     18 H8         4.3112    5.4487   -1.1955 H         1 RES1    0.0000
     19 N1         4.5642    4.5568    0.4768 N.2       1 RES1    0.0000
     20 O3         5.5103    5.5673    0.7555 O.3       1 RES1    0.0000
     21 C9         6.0053    5.3601    2.1138 C.3       1 RES1    0.0000
     22 H9         6.4832    4.4939    2.1780 H         1 RES1    0.0000
     23 H10        5.2529    5.3540    2.7566 H         1 RES1    0.0000
     24 C10        6.9345    6.4896    2.4152 C.3       1 RES1    0.0000
     25 H11        7.3555    6.3354    3.2976 H         1 RES1    0.0000
     26 H12        7.6534    6.5097    1.7349 H         1 RES1    0.0000
     27 O4         6.2671    7.7548    2.4270 O.3       1 RES1    0.0000
     28 N2         5.4230    7.8071    3.5982 N.2       1 RES1    0.0000
     29 C11        4.7395    8.9158    3.5630 C.2       1 RES1    0.0000
     30 H13        4.8407    9.5220    2.8372 H         1 RES1    0.0000
     31 C12        3.8326    9.2121    4.6332 C.ar      1 RES1    0.0000
     32 C13        3.6765    8.4311    5.7676 C.ar      1 RES1    0.0000
     33 C14        2.8715    8.7763    6.8057 C.ar      1 RES1    0.0000
     34 C15        2.0831    9.8907    6.7431 C.ar      1 RES1    0.0000
     35 C16        2.1273   10.7031    5.6118 C.ar      1 RES1    0.0000
     36 H14        1.5578   11.4620    5.5492 H         1 RES1    0.0000
     37 C17        3.0365   10.3946    4.5385 C.ar      1 RES1    0.0000
     38 H15        3.1052   10.9657    3.7822 H         1 RES1    0.0000
     39 O5         4.3890    7.3175    5.9085 O.3       1 RES1    0.0000
     40 H16        4.8746    7.2069    5.2313 H         1 RES1    0.0000
     41 O6         2.7627    8.0492    7.9026 O.3       1 RES1    0.0000
     42 H17        3.2565    7.3736    7.8400 H         1 RES1    0.0000
     43 C18        1.1799   10.2116    7.8861 C.2       1 RES1    0.0000
     44 H18        1.1158    9.5940    8.6064 H         1 RES1    0.0000
     45 N3         0.5052   11.2604    7.9292 N.2       1 RES1    0.0000
     46 O7        -0.3222   11.2961    9.0495 O.3       1 RES1    0.0000
     47 C19       -0.9731   12.5612    9.1310 C.3       1 RES1    0.0000
     48 H19       -1.7015   12.5040    9.7995 H         1 RES1    0.0000
     49 H20       -1.3838   12.7693    8.2541 H         1 RES1    0.0000
     50 C20       -0.0332   13.7033    9.5177 C.3       1 RES1    0.0000
     51 H21        0.7068   13.7696    8.8640 H         1 RES1    0.0000
     52 H22       -0.5261   14.5615    9.5208 H         1 RES1    0.0000
     53 O8         0.4808   13.4361   10.8040 O.3       1 RES1    0.0000
     54 N4         1.4371   14.4512   11.0952 N.2       1 RES1    0.0000
     55 C21        1.9930   14.2273   12.2391 C.2       1 RES1    0.0000
     56 H23        1.7366   13.4703   12.7542 H         1 RES1    0.0000
     57 C22        3.0062   15.1310   12.7331 C.ar      1 RES1    0.0000
     58 C23        3.3828   16.2939   12.0606 C.ar      1 RES1    0.0000
     59 C24        4.3392   17.1703   12.6172 C.ar      1 RES1    0.0000
     60 C25        4.8717   16.9009   13.8792 C.ar      1 RES1    0.0000
     61 H24        5.4792   17.5132   14.2770 H         1 RES1    0.0000
     62 C26        4.5209   15.7528   14.5510 C.ar      1 RES1    0.0000
     63 H25        4.9226   15.5467   15.3863 H         1 RES1    0.0000
     64 C27        3.5830   14.9040   14.0022 C.ar      1 RES1    0.0000
     65 H26        3.3142   14.1371   14.4969 H         1 RES1    0.0000
     66 O9         2.8639   16.6300   10.8486 O.3       1 RES1    0.0000
     67 H27        2.3855   16.0014   10.5644 H         1 RES1    0.0000
     68 O10        4.6545   18.2547   11.8390 O.3       1 RES1    0.0000
     69 C28        5.6573   19.1611   12.3800 C.3       1 RES1    0.0000
     70 H28        5.3494   19.5101   13.2420 H         1 RES1    0.0000
     71 H29        5.7963   19.9041   11.7568 H         1 RES1    0.0000
     72 H30        6.5005   18.6765   12.5060 H         1 RES1    0.0000
@<TRIPOS>BOND
     1    1    2 ar
     2    2    3 ar
     3    3    4 ar
     4    4    5 1
     5    6    4 ar
     6    7    6 1
     7    8    1 ar
     8    9    8 1
     9   10    2 1
    10   11   10 1
    11   12    3 1
    12   13   12 1
    13   14   13 1
    14   15   13 1
    15   16   13 1
    16   17    1 1
    17   18   17 1
    18   19   17 2
    19   20   19 1
    20   21   20 1
    21   22   21 1
    22   23   21 1
    23   24   21 1
    24   25   24 1
    25   26   24 1
    26   27   24 1
    27   28   27 1
    28   29   28 2
    29   30   29 1
    30   31   29 1
    31   32   31 ar
    32   33   32 ar
    33   34   33 ar
    34   35   34 ar
    35   36   35 1
    36   37   31 ar
    37   38   37 1
    38   39   32 1
    39   40   39 1
    40   41   33 1
    41   42   41 1
    42   43   34 1
    43   44   43 1
    44   45   43 2
    45   46   45 1
    46   47   46 1
    47   48   47 1
    48   49   47 1
    49   50   47 1
    50   51   50 1
    51   52   50 1
    52   53   50 1
    53   54   53 1
    54   55   54 2
    55   56   55 1
    56   57   55 1
    57   58   57 ar
    58   59   58 ar
    59   60   59 ar
    60   61   60 1
    61   62   60 ar
    62   63   62 1
    63   64   57 ar
    64   65   64 1
    65   66   58 1
    66   67   66 1
    67   68   59 1
    68   69   68 1
    69   70   69 1
    70   71   69 1
    71   72   69 1
    72    6    8 ar
    73   35   37 ar
    74   62   64 ar
@<TRIPOS>SUBSTRUCTURE
     1 RES1 1

