# MOL2 file generated by ConQuest
# Please check atom types

@<TRIPOS>MOLECULE
MOGJAV
   418   416     9
SMALL
NO_CHARGES
****
Generated from CSD

@<TRIPOS>ATOM
      1 C1         7.3380    4.7370    3.8157 C.3       1 RES1    0.0000
      2 H1         7.9249    4.1783    3.2654 H         1 RES1    0.0000
      3 H2         7.6786    5.6568    3.8273 H         1 RES1    0.0000
      4 H3         6.4323    4.7274    3.4405 H         1 RES1    0.0000
      5 C2         6.7517    2.7632    5.1913 C.3       1 RES1    0.0000
      6 H4         5.8211    2.7812    4.8859 H         1 RES1    0.0000
      7 H5         6.7937    2.3692    6.0870 H         1 RES1    0.0000
      8 H6         7.2872    2.2248    4.5724 H         1 RES1    0.0000
      9 C3         7.3036    4.1934    5.2348 C.3       1 RES1    0.0000
     10 C4         8.7217    4.1969    5.8356 C.3       1 RES1    0.0000
     11 H7         9.2533    3.4862    5.3989 H         1 RES1    0.0000
     12 H8         9.1524    5.0631    5.6290 H         1 RES1    0.0000
     13 C5         8.7604    3.9806    7.3358 C.2       1 RES1    0.0000
     14 C6         7.6519    4.1002    8.0760 C.2       1 RES1    0.0000
     15 H9         7.7161    3.9038    9.0023 H         1 RES1    0.0000
     16 C7         6.3199    4.5234    7.5420 C.3       1 RES1    0.0000
     17 H10        5.9430    5.2243    8.1289 H         1 RES1    0.0000
     18 H11        5.7024    3.7502    7.5589 H         1 RES1    0.0000
     19 C8         6.4110    5.0586    6.1188 C.3       1 RES1    0.0000
     20 H12        6.7708    5.9799    6.1400 H         1 RES1    0.0000
     21 H13        5.5024    5.0949    5.7267 H         1 RES1    0.0000
     22 C9        10.0650    3.7143    7.9650 C.2       1 RES1    0.0000
     23 C10       10.1693    3.4152    9.4455 C.3       1 RES1    0.0000
     24 H14        9.3683    3.7670    9.9102 H         1 RES1    0.0000
     25 H15       10.9639    3.8724    9.8186 H         1 RES1    0.0000
     26 C11       10.2830    1.9132    9.6940 C.3       1 RES1    0.0000
     27 H16        9.5047    1.4654    9.2771 H         1 RES1    0.0000
     28 H17       11.0980    1.5791    9.2405 H         1 RES1    0.0000
     29 C12       10.3455    1.5174   11.1362 C.2       1 RES1    0.0000
     30 H18       10.3979    0.5872   11.3190 H         1 RES1    0.0000
     31 C13       10.3351    2.3181   12.1736 C.2       1 RES1    0.0000
     32 H19       10.2835    3.2579   12.0478 H         1 RES1    0.0000
     33 H20       10.3792    1.9576   13.0515 H         1 RES1    0.0000
     34 C14       13.4656    3.7556    7.1080 C.ar      1 RES1    0.0000
     35 C15       14.7453    3.5918    7.7006 C.ar      1 RES1    0.0000
     36 C16       15.9096    3.8733    6.9952 C.ar      1 RES1    0.0000
     37 H21       16.7589    3.7666    7.4083 H         1 RES1    0.0000
     38 C17       15.8208    4.3053    5.7012 C.ar      1 RES1    0.0000
     39 C18       14.5866    4.4321    5.0587 C.ar      1 RES1    0.0000
     40 H22       14.5452    4.7040    4.1489 H         1 RES1    0.0000
     41 C19       13.4395    4.1619    5.7509 C.ar      1 RES1    0.0000
     42 H23       12.6019    4.2482    5.3094 H         1 RES1    0.0000
     43 N1        11.0967    3.7597    7.1800 N.2       1 RES1    0.0000
     44 N2        12.3162    3.5458    7.7859 N.pl3     1 RES1    0.0000
     45 H24       12.3733    3.3179    8.5829 H         1 RES1    0.0000
     46 N3        14.9230    3.1349    9.0609 N.pl3     1 RES1    0.0000
     47 N4        17.0525    4.6253    4.9926 N.pl3     1 RES1    0.0000
     48 O1        13.9276    3.0101    9.7946 O.2       1 RES1    0.0000
     49 O2        16.0605    2.8803    9.4536 O.2       1 RES1    0.0000
     50 O3        18.1204    4.4812    5.5921 O.2       1 RES1    0.0000
     51 O4        16.9655    5.0245    3.8322 O.2       1 RES1    0.0000
     52 N5        20.3157   11.8530    6.3501 N.pl3     2 RES2    0.0000
     53 C20       13.0084    9.9520   11.7359 C.3       2 RES2    0.0000
     54 H25       13.7023   10.3805   12.2799 H         2 RES2    0.0000
     55 H26       13.2479    9.0150   11.5776 H         2 RES2    0.0000
     56 H27       12.1500    9.9938   12.2087 H         2 RES2    0.0000
     57 C21       12.4766   12.1318   10.6468 C.3       2 RES2    0.0000
     58 H28       11.5945   12.1539   11.0727 H         2 RES2    0.0000
     59 H29       12.4389   12.6094    9.7922 H         2 RES2    0.0000
     60 H30       13.1323   12.5640   11.2335 H         2 RES2    0.0000
     61 C22       12.8892   10.6788   10.4013 C.3       2 RES2    0.0000
     62 C23       14.2494   10.6260    9.6824 C.3       2 RES2    0.0000
     63 H31       14.8765   11.2355   10.1444 H         2 RES2    0.0000
     64 H32       14.6124    9.7080    9.7576 H         2 RES2    0.0000
     65 C24       14.1908   11.0070    8.2191 C.2       2 RES2    0.0000
     66 C25       13.0410   10.9669    7.5365 C.2       2 RES2    0.0000
     67 H33       13.0624   11.1907    6.6143 H         2 RES2    0.0000
     68 C26       11.7216   10.5901    8.1391 C.3       2 RES2    0.0000
     69 H34       11.2703    9.9402    7.5426 H         2 RES2    0.0000
     70 H35       11.1513   11.3964    8.1920 H         2 RES2    0.0000
     71 C27       11.8450    9.9831    9.5234 C.3       2 RES2    0.0000
     72 H36       12.0864    9.0273    9.4339 H         2 RES2    0.0000
     73 H37       10.9639   10.0306    9.9734 H         2 RES2    0.0000
     74 C28       15.4599   11.3703    7.5597 C.2       2 RES2    0.0000
     75 C29       15.4886   11.9914    6.1717 C.3       2 RES2    0.0000
     76 H38       16.1904   12.6888    6.1400 H         2 RES2    0.0000
     77 H39       14.6189   12.4274    5.9913 H         2 RES2    0.0000
     78 C30       15.7651   10.9470    5.0854 C.3       2 RES2    0.0000
     79 H40       16.5897   10.4515    5.3155 H         2 RES2    0.0000
     80 H41       15.0182   10.2990    5.0610 H         2 RES2    0.0000
     81 C31       15.9244   11.5662    3.7316 C.2       2 RES2    0.0000
     82 H42       15.1520   11.9571    3.3407 H         2 RES2    0.0000
     83 C32       17.0220   11.6165    3.0445 C.2       2 RES2    0.0000
     84 H43       17.8204   11.2395    3.3957 H         2 RES2    0.0000
     85 H44       17.0290   12.0327    2.1905 H         2 RES2    0.0000
     86 C33       18.8885   11.1636    8.2916 C.ar      2 RES2    0.0000
     87 C34       20.1666   11.3731    7.7075 C.ar      2 RES2    0.0000
     88 C35       21.3390   11.1274    8.4119 C.ar      2 RES2    0.0000
     89 H45       22.1853   11.2689    8.0047 H         2 RES2    0.0000
     90 C36       21.2540   10.6780    9.7018 C.ar      2 RES2    0.0000
     91 C37       20.0148   10.4715   10.3231 C.ar      2 RES2    0.0000
     92 H46       19.9784   10.1634   11.2213 H         2 RES2    0.0000
     93 C38       18.8668   10.7150    9.6385 C.ar      2 RES2    0.0000
     94 H47       18.0307   10.5817   10.0711 H         2 RES2    0.0000
     95 N6        16.5286   11.1124    8.2474 N.2       2 RES2    0.0000
     96 N7        17.7328   11.3874    7.6320 N.pl3     2 RES2    0.0000
     97 H48       17.7808   11.6787    6.8118 H         2 RES2    0.0000
     98 N8        22.4687   10.4323   10.4579 N.pl3     2 RES2    0.0000
     99 O5        19.2979   12.1335    5.6896 O.2       2 RES2    0.0000
    100 O6        21.4464   11.9742    5.8841 O.2       2 RES2    0.0000
    101 O7        23.5569   10.6209    9.9184 O.2       2 RES2    0.0000
    102 O8        22.3516   10.0413   11.6262 O.2       2 RES2    0.0000
    103 C39       20.3020    8.7957    3.4531 C.3       3 RES3    0.0000
    104 H49       20.2127    9.7413    3.6950 H         3 RES3    0.0000
    105 H50       19.5699    8.5420    2.8521 H         3 RES3    0.0000
    106 H51       21.1591    8.6523    3.0008 H         3 RES3    0.0000
    107 C40       20.4246    6.4668    4.3544 C.3       3 RES3    0.0000
    108 H52       21.3083    6.3360    3.9515 H         3 RES3    0.0000
    109 H53       19.7316    6.2002    3.7133 H         3 RES3    0.0000
    110 H54       20.3491    5.9183    5.1628 H         3 RES3    0.0000
    111 C41       20.2441    7.9391    4.7171 C.3       3 RES3    0.0000
    112 C42       18.8730    8.1623    5.3847 C.3       3 RES3    0.0000
    113 H55       18.6240    9.1156    5.2829 H         3 RES3    0.0000
    114 H56       18.1961    7.6252    4.9022 H         3 RES3    0.0000
    115 C43       18.8127    7.8060    6.8494 C.2       3 RES3    0.0000
    116 C44       19.9191    7.5990    7.5697 C.2       3 RES3    0.0000
    117 H57       19.8170    7.3887    8.4913 H         3 RES3    0.0000
    118 C45       21.3079    7.6759    7.0180 C.3       3 RES3    0.0000
    119 H58       21.6695    6.7593    6.9217 H         3 RES3    0.0000
    120 H59       21.8847    8.1633    7.6587 H         3 RES3    0.0000
    121 C46       21.3590    8.3775    5.6681 C.3       3 RES3    0.0000
    122 H60       22.2339    8.1938    5.2442 H         3 RES3    0.0000
    123 H61       21.2925    9.3561    5.8122 H         3 RES3    0.0000
    124 C47       17.4764    7.6992    7.4669 C.2       3 RES3    0.0000
    125 C48       17.3174    7.7207    8.9732 C.3       3 RES3    0.0000
    126 H62       16.5359    8.2814    9.2059 H         3 RES3    0.0000
    127 H63       18.1215    8.1368    9.3769 H         3 RES3    0.0000
    128 C49       17.1250    6.3317    9.5690 C.3       3 RES3    0.0000
    129 H64       16.3205    5.9132    9.1733 H         3 RES3    0.0000
    130 H65       17.9059    5.7665    9.3443 H         3 RES3    0.0000
    131 C50       16.9699    6.4013   11.0715 C.2       3 RES3    0.0000
    132 H66       17.6475    6.8529   11.5613 H         3 RES3    0.0000
    133 C51       15.9777    5.8897   11.7504 C.2       3 RES3    0.0000
    134 H67       15.2788    5.4299   11.2987 H         3 RES3    0.0000
    135 H68       15.9547    5.9773   12.6952 H         3 RES3    0.0000
    136 C52       14.1211    7.4643    6.4797 C.ar      3 RES3    0.0000
    137 C53       12.8223    7.1905    6.9991 C.ar      3 RES3    0.0000
    138 C54       11.6849    7.2780    6.2020 C.ar      3 RES3    0.0000
    139 H69       10.8251    7.1031    6.5654 H         3 RES3    0.0000
    140 C55       11.8279    7.6203    4.8841 C.ar      3 RES3    0.0000
    141 C56       13.0897    7.8365    4.3155 C.ar      3 RES3    0.0000
    142 H70       13.1685    8.0426    3.3916 H         3 RES3    0.0000
    143 C57       14.2027    7.7490    5.0932 C.ar      3 RES3    0.0000
    144 H71       15.0563    7.8824    4.6966 H         3 RES3    0.0000
    145 N9        16.4712    7.6209    6.6546 N.2       3 RES3    0.0000
    146 N10       15.2319    7.4562    7.2395 N.pl3     3 RES3    0.0000
    147 H72       15.1385    7.2975    8.0821 H         3 RES3    0.0000
    148 N11       12.6211    6.7526    8.3622 N.pl3     3 RES3    0.0000
    149 N12       10.6465    7.7501    4.0504 N.pl3     3 RES3    0.0000
    150 O9        13.6036    6.6796    9.1263 O.2       3 RES3    0.0000
    151 O10       11.4870    6.4647    8.7289 O.2       3 RES3    0.0000
    152 O11        9.5383    7.5762    4.5524 O.2       3 RES3    0.0000
    153 O12       10.8099    8.0391    2.8621 O.2       3 RES3    0.0000
    154 C58       12.7828   17.8849    9.8457 C.3       4 RES4    0.0000
    155 H73       13.3529   17.4267    9.1916 H         4 RES4    0.0000
    156 H74       13.0433   18.8282    9.9021 H         4 RES4    0.0000
    157 H75       11.8454   17.8190    9.5642 H         4 RES4    0.0000
    158 C59       12.5227   15.7642   11.1222 C.3       4 RES4    0.0000
    159 H76       13.0012   15.3312   10.3846 H         4 RES4    0.0000
    160 H77       11.5581   15.7165   10.9566 H         4 RES4    0.0000
    161 H78       12.7340   15.3049   11.9623 H         4 RES4    0.0000
    162 C60       12.9507   17.2259   11.2197 C.3       4 RES4    0.0000
    163 C61       14.4218   17.3269   11.6441 C.3       4 RES4    0.0000
    164 H79       14.9565   16.6998   11.0930 H         4 RES4    0.0000
    165 H80       14.7455   18.2437   11.4575 H         4 RES4    0.0000
    166 C62       14.6588   17.0142   13.1083 C.2       4 RES4    0.0000
    167 C63       13.6477   17.0155   13.9867 C.2       4 RES4    0.0000
    168 H81       13.8433   16.7871   14.8878 H         4 RES4    0.0000
    169 C64       12.2282   17.3526   13.6417 C.3       4 RES4    0.0000
    170 H82       11.8750   17.9909   14.3096 H         4 RES4    0.0000
    171 H83       11.6795   16.5298   13.6887 H         4 RES4    0.0000
    172 C65       12.0928   17.9611   12.2526 C.3       4 RES4    0.0000
    173 H84       12.3651   18.9123   12.2860 H         4 RES4    0.0000
    174 H85       11.1433   17.9259   11.9725 H         4 RES4    0.0000
    175 C66       16.0431   16.7414   13.5399 C.2       4 RES4    0.0000
    176 C67       16.3832   16.4623   14.9816 C.3       4 RES4    0.0000
    177 H86       15.6809   16.8529   15.5616 H         4 RES4    0.0000
    178 H87       17.2404   16.9041   15.2033 H         4 RES4    0.0000
    179 C68       16.5016   14.9591   15.2807 C.3       4 RES4    0.0000
    180 H88       15.6333   14.5184   15.1015 H         4 RES4    0.0000
    181 H89       17.1805   14.5572   14.6842 H         4 RES4    0.0000
    182 C69       16.8926   14.7301   16.7076 C.2       4 RES4    0.0000
    183 H90       16.2792   14.9977   17.3816 H         4 RES4    0.0000
    184 C70       18.0218   14.1854   17.0905 C.2       4 RES4    0.0000
    185 H91       18.6584   13.9060   16.4431 H         4 RES4    0.0000
    186 H92       18.2046   14.0704   18.0147 H         4 RES4    0.0000
    187 C71       19.2440   16.7369   12.1073 C.ar      4 RES4    0.0000
    188 C72       20.6068   16.5028   12.4251 C.ar      4 RES4    0.0000
    189 C73       21.6255   16.7741   11.5187 C.ar      4 RES4    0.0000
    190 H93       22.5325   16.6106   11.7465 H         4 RES4    0.0000
    191 C74       21.2937   17.2823   10.2867 C.ar      4 RES4    0.0000
    192 C75       19.9676   17.5275    9.9341 C.ar      4 RES4    0.0000
    193 H94       19.7614   17.8776    9.0756 H         4 RES4    0.0000
    194 C76       18.9662   17.2643   10.8213 C.ar      4 RES4    0.0000
    195 H95       18.0663   17.4392   10.5739 H         4 RES4    0.0000
    196 N13       16.9351   16.7731   12.5948 N.2       4 RES4    0.0000
    197 N14       18.2329   16.5159   12.9792 N.pl3     4 RES4    0.0000
    198 H96       18.4433   16.1830   13.7274 H         4 RES4    0.0000
    199 N15       21.0203   15.9857   13.7147 N.pl3     4 RES4    0.0000
    200 N16       22.3589   17.5940    9.3380 N.pl3     4 RES4    0.0000
    201 O13       20.1517   15.6267   14.5232 O.2       4 RES4    0.0000
    202 O14       22.2179   15.9074   13.9747 O.2       4 RES4    0.0000
    203 O15       23.5180   17.3948    9.6851 O.2       4 RES4    0.0000
    204 O16       22.0356   18.0369    8.2370 O.2       4 RES4    0.0000
    205 C77       -0.1686   10.0471   12.9179 C.3       5 RES5    0.0000
    206 H97       -1.0423   10.3630   12.6077 H         5 RES5    0.0000
    207 H98        0.0571    9.2108   12.4611 H         5 RES5    0.0000
    208 H99        0.5127   10.7222   12.7176 H         5 RES5    0.0000
    209 C78       -0.5389   11.1347   15.1121 C.3       5 RES5    0.0000
    210 H100       0.1314   11.8041   14.8572 H         5 RES5    0.0000
    211 H101      -0.5243   11.0136   16.0848 H         5 RES5    0.0000
    212 H102      -1.4269   11.4396   14.8348 H         5 RES5    0.0000
    213 C79       -0.2205    9.8068   14.4277 C.3       5 RES5    0.0000
    214 C80        1.1366    9.2845   14.9138 C.3       5 RES5    0.0000
    215 H103       1.4606    8.6031   14.2730 H         5 RES5    0.0000
    216 H104       1.7853   10.0330   14.9081 H         5 RES5    0.0000
    217 C81        1.1131    8.6766   16.2967 C.2       5 RES5    0.0000
    218 C82       -0.0431    8.3305   16.8763 C.2       5 RES5    0.0000
    219 H105      -0.0073    7.9753   17.7562 H         5 RES5    0.0000
    220 C83       -1.3831    8.4652   16.2346 C.3       5 RES5    0.0000
    221 H106      -1.8803    9.2009   16.6711 H         5 RES5    0.0000
    222 H107      -1.8959    7.6287   16.3739 H         5 RES5    0.0000
    223 C84       -1.2814    8.7474   14.7432 C.3       5 RES5    0.0000
    224 H108      -2.1607    9.0564   14.4094 H         5 RES5    0.0000
    225 H109      -1.0554    7.9093   14.2689 H         5 RES5    0.0000
    226 C85        2.4035    8.4509   16.9765 C.2       5 RES5    0.0000
    227 C86        2.4625    7.8607   18.3557 C.3       5 RES5    0.0000
    228 H110       3.2897    7.3271   18.4667 H         5 RES5    0.0000
    229 H111       1.6830    7.2707   18.5115 H         5 RES5    0.0000
    230 C87        2.4486    9.0522   19.3635 C.3       5 RES5    0.0000
    231 H112       3.2114    9.6545   19.1772 H         5 RES5    0.0000
    232 H113       1.6128    9.5718   19.2545 H         5 RES5    0.0000
    233 C88        2.5440    8.5399   20.7686 C.2       5 RES5    0.0000
    234 H114       1.8342    7.9930   21.0868 H         5 RES5    0.0000
    235 C89        3.5188    8.7846   21.5772 C.2       5 RES5    0.0000
    236 H115       4.2460    9.3268   21.2944 H         5 RES5    0.0000
    237 H116       3.5110    8.4251   22.4568 H         5 RES5    0.0000
    238 C90        5.7829    8.9326   16.1467 C.ar      5 RES5    0.0000
    239 C91        7.1098    8.8383   16.6495 C.ar      5 RES5    0.0000
    240 C92        8.2048    9.1972   15.8668 C.ar      5 RES5    0.0000
    241 H117       9.0859    9.1374   16.2151 H         5 RES5    0.0000
    242 C93        7.9930    9.6345   14.5887 C.ar      5 RES5    0.0000
    243 C94        6.7121    9.6755   14.0311 C.ar      5 RES5    0.0000
    244 H118       6.5917    9.9461   13.1288 H         5 RES5    0.0000
    245 C95        5.6396    9.3251   14.7925 C.ar      5 RES5    0.0000
    246 H119       4.7717    9.3438   14.4053 H         5 RES5    0.0000
    247 N17        3.4445    8.8164   16.2949 N.2       5 RES5    0.0000
    248 N18        4.6811    8.6653   16.8865 N.pl3     5 RES5    0.0000
    249 H120       4.7640    8.3656   17.6809 H         5 RES5    0.0000
    250 N19        7.4020    8.3721   17.9889 N.pl3     5 RES5    0.0000
    251 N20        9.1200   10.0987   13.7939 N.pl3     5 RES5    0.0000
    252 O17        6.4545    8.1560   18.7635 O.2       5 RES5    0.0000
    253 O18        8.5734    8.1983   18.3195 O.2       5 RES5    0.0000
    254 O19       10.2497    9.8350   14.1866 O.2       5 RES5    0.0000
    255 O20        8.8832   10.7446   12.7740 O.2       5 RES5    0.0000
    256 H121       3.4241    7.6652   18.4830 Du        9 SUP9    0.0000
    257 H122       2.0296    6.9770   18.2468 Du        9 SUP9    0.0000
    258 C96        2.0038    8.3160   19.7411 Du        9 SUP9    0.0000
    259 H123       1.0833    8.6805   19.7167 Du        9 SUP9    0.0000
    260 H124       2.0442    7.5744   20.3966 Du        9 SUP9    0.0000
    261 C97        3.0165    9.3959   20.0628 Du        9 SUP9    0.0000
    262 H125       3.1715   10.0796   19.4235 Du        9 SUP9    0.0000
    263 C98        3.6777    9.4213   21.1723 Du        9 SUP9    0.0000
    264 H126       3.5360    8.7446   21.8258 Du        9 SUP9    0.0000
    265 H127       4.3046   10.1165   21.3372 Du        9 SUP9    0.0000
    266 C99       13.0894   13.0130   14.4674 C.3       6 RES6    0.0000
    267 H128      12.4607   12.6628   13.8007 H         6 RES6    0.0000
    268 H129      14.0016   12.7462   14.2282 H         6 RES6    0.0000
    269 H130      13.0310   13.9903   14.4908 H         6 RES6    0.0000
    270 C100      12.8968   10.9265   15.8214 C.3       6 RES6    0.0000
    271 H131      12.4228   10.5597   15.0466 H         6 RES6    0.0000
    272 H132      12.5207   10.5468   16.6426 H         6 RES6    0.0000
    273 H133      13.8481   10.6968   15.7611 H         6 RES6    0.0000
    274 C101      12.7383   12.4480   15.8430 C.3       6 RES6    0.0000
    275 C102      11.2802   12.8152   16.1622 C.3       6 RES6    0.0000
    276 H134      11.1276   13.7604   15.9077 H         6 RES6    0.0000
    277 H135      10.6828   12.2543   15.6064 H         6 RES6    0.0000
    278 C103      10.8971   12.6371   17.6192 C.2       6 RES6    0.0000
    279 C104      11.8309   12.5335   18.5754 C.2       6 RES6    0.0000
    280 H136      11.5396   12.4356   19.4744 H         6 RES6    0.0000
    281 C105      13.3023   12.5609   18.3128 C.3       6 RES6    0.0000
    282 H137      13.6674   11.6477   18.4321 H         6 RES6    0.0000
    283 H138      13.7376   13.1489   18.9797 H         6 RES6    0.0000
    284 C106      13.6502   13.0548   16.9138 C.3       6 RES6    0.0000
    285 H139      14.5906   12.8204   16.7118 H         6 RES6    0.0000
    286 H140      13.5692   14.0411   16.8890 H         6 RES6    0.0000
    287 C107       9.4546   12.5920   17.9337 C.2       6 RES6    0.0000
    288 C108       8.9562   12.6038   19.3549 C.3       6 RES6    0.0000
    289 H141       8.2188   13.2606   19.4215 H         6 RES6    0.0000
    290 H142       9.6896   12.9214   19.9406 H         6 RES6    0.0000
    291 C109       8.4533   11.2533   19.8948 C.3       6 RES6    0.0000
    292 H143       7.6852   10.9412   19.3543 H         6 RES6    0.0000
    293 H144       9.1743   10.5785   19.8307 H         6 RES6    0.0000
    294 C110       8.0334   11.4133   21.3302 C.2       6 RES6    0.0000
    295 H145       8.7191   11.4247   21.9886 H         6 RES6    0.0000
    296 C111       6.8076   11.5371   21.7402 C.2       6 RES6    0.0000
    297 H146       6.0948   11.5309   21.1132 H         6 RES6    0.0000
    298 H147       6.6245   11.6329   22.6665 H         6 RES6    0.0000
    299 C112       6.4467   12.5391   16.1243 C.ar      6 RES6    0.0000
    300 C113       5.0476   12.3397   16.2835 C.ar      6 RES6    0.0000
    301 C114       4.1770   12.4139   15.2039 C.ar      6 RES6    0.0000
    302 H148       3.2444   12.2802   15.3255 H         6 RES6    0.0000
    303 C115       4.6855   12.6822   13.9668 C.ar      6 RES6    0.0000
    304 C116       6.0511   12.8700   13.7518 C.ar      6 RES6    0.0000
    305 H149       6.3788   13.0480   12.8784 H         6 RES6    0.0000
    306 C117       6.9123   12.7946   14.8122 C.ar      6 RES6    0.0000
    307 H150       7.8428   12.9176   14.6659 H         6 RES6    0.0000
    308 N21        8.6699   12.5690   16.9030 N.2       6 RES6    0.0000
    309 N22        7.3182   12.5026   17.1603 N.pl3     6 RES6    0.0000
    310 H151       7.0024   12.3811   17.9394 H         6 RES6    0.0000
    311 N23        4.4467   12.0056   17.5585 N.pl3     6 RES6    0.0000
    312 N24        3.7645   12.7820   12.8471 N.pl3     6 RES6    0.0000
    313 O21        5.1932   11.8703   18.5508 O.2       6 RES6    0.0000
    314 O22        3.2329   11.8692   17.6281 O.2       6 RES6    0.0000
    315 O23        2.5804   12.5014   13.0309 O.2       6 RES6    0.0000
    316 O24        4.2172   13.1532   11.7632 O.2       6 RES6    0.0000
    317 C118       4.1654   14.5028   21.5304 C.3       7 RES7    0.0000
    318 H152       3.2636   14.6014   21.9011 H         7 RES7    0.0000
    319 H153       4.8276   14.7451   22.2105 H         7 RES7    0.0000
    320 H154       4.3048   13.5718   21.2578 H         7 RES7    0.0000
    321 C119       4.0074   16.8566   20.7317 C.3       7 RES7    0.0000
    322 H155       4.1102   17.4493   19.9589 H         7 RES7    0.0000
    323 H156       4.6239   17.1347   21.4410 H         7 RES7    0.0000
    324 H157       3.0860   16.9076   21.0623 H         7 RES7    0.0000
    325 C120       4.3207   15.4184   20.3176 C.3       7 RES7    0.0000
    326 C121       5.7672   15.3285   19.8095 C.3       7 RES7    0.0000
    327 H158       6.3582   15.8061   20.4455 H         7 RES7    0.0000
    328 H159       6.0424   14.3775   19.8001 H         7 RES7    0.0000
    329 C122       5.9757   15.9060   18.4284 C.2       7 RES7    0.0000
    330 C123       4.9452   16.0863   17.5901 C.2       7 RES7    0.0000
    331 H160       5.1306   16.4353   16.7261 H         7 RES7    0.0000
    332 C124       3.5223   15.7738   17.9307 C.3       7 RES7    0.0000
    333 H161       3.1161   15.2707   17.1821 H         7 RES7    0.0000
    334 H162       3.0228   16.6210   18.0290 H         7 RES7    0.0000
    335 C125       3.3745   14.9634   19.2059 C.3       7 RES7    0.0000
    336 H163       3.5508   14.0103   19.0041 H         7 RES7    0.0000
    337 H164       2.4413   15.0375   19.5273 H         7 RES7    0.0000
    338 C126       7.3583   16.2325   18.0272 C.2       7 RES7    0.0000
    339 C127       7.6590   16.9071   16.7118 C.3       7 RES7    0.0000
    340 H165       8.4138   17.5341   16.8381 H         7 RES7    0.0000
    341 H166       6.8699   17.4374   16.4350 H         7 RES7    0.0000
    342 C128       8.0137   15.9231   15.5944 C.3       7 RES7    0.0000
    343 H167       8.7023   15.2915   15.9219 H         7 RES7    0.0000
    344 H168       7.2085   15.3988   15.3519 H         7 RES7    0.0000
    345 C129       8.5289   16.6310   14.3745 C.2       7 RES7    0.0000
    346 H169       9.3153   17.1547   14.4725 H         7 RES7    0.0000
    347 C130       7.9836   16.5826   13.1966 C.2       7 RES7    0.0000
    348 H170       7.1969   16.0682   13.0576 H         7 RES7    0.0000
    349 H171       8.3715   17.0603   12.4733 H         7 RES7    0.0000
    350 C131      10.5742   15.9015   19.3891 C.ar      7 RES7    0.0000
    351 C132      11.9498   16.0345   19.0605 C.ar      7 RES7    0.0000
    352 C133      12.9503   15.8040   20.0009 C.ar      7 RES7    0.0000
    353 H172      13.8661   15.8927   19.7655 H         7 RES7    0.0000
    354 C134      12.5871   15.4483   21.2702 C.ar      7 RES7    0.0000
    355 C135      11.2432   15.3322   21.6456 C.ar      7 RES7    0.0000
    356 H173      11.0159   15.1001   22.5383 H         7 RES7    0.0000
    357 C136      10.2647   15.5528   20.7289 C.ar      7 RES7    0.0000
    358 H174       9.3549   15.4715   20.9911 H         7 RES7    0.0000
    359 N25        9.5800   16.1104   18.4991 N.pl3     7 RES7    0.0000
    360 H175       9.8128   16.3155   17.7236 H         7 RES7    0.0000
    361 N26       12.3879   16.4247   17.7383 N.pl3     7 RES7    0.0000
    362 N27       13.6135   15.1995   22.2626 N.pl3     7 RES7    0.0000
    363 O25       11.5333   16.6505   16.8619 O.2       7 RES7    0.0000
    364 O26       13.5921   16.5242   17.5186 O.2       7 RES7    0.0000
    365 O27       14.7927   15.2667   21.9339 O.2       7 RES7    0.0000
    366 O28       13.2473   14.9149   23.4047 O.2       7 RES7    0.0000
    367 N28        8.2722   15.8878   18.8734 N.2       7 RES7    0.0000
    368 C137      17.1126   18.0369   22.2453 C.3       8 RES8    0.0000
    369 H176      16.9367   18.9083   22.6543 H         8 RES8    0.0000
    370 H177      17.9793   17.6986   22.5546 H         8 RES8    0.0000
    371 H178      16.4055   17.4082   22.5016 H         8 RES8    0.0000
    372 C138      17.3865   16.8065   20.0972 C.3       8 RES8    0.0000
    373 H179      18.2659   16.4751   20.3742 H         8 RES8    0.0000
    374 H180      17.3597   16.8842   19.1202 H         8 RES8    0.0000
    375 H181      16.6941   16.1809   20.3946 H         8 RES8    0.0000
    376 C139      17.1363   18.1837   20.7270 C.3       8 RES8    0.0000
    377 C140      15.7867   18.7508   20.2462 C.3       8 RES8    0.0000
    378 H182      15.0917   18.0550   20.3498 H         8 RES8    0.0000
    379 H183      15.5365   19.5154   20.8241 H         8 RES8    0.0000
    380 C141      15.8082   19.2120   18.8034 C.2       8 RES8    0.0000
    381 C142      16.9658   19.4593   18.1762 C.2       8 RES8    0.0000
    382 H184      16.9278   19.7215   17.2635 H         8 RES8    0.0000
    383 C143      18.3124   19.3505   18.8138 C.3       8 RES8    0.0000
    384 H185      18.8353   20.1669   18.6092 H         8 RES8    0.0000
    385 H186      18.7923   18.5771   18.4260 H         8 RES8    0.0000
    386 C144      18.2307   19.1786   20.3272 C.3       8 RES8    0.0000
    387 H187      18.0429   20.0558   20.7468 H         8 RES8    0.0000
    388 H188      19.1028   18.8583   20.6674 H         8 RES8    0.0000
    389 C145      14.5189   19.4372   18.1263 C.2       8 RES8    0.0000
    390 C146      14.4571   19.7303   16.6440 C.3       8 RES8    0.0000
    391 H189      13.6734   19.2680   16.2517 H         8 RES8    0.0000
    392 H190      15.2713   19.3755   16.2070 H         8 RES8    0.0000
    393 C147      14.3490   21.2334   16.3635 C.3       8 RES8    0.0000
    394 H191      13.5709   21.5915   16.8605 H         8 RES8    0.0000
    395 H192      15.1607   21.6790   16.7159 H         8 RES8    0.0000
    396 C148      14.1971   21.5897   14.9187 C.2       8 RES8    0.0000
    397 H193      14.0669   22.5104   14.7208 H         8 RES8    0.0000
    398 C149      14.2255   20.7665   13.8953 C.2       8 RES8    0.0000
    399 H194      14.3544   19.8365   14.0368 H         8 RES8    0.0000
    400 H195      14.1171   21.1010   13.0128 H         8 RES8    0.0000
    401 C150      11.1002   19.5267   18.9056 C.ar      8 RES8    0.0000
    402 C151       9.8455   19.8033   18.2865 C.ar      8 RES8    0.0000
    403 C152       8.6499   19.6087   18.9636 C.ar      8 RES8    0.0000
    404 H196       7.8226   19.8099   18.5420 H         8 RES8    0.0000
    405 C153       8.6704   19.1251   20.2395 C.ar      8 RES8    0.0000
    406 C154       9.8797   18.8672   20.9017 C.ar      8 RES8    0.0000
    407 H197       9.8766   18.5459   21.7952 H         8 RES8    0.0000
    408 C155      11.0629   19.0810   20.2509 C.ar      8 RES8    0.0000
    409 H198      11.8797   18.9264   20.7101 H         8 RES8    0.0000
    410 N29       13.4675   19.3945   18.8910 N.2       8 RES8    0.0000
    411 N30       12.2700   19.6624   18.2497 N.pl3     8 RES8    0.0000
    412 H199      12.2622   19.9610   17.4366 H         8 RES8    0.0000
    413 N31        9.7412   20.2674   16.9195 N.pl3     8 RES8    0.0000
    414 N32        7.4011   18.8472   20.9021 N.pl3     8 RES8    0.0000
    415 O29       10.7760   20.4461   16.2572 O.2       8 RES8    0.0000
    416 O30        8.6223   20.4634   16.4447 O.2       8 RES8    0.0000
    417 O31        6.3689   19.2535   20.3728 O.2       8 RES8    0.0000
    418 O32        7.4310   18.2096   21.9518 O.2       8 RES8    0.0000
@<TRIPOS>BOND
     1    1    2 1
     2    3    1 1
     3    4    1 1
     4    5    6 1
     5    7    5 1
     6    8    5 1
     7    9    1 1
     8   10    9 1
     9   11   10 1
    10   12   10 1
    11   13   10 1
    12   14   13 2
    13   15   14 1
    14   16   14 1
    15   17   16 1
    16   18   16 1
    17   19    9 1
    18   20   19 1
    19   21   19 1
    20   22   13 1
    21   23   22 1
    22   24   23 1
    23   25   23 1
    24   26   23 1
    25   27   26 1
    26   28   26 1
    27   29   26 1
    28   30   29 1
    29   31   29 2
    30   32   31 1
    31   33   31 1
    32   34   35 ar
    33   35   36 ar
    34   36   37 1
    35   38   36 ar
    36   39   38 ar
    37   40   39 1
    38   41   34 ar
    39   42   41 1
    40   43   22 2
    41   44   34 1
    42   45   44 1
    43   46   35 1
    44   47   38 1
    45   48   46 2
    46   49   46 2
    47   50   47 2
    48   51   47 2
    49   52   87 1
    50   53   54 1
    51   55   53 1
    52   56   53 1
    53   57   58 1
    54   59   57 1
    55   60   57 1
    56   61   53 1
    57   62   61 1
    58   63   62 1
    59   64   62 1
    60   65   62 1
    61   66   65 2
    62   67   66 1
    63   68   66 1
    64   69   68 1
    65   70   68 1
    66   71   61 1
    67   72   71 1
    68   73   71 1
    69   74   65 1
    70   75   74 1
    71   76   75 1
    72   77   75 1
    73   78   75 1
    74   79   78 1
    75   80   78 1
    76   81   78 1
    77   82   81 1
    78   83   81 2
    79   84   83 1
    80   85   83 1
    81   86   87 ar
    82   87   88 ar
    83   88   89 1
    84   90   88 ar
    85   91   90 ar
    86   92   91 1
    87   93   86 ar
    88   94   93 1
    89   95   74 2
    90   96   86 1
    91   97   96 1
    92   98   90 1
    93   99   52 2
    94  100   52 2
    95  101   98 2
    96  102   98 2
    97  103  104 1
    98  105  103 1
    99  106  103 1
   100  107  108 1
   101  109  107 1
   102  110  107 1
   103  111  103 1
   104  112  111 1
   105  113  112 1
   106  114  112 1
   107  115  112 1
   108  116  115 2
   109  117  116 1
   110  118  116 1
   111  119  118 1
   112  120  118 1
   113  121  111 1
   114  122  121 1
   115  123  121 1
   116  124  115 1
   117  125  124 1
   118  126  125 1
   119  127  125 1
   120  128  125 1
   121  129  128 1
   122  130  128 1
   123  131  128 1
   124  132  131 1
   125  133  131 2
   126  134  133 1
   127  135  133 1
   128  136  137 ar
   129  137  138 ar
   130  138  139 1
   131  140  138 ar
   132  141  140 ar
   133  142  141 1
   134  143  136 ar
   135  144  143 1
   136  145  124 2
   137  146  136 1
   138  147  146 1
   139  148  137 1
   140  149  140 1
   141  150  148 2
   142  151  148 2
   143  152  149 2
   144  153  149 2
   145  154  155 1
   146  156  154 1
   147  157  154 1
   148  158  159 1
   149  160  158 1
   150  161  158 1
   151  162  154 1
   152  163  162 1
   153  164  163 1
   154  165  163 1
   155  166  163 1
   156  167  166 2
   157  168  167 1
   158  169  167 1
   159  170  169 1
   160  171  169 1
   161  172  162 1
   162  173  172 1
   163  174  172 1
   164  175  166 1
   165  176  175 1
   166  177  176 1
   167  178  176 1
   168  179  176 1
   169  180  179 1
   170  181  179 1
   171  182  179 1
   172  183  182 1
   173  184  182 2
   174  185  184 1
   175  186  184 1
   176  187  188 ar
   177  188  189 ar
   178  189  190 1
   179  191  189 ar
   180  192  191 ar
   181  193  192 1
   182  194  187 ar
   183  195  194 1
   184  196  175 2
   185  197  187 1
   186  198  197 1
   187  199  188 1
   188  200  191 1
   189  201  199 2
   190  202  199 2
   191  203  200 2
   192  204  200 2
   193  205  206 1
   194  207  205 1
   195  208  205 1
   196  209  210 1
   197  211  209 1
   198  212  209 1
   199  213  205 1
   200  214  213 1
   201  215  214 1
   202  216  214 1
   203  217  214 1
   204  218  217 2
   205  219  218 1
   206  220  218 1
   207  221  220 1
   208  222  220 1
   209  223  213 1
   210  224  223 1
   211  225  223 1
   212  226  217 1
   213  227  226 1
   214  228  227 1
   215  229  227 1
   216  230  227 1
   217  231  230 1
   218  232  230 1
   219  233  230 1
   220  234  233 1
   221  235  233 2
   222  236  235 1
   223  237  235 1
   224  238  239 ar
   225  239  240 ar
   226  240  241 1
   227  242  240 ar
   228  243  242 ar
   229  244  243 1
   230  245  238 ar
   231  246  245 1
   232  247  226 2
   233  248  238 1
   234  249  248 1
   235  250  239 1
   236  251  242 1
   237  252  250 2
   238  253  250 2
   239  254  251 2
   240  255  251 2
   241  266  267 1
   242  268  266 1
   243  269  266 1
   244  270  271 1
   245  272  270 1
   246  273  270 1
   247  274  266 1
   248  275  274 1
   249  276  275 1
   250  277  275 1
   251  278  275 1
   252  279  278 2
   253  280  279 1
   254  281  279 1
   255  282  281 1
   256  283  281 1
   257  284  274 1
   258  285  284 1
   259  286  284 1
   260  287  278 1
   261  288  287 1
   262  289  288 1
   263  290  288 1
   264  291  288 1
   265  292  291 1
   266  293  291 1
   267  294  291 1
   268  295  294 1
   269  296  294 2
   270  297  296 1
   271  298  296 1
   272  299  300 ar
   273  300  301 ar
   274  301  302 1
   275  303  301 ar
   276  304  303 ar
   277  305  304 1
   278  306  299 ar
   279  307  306 1
   280  308  287 2
   281  309  299 1
   282  310  309 1
   283  311  300 1
   284  312  303 1
   285  313  311 2
   286  314  311 2
   287  315  312 2
   288  316  312 2
   289  317  318 1
   290  319  317 1
   291  320  317 1
   292  321  322 1
   293  323  321 1
   294  324  321 1
   295  325  317 1
   296  326  325 1
   297  327  326 1
   298  328  326 1
   299  329  326 1
   300  330  329 2
   301  331  330 1
   302  332  330 1
   303  333  332 1
   304  334  332 1
   305  335  325 1
   306  336  335 1
   307  337  335 1
   308  338  329 1
   309  339  338 1
   310  340  339 1
   311  341  339 1
   312  342  339 1
   313  343  342 1
   314  344  342 1
   315  345  342 1
   316  346  345 1
   317  347  345 2
   318  348  347 1
   319  349  347 1
   320  350  351 ar
   321  351  352 ar
   322  352  353 1
   323  354  352 ar
   324  355  354 ar
   325  356  355 1
   326  357  350 ar
   327  358  357 1
   328  359  350 1
   329  360  359 1
   330  361  351 1
   331  362  354 1
   332  363  361 2
   333  364  361 2
   334  365  362 2
   335  366  362 2
   336  367  338 2
   337  368  369 1
   338  370  368 1
   339  371  368 1
   340  372  373 1
   341  374  372 1
   342  375  372 1
   343  376  368 1
   344  377  376 1
   345  378  377 1
   346  379  377 1
   347  380  377 1
   348  381  380 2
   349  382  381 1
   350  383  381 1
   351  384  383 1
   352  385  383 1
   353  386  376 1
   354  387  386 1
   355  388  386 1
   356  389  380 1
   357  390  389 1
   358  391  390 1
   359  392  390 1
   360  393  390 1
   361  394  393 1
   362  395  393 1
   363  396  393 1
   364  397  396 1
   365  398  396 2
   366  399  398 1
   367  400  398 1
   368  401  402 ar
   369  402  403 ar
   370  403  404 1
   371  405  403 ar
   372  406  405 ar
   373  407  406 1
   374  408  401 ar
   375  409  408 1
   376  410  389 2
   377  411  401 1
   378  412  411 1
   379  413  402 1
   380  414  405 1
   381  415  413 2
   382  416  413 2
   383  417  414 2
   384  418  414 2
   385    5    9 1
   386   16   19 1
   387   39   41 ar
   388   43   44 1
   389   57   61 1
   390   68   71 1
   391   91   93 ar
   392   95   96 1
   393  107  111 1
   394  118  121 1
   395  141  143 ar
   396  145  146 1
   397  158  162 1
   398  169  172 1
   399  192  194 ar
   400  196  197 1
   401  209  213 1
   402  220  223 1
   403  243  245 ar
   404  247  248 1
   405  270  274 1
   406  281  284 1
   407  304  306 ar
   408  308  309 1
   409  321  325 1
   410  332  335 1
   411  355  357 ar
   412  359  367 1
   413  372  376 1
   414  383  386 1
   415  406  408 ar
   416  410  411 1
@<TRIPOS>SUBSTRUCTURE
     1 RES1 1
     2 RES2 52
     3 RES3 103
     4 RES4 154
     5 RES5 205
     6 RES6 266
     7 RES7 317
     8 RES8 368
     9 SUP9 256

@<TRIPOS>CRYSIN
  17.6528   21.4017   22.7819  63.3330  86.9080  84.0060   2 1

