# MOL2 file generated by ConQuest
# Please check atom types

@<TRIPOS>MOLECULE
MOGLIF
    59    62     1
SMALL
NO_CHARGES
****
Generated from CSD

@<TRIPOS>ATOM
      1 O1         0.6956    6.8960    9.4417 O.2       1 RES1    0.0000
      2 O2         2.5594    2.4660    9.3542 O.3       1 RES1    0.0000
      3 O3        -6.2233    8.3788    9.7380 O.2       1 RES1    0.0000
      4 O4        -5.7192    8.3490    7.6417 O.2       1 RES1    0.0000
      5 O5         1.6731    5.5778   13.1602 O.3       1 RES1    0.0000
      6 H1         0.9637    5.9918   13.1629 H         1 RES1    0.0000
      7 N1         0.0488    5.1847   10.7425 N.am      1 RES1    0.0000
      8 N2        -5.4649    8.1266    8.8132 N.pl3     1 RES1    0.0000
      9 C1         2.2376    5.6108   11.8524 C.3       1 RES1    0.0000
     10 H2         2.1963    6.5324   11.5188 H         1 RES1    0.0000
     11 C2         3.6914    5.1979   11.9504 C.3       1 RES1    0.0000
     12 H3         3.7320    4.2643   12.2115 H         1 RES1    0.0000
     13 H4         4.1141    5.7165   12.6528 H         1 RES1    0.0000
     14 C3         4.4834    5.3807   10.6629 C.3       1 RES1    0.0000
     15 H5         4.0868    4.8214    9.9762 H         1 RES1    0.0000
     16 H6         4.3951    6.3022   10.3763 H         1 RES1    0.0000
     17 C4         5.9563    5.0471   10.7608 C.3       1 RES1    0.0000
     18 H7         6.4057    5.4247    9.9895 H         1 RES1    0.0000
     19 H8         6.3154    5.4820   11.5490 H         1 RES1    0.0000
     20 C5         6.2786    3.6125   10.8321 C.3       1 RES1    0.0000
     21 H9         5.8368    3.1533   10.1007 H         1 RES1    0.0000
     22 H10        5.9302    3.2513   11.6626 H         1 RES1    0.0000
     23 C6         7.7896    3.3295   10.7596 C.3       1 RES1    0.0000
     24 H11        8.2237    3.7093   11.5260 H         1 RES1    0.0000
     25 H12        8.1500    3.7226    9.9605 H         1 RES1    0.0000
     26 H13        7.9364    2.3815   10.7438 H         1 RES1    0.0000
     27 C7         1.4487    4.7157   10.9010 C.3       1 RES1    0.0000
     28 H14        1.8860    4.7245   10.0233 H         1 RES1    0.0000
     29 C8        -2.0138    6.8638    8.4033 C.ar      1 RES1    0.0000
     30 H15       -1.4099    6.7030    7.7155 H         1 RES1    0.0000
     31 C9        -0.9046    4.1828   11.2504 C.3       1 RES1    0.0000
     32 H16       -1.7303    4.1927   10.7402 H         1 RES1    0.0000
     33 H17       -1.1080    4.3325   12.1861 H         1 RES1    0.0000
     34 C10       -0.3064    2.3452    9.6473 C.3       1 RES1    0.0000
     35 H18       -0.0165    3.0190    9.0114 H         1 RES1    0.0000
     36 H19       -1.2434    2.1580    9.4769 H         1 RES1    0.0000
     37 C11        0.5028    1.0779    9.4370 C.3       1 RES1    0.0000
     38 H20        0.1087    0.3600    9.9580 H         1 RES1    0.0000
     39 H21        0.4583    0.8247    8.5025 H         1 RES1    0.0000
     40 C12        1.9496    1.2386    9.8371 C.3       1 RES1    0.0000
     41 C13        2.3088    2.3232   10.7620 C.3       1 RES1    0.0000
     42 H22        3.1027    2.1569   11.3133 H         1 RES1    0.0000
     43 C14       -3.2693    7.3273    8.1168 C.ar      1 RES1    0.0000
     44 H23       -3.5261    7.4770    7.2355 H         1 RES1    0.0000
     45 C15       -1.6413    6.6326    9.7247 C.ar      1 RES1    0.0000
     46 C16       -2.5573    6.8583   10.7366 C.ar      1 RES1    0.0000
     47 H24       -2.3228    6.6810   11.6191 H         1 RES1    0.0000
     48 C17       -3.8090    7.3416   10.4465 C.ar      1 RES1    0.0000
     49 H25       -4.4211    7.5123   11.1259 H         1 RES1    0.0000
     50 C18       -4.1376    7.5673    9.1360 C.ar      1 RES1    0.0000
     51 C19        2.8313    0.0286    9.7163 C.3       1 RES1    0.0000
     52 H26        3.7098    0.2400   10.0390 H         1 RES1    0.0000
     53 H27        2.8834   -0.2378    8.7950 H         1 RES1    0.0000
     54 H28        2.4620   -0.6881   10.2361 H         1 RES1    0.0000
     55 C20       -0.2219    6.2373    9.9713 C.2       1 RES1    0.0000
     56 C21       -0.1557    2.8880   11.0509 C.3       1 RES1    0.0000
     57 H29       -0.4742    2.2219   11.6965 H         1 RES1    0.0000
     58 C22        1.2923    3.2491   11.3652 C.3       1 RES1    0.0000
     59 H30        1.4055    3.2271   12.3384 H         1 RES1    0.0000
@<TRIPOS>BOND
     1    1   55 2
     2    2   40 1
     3    3    8 2
     4    4    8 2
     5    5    6 1
     6    7   27 1
     7    8   50 1
     8    9    5 1
     9   10    9 1
    10   11    9 1
    11   12   11 1
    12   13   11 1
    13   14   11 1
    14   15   14 1
    15   16   14 1
    16   17   14 1
    17   18   17 1
    18   19   17 1
    19   20   17 1
    20   21   20 1
    21   22   20 1
    22   23   20 1
    23   24   23 1
    24   25   23 1
    25   26   23 1
    26   27    9 1
    27   28   27 1
    28   29   30 1
    29   31    7 1
    30   32   31 1
    31   33   31 1
    32   34   35 1
    33   36   34 1
    34   37   34 1
    35   38   37 1
    36   39   37 1
    37   40   37 1
    38   41    2 1
    39   42   41 1
    40   43   29 ar
    41   44   43 1
    42   45   29 ar
    43   46   45 ar
    44   47   46 1
    45   48   46 ar
    46   49   48 1
    47   50   43 ar
    48   51   40 1
    49   52   51 1
    50   53   51 1
    51   54   51 1
    52   55    7 1
    53   56   31 1
    54   57   56 1
    55   58   27 1
    56   59   58 1
    57   34   56 1
    58   40   41 1
    59   41   58 1
    60   45   55 1
    61   48   50 ar
    62   56   58 1
@<TRIPOS>SUBSTRUCTURE
     1 RES1 1

@<TRIPOS>CRYSIN
  12.7135   12.7135   12.0894  90.0000  90.0000 120.0000 145 1

