# MOL2 file generated by ConQuest
# Please check atom types

@<TRIPOS>MOLECULE
MOGTAD
   104   114     2
SMALL
NO_CHARGES
****
Generated from CSD

@<TRIPOS>ATOM
      1 N1        -2.4023   -1.0187   18.2389 N.pl3     1 RES1    0.0000
      2 H1        -2.0688   -1.0922   17.4276 H         1 RES1    0.0000
      3 C1        -1.9893   -0.0728   19.2602 C.3       1 RES1    0.0000
      4 C2        -0.5780    0.4606   19.2377 C.2       1 RES1    0.0000
      5 C3        -0.2949    1.1333   20.3553 C.2       1 RES1    0.0000
      6 H2         0.5929    1.4452   20.5421 H         1 RES1    0.0000
      7 C4        -1.4030    1.3701   21.3247 C.3       1 RES1    0.0000
      8 C5        -2.4888    2.0978   20.4938 C.3       1 RES1    0.0000
      9 H3        -3.2142    2.3648   21.0606 H         1 RES1    0.0000
     10 H4        -2.1253    2.8788   20.0718 H         1 RES1    0.0000
     11 C6        -2.9816    1.1201   19.4277 C.3       1 RES1    0.0000
     12 H5        -3.8272    0.7679   19.7079 H         1 RES1    0.0000
     13 C7        -0.9517    2.1899   22.5486 C.3       1 RES1    0.0000
     14 H6        -1.7205    2.4399   23.0672 H         1 RES1    0.0000
     15 H7        -0.5097    2.9918   22.2652 H         1 RES1    0.0000
     16 C8        -0.0104    1.3539   23.4053 C.3       1 RES1    0.0000
     17 H8         0.2999    1.8779   24.1461 H         1 RES1    0.0000
     18 H9         0.7510    1.0899   22.8868 H         1 RES1    0.0000
     19 C9        -0.7298    0.0991   23.8917 C.3       1 RES1    0.0000
     20 H10       -1.4687    0.3685   24.4424 H         1 RES1    0.0000
     21 H11       -0.1319   -0.4203   24.4328 H         1 RES1    0.0000
     22 N2        -1.2450   -0.7447   22.7931 N.3       1 RES1    0.0000
     23 C10       -2.0342    0.0023   21.8111 C.3       1 RES1    0.0000
     24 C11       -0.2514   -1.4700   22.0429 C.3       1 RES1    0.0000
     25 H12        0.1209   -2.1945   22.5486 H         1 RES1    0.0000
     26 H13        0.4560   -0.8763   21.7853 H         1 RES1    0.0000
     27 C12       -0.9812   -1.9468   20.8062 C.3       1 RES1    0.0000
     28 H14       -1.3309   -2.8254   20.9640 H         1 RES1    0.0000
     29 H15       -0.4035   -1.9708   20.0396 H         1 RES1    0.0000
     30 C13       -2.1562   -0.9312   20.5691 C.3       1 RES1    0.0000
     31 C14       -3.4063   -1.7254   20.2061 C.ar      1 RES1    0.0000
     32 C15       -4.3139   -2.4631   20.9479 C.ar      1 RES1    0.0000
     33 H16       -4.3005   -2.4120   21.9077 H         1 RES1    0.0000
     34 C16       -5.2326   -3.2744   20.2844 C.ar      1 RES1    0.0000
     35 H17       -5.8919   -3.7597   20.7836 H         1 RES1    0.0000
     36 C17       -5.2376   -3.3626   18.9091 C.ar      1 RES1    0.0000
     37 H18       -5.8307   -3.9811   18.4776 H         1 RES1    0.0000
     38 C18       -4.3610   -2.6164   18.1458 C.ar      1 RES1    0.0000
     39 H19       -4.4012   -2.6528   17.1860 H         1 RES1    0.0000
     40 C19       -3.4377   -1.7990   18.7932 C.ar      1 RES1    0.0000
     41 C20        0.3088    0.3483   18.0556 C.2       1 RES1    0.0000
     42 O1        -0.1071    0.2237   16.9351 O.2       1 RES1    0.0000
     43 O2         1.5959    0.4157   18.3903 O.3       1 RES1    0.0000
     44 C21        2.5273    0.2972   17.2923 C.3       1 RES1    0.0000
     45 H20        2.3067   -0.5016   16.8124 H         1 RES1    0.0000
     46 H21        3.4007    0.1687   17.6691 H         1 RES1    0.0000
     47 H22        2.5858    1.0117   16.6578 H         1 RES1    0.0000
     48 N3        -3.1476    1.7982   18.0956 N.pl3     1 RES1    0.0000
     49 O3        -4.1550    1.5311   17.4527 O.2       1 RES1    0.0000
     50 O4        -2.2611    2.5498   17.7126 O.2       1 RES1    0.0000
     51 C22       -3.3524    0.2949   22.4639 C.1       1 RES1    0.0000
     52 N4        -4.3315    0.5202   23.0072 N.1       1 RES1    0.0000
     53 N5         6.7186    5.1670   13.9192 N.pl3     2 RES2    0.0000
     54 H23        7.1060    5.3272   14.7157 H         2 RES2    0.0000
     55 C23        7.0842    4.1282   12.9700 C.3       2 RES2    0.0000
     56 C24        8.4818    3.6033   12.9346 C.2       2 RES2    0.0000
     57 C25        8.7256    2.8595   11.8621 C.2       2 RES2    0.0000
     58 H24        9.6123    2.5568   11.6560 H         2 RES2    0.0000
     59 C26        7.5482    2.5498   10.9699 C.3       2 RES2    0.0000
     60 C27        6.5104    1.8725   11.9072 C.3       2 RES2    0.0000
     61 H25        5.7537    1.5660   11.4015 H         2 RES2    0.0000
     62 H26        6.9117    1.1185   12.3420 H         2 RES2    0.0000
     63 C28        6.0939    2.9036   12.9700 C.3       2 RES2    0.0000
     64 H27        5.2168    3.2217   12.7478 H         2 RES2    0.0000
     65 C29        7.9676    1.6697    9.7783 C.3       2 RES2    0.0000
     66 H28        7.1881    1.3670    9.3080 H         2 RES2    0.0000
     67 H29        8.4409    0.8995   10.0971 H         2 RES2    0.0000
     68 C30        8.8611    2.4445    8.8152 C.3       2 RES2    0.0000
     69 H30        9.1289    1.8857    8.0841 H         2 RES2    0.0000
     70 H31        9.6487    2.7348    9.2790 H         2 RES2    0.0000
     71 C31        8.1080    3.6668    8.3031 C.3       2 RES2    0.0000
     72 H32        7.3392    3.3649    7.8136 H         2 RES2    0.0000
     73 H33        8.6679    4.1553    7.6976 H         2 RES2    0.0000
     74 N6         7.6398    4.5609    9.3740 N.3       2 RES2    0.0000
     75 C32        6.8776    3.8774   10.4224 C.3       2 RES2    0.0000
     76 C33        8.6679    5.3504   10.0359 C.3       2 RES2    0.0000
     77 H34        9.0011    6.0518    9.4723 H         2 RES2    0.0000
     78 H35        9.3973    4.7885   10.3032 H         2 RES2    0.0000
     79 C34        7.9574    5.9047   11.2534 C.3       2 RES2    0.0000
     80 H36        7.5842    6.7639   11.0505 H         2 RES2    0.0000
     81 H37        8.5561    5.9968   11.9974 H         2 RES2    0.0000
     82 C35        6.8246    4.8899   11.5980 C.3       2 RES2    0.0000
     83 C36        5.5761    5.6740   11.9974 C.ar      2 RES2    0.0000
     84 C37        4.6321    6.3498   11.2340 C.ar      2 RES2    0.0000
     85 H38        4.5892    6.2213   10.2871 H         2 RES2    0.0000
     86 C38        3.7294    7.2160   11.8750 C.ar      2 RES2    0.0000
     87 H39        3.0639    7.6851   11.3693 H         2 RES2    0.0000
     88 C39        3.8187    7.4072   13.2599 C.ar      2 RES2    0.0000
     89 H40        3.2105    8.0110   13.6915 H         2 RES2    0.0000
     90 C40        4.7717    6.7469   14.0232 C.ar      2 RES2    0.0000
     91 H41        4.8341    6.8731   14.9701 H         2 RES2    0.0000
     92 C41        5.6329    5.8668   13.3791 C.ar      2 RES2    0.0000
     93 C42        9.4622    3.8077   14.0490 C.2       2 RES2    0.0000
     94 O5         9.1358    4.1522   15.1566 O.2       2 RES2    0.0000
     95 O6        10.6933    3.4973   13.6764 O.3       2 RES2    0.0000
     96 C43       11.6828    3.5135   14.7576 C.3       2 RES2    0.0000
     97 H42       12.5544    3.4029   14.3743 H         2 RES2    0.0000
     98 H43       11.5355    2.8006   15.3824 H         2 RES2    0.0000
     99 H44       11.6637    4.3496   15.2246 H         2 RES2    0.0000
    100 N7         6.0796    2.3393   14.3601 N.pl3     2 RES2    0.0000
    101 O7         5.2428    2.7859   15.1286 O.2       2 RES2    0.0000
    102 O8         6.9401    1.5373   14.6809 O.2       2 RES2    0.0000
    103 C44        5.5561    3.5314    9.8427 C.1       2 RES2    0.0000
    104 N8         4.5835    3.2627    9.3261 N.1       2 RES2    0.0000
@<TRIPOS>BOND
     1    1    2 1
     2    3    1 1
     3    4    3 1
     4    5    4 2
     5    6    5 1
     6    7    5 1
     7    8    7 1
     8    9    8 1
     9   10    8 1
    10   11    3 1
    11   12   11 1
    12   13    7 1
    13   14   13 1
    14   15   13 1
    15   16   13 1
    16   17   16 1
    17   18   16 1
    18   19   16 1
    19   20   19 1
    20   21   19 1
    21   22   19 1
    22   23    7 1
    23   24   22 1
    24   25   24 1
    25   26   24 1
    26   27   24 1
    27   28   27 1
    28   29   27 1
    29   30    3 1
    30   31   30 1
    31   32   31 ar
    32   33   32 1
    33   34   32 ar
    34   35   34 1
    35   36   34 ar
    36   37   36 1
    37   38   36 ar
    38   39   38 1
    39   40    1 1
    40   41    4 1
    41   42   41 2
    42   43   41 1
    43   44   43 1
    44   45   44 1
    45   46   44 1
    46   47   44 1
    47   48   11 1
    48   49   48 2
    49   50   48 2
    50   51   23 1
    51   52   51 3
    52   53   54 1
    53   55   53 1
    54   56   55 1
    55   57   56 2
    56   58   57 1
    57   59   57 1
    58   60   59 1
    59   61   60 1
    60   62   60 1
    61   63   55 1
    62   64   63 1
    63   65   59 1
    64   66   65 1
    65   67   65 1
    66   68   65 1
    67   69   68 1
    68   70   68 1
    69   71   68 1
    70   72   71 1
    71   73   71 1
    72   74   71 1
    73   75   59 1
    74   76   74 1
    75   77   76 1
    76   78   76 1
    77   79   76 1
    78   80   79 1
    79   81   79 1
    80   82   55 1
    81   83   82 1
    82   84   83 ar
    83   85   84 1
    84   86   84 ar
    85   87   86 1
    86   88   86 ar
    87   89   88 1
    88   90   88 ar
    89   91   90 1
    90   92   53 1
    91   93   56 1
    92   94   93 2
    93   95   93 1
    94   96   95 1
    95   97   96 1
    96   98   96 1
    97   99   96 1
    98  100   63 1
    99  101  100 2
   100  102  100 2
   101  103   75 1
   102  104  103 3
   103    8   11 1
   104   22   23 1
   105   23   30 1
   106   27   30 1
   107   31   40 ar
   108   38   40 ar
   109   60   63 1
   110   74   75 1
   111   75   82 1
   112   79   82 1
   113   83   92 ar
   114   90   92 ar
@<TRIPOS>SUBSTRUCTURE
     1 RES1 1
     2 RES2 53

@<TRIPOS>CRYSIN
  14.9598    7.7408   32.3440  90.0000  95.2620  90.0000  14 1

