# MOL2 file generated by ConQuest
# Please check atom types

@<TRIPOS>MOLECULE
MOHZEQ
    80    84     2
SMALL
NO_CHARGES
****
Generated from CSD

@<TRIPOS>ATOM
      1 O1         6.1237    5.9351    6.2529 O.2       1 RES1    0.0000
      2 N1         5.3303    3.8160    6.8609 N.am      1 RES1    0.0000
      3 N2         4.4541    3.2841    7.8424 N.2       1 RES1    0.0000
      4 N3         4.3019    6.7078    8.5769 N.2       1 RES1    0.0000
      5 N4         4.8648    7.7516    8.0244 N.3       1 RES1    0.0000
      6 C1         5.9020    2.9244    5.9208 C.ar      1 RES1    0.0000
      7 C2         5.7012    1.5575    6.0592 C.ar      1 RES1    0.0000
      8 H1         5.1857    1.2345    6.7626 H         1 RES1    0.0000
      9 C3         6.2607    0.6759    5.1593 C.ar      1 RES1    0.0000
     10 H2         6.1125   -0.2361    5.2616 H         1 RES1    0.0000
     11 C4         7.0370    1.1249    4.1090 C.ar      1 RES1    0.0000
     12 H3         7.4276    0.5342    3.5062 H         1 RES1    0.0000
     13 C5         7.2075    2.4859    3.9935 C.ar      1 RES1    0.0000
     14 C6         6.6597    3.4038    4.8674 C.ar      1 RES1    0.0000
     15 H4         6.7956    4.3168    4.7513 H         1 RES1    0.0000
     16 C7         5.4444    5.1868    6.9538 C.2       1 RES1    0.0000
     17 C8         4.5767    5.5241    8.0817 C.2       1 RES1    0.0000
     18 C9         4.0163    4.2893    8.5429 C.2       1 RES1    0.0000
     19 C10        4.5954    9.0529    8.5012 C.ar      1 RES1    0.0000
     20 C11        5.1863   10.1318    7.8851 C.ar      1 RES1    0.0000
     21 H5         5.7539    9.9973    7.1606 H         1 RES1    0.0000
     22 C12        4.9427   11.4095    8.3342 C.ar      1 RES1    0.0000
     23 H6         5.3543   12.1233    7.9029 H         1 RES1    0.0000
     24 C13        4.1031   11.6674    9.4090 C.ar      1 RES1    0.0000
     25 C14        3.5154   10.5689   10.0005 C.ar      1 RES1    0.0000
     26 H7         2.9391   10.7055   10.7178 H         1 RES1    0.0000
     27 C15        3.7458    9.2694    9.5725 C.ar      1 RES1    0.0000
     28 H8         3.3353    8.5531    9.9995 H         1 RES1    0.0000
     29 C16        3.0387    4.1131    9.6533 C.3       1 RES1    0.0000
     30 H9         2.8284    3.1812    9.7511 H         1 RES1    0.0000
     31 H10        2.2376    4.6016    9.4547 H         1 RES1    0.0000
     32 H11        3.4204    4.4421   10.4709 H         1 RES1    0.0000
     33 C17        3.8622   13.0711    9.9032 C.3       1 RES1    0.0000
     34 H12        2.9328   13.2892    9.8049 H         1 RES1    0.0000
     35 H13        4.3916   13.6862    9.3904 H         1 RES1    0.0000
     36 H14        4.1096   13.1310   10.8285 H         1 RES1    0.0000
     37 N5         8.0301    2.9853    2.8818 N.pl3     1 RES1    0.0000
     38 O2         8.1696    4.1825    2.7418 O.2       1 RES1    0.0000
     39 O3         8.5310    2.1593    2.1386 O.2       1 RES1    0.0000
     40 H15        5.4423    7.6404    7.4076 H         1 RES1    0.0000
     41 O4         1.1537    9.7756    1.2786 O.2       2 RES2    0.0000
     42 N6         1.8591    7.6359    0.5917 N.am      2 RES2    0.0000
     43 N7         2.6795    7.1053   -0.4341 N.2       2 RES2    0.0000
     44 N8         2.9404   10.5592   -1.0526 N.2       2 RES2    0.0000
     45 N9         2.3897   11.5871   -0.4540 N.3       2 RES2    0.0000
     46 C18        1.1609    6.7410    1.4236 C.ar      2 RES2    0.0000
     47 C19        1.2452    5.3748    1.1984 C.ar      2 RES2    0.0000
     48 H16        1.7813    5.0514    0.5103 H         2 RES2    0.0000
     49 C20        0.5350    4.4914    1.9924 C.ar      2 RES2    0.0000
     50 H17        0.5962    3.5795    1.8227 H         2 RES2    0.0000
     51 C21       -0.2578    4.9300    3.0254 C.ar      2 RES2    0.0000
     52 H18       -0.7356    4.3352    3.5556 H         2 RES2    0.0000
     53 C22       -0.3124    6.2836    3.2390 C.ar      2 RES2    0.0000
     54 C23        0.3818    7.2107    2.4758 C.ar      2 RES2    0.0000
     55 H19        0.3278    8.1205    2.6622 H         2 RES2    0.0000
     56 C24        1.8025    9.0186    0.5516 C.2       2 RES2    0.0000
     57 C25        2.6686    9.3618   -0.5742 C.2       2 RES2    0.0000
     58 C26        3.1504    8.1240   -1.1054 C.2       2 RES2    0.0000
     59 C27        2.5958   12.9020   -0.9226 C.ar      2 RES2    0.0000
     60 C28        1.8218   13.9074   -0.3861 C.ar      2 RES2    0.0000
     61 H20        1.1924   13.7126    0.2709 H         2 RES2    0.0000
     62 C29        1.9832   15.2072   -0.8286 C.ar      2 RES2    0.0000
     63 H21        1.4454   15.8756   -0.4714 H         2 RES2    0.0000
     64 C30        2.9181   15.5394   -1.7822 C.ar      2 RES2    0.0000
     65 C31        3.6856   14.5100   -2.3064 C.ar      2 RES2    0.0000
     66 H22        4.3228   14.7071   -2.9540 H         2 RES2    0.0000
     67 C32        3.5319   13.2019   -1.8953 C.ar      2 RES2    0.0000
     68 H23        4.0531   12.5282   -2.2687 H         2 RES2    0.0000
     69 C33        4.0612    7.9456   -2.2733 C.3       2 RES2    0.0000
     70 H24        4.2011    7.0086   -2.4303 H         2 RES2    0.0000
     71 H25        4.9027    8.3684   -2.0906 H         2 RES2    0.0000
     72 H26        3.6660    8.3447   -3.0513 H         2 RES2    0.0000
     73 C34        3.0993   16.9695   -2.2398 C.3       2 RES2    0.0000
     74 H27        2.4326   17.5242   -1.8287 H         2 RES2    0.0000
     75 H28        3.0076   17.0138   -3.1950 H         2 RES2    0.0000
     76 H29        3.9722   17.2776   -1.9873 H         2 RES2    0.0000
     77 H30        1.8812   11.4204    0.2110 H         2 RES2    0.0000
     78 N10       -1.1481    6.7923    4.3392 N.pl3     2 RES2    0.0000
     79 O5        -1.0067    7.9538    4.7049 O.2       2 RES2    0.0000
     80 O6        -1.9557    6.0225    4.8519 O.2       2 RES2    0.0000
@<TRIPOS>BOND
     1    1   16 2
     2    2    3 1
     3    3   18 2
     4    4    5 1
     5    5   19 1
     6    6    2 1
     7    7    6 ar
     8    8    7 1
     9    9    7 ar
    10   10    9 1
    11   11    9 ar
    12   12   11 1
    13   13   11 ar
    14   14    6 ar
    15   15   14 1
    16   16    2 1
    17   17    4 2
    18   18   17 1
    19   19   20 ar
    20   20   21 1
    21   22   20 ar
    22   23   22 1
    23   24   22 ar
    24   25   24 ar
    25   26   25 1
    26   27   19 ar
    27   28   27 1
    28   29   18 1
    29   30   29 1
    30   31   29 1
    31   32   29 1
    32   33   24 1
    33   34   33 1
    34   35   33 1
    35   36   33 1
    36   37   13 1
    37   38   37 2
    38   39   37 2
    39   40    5 1
    40   41   56 2
    41   42   43 1
    42   43   58 2
    43   44   45 1
    44   45   59 1
    45   46   42 1
    46   47   46 ar
    47   48   47 1
    48   49   47 ar
    49   50   49 1
    50   51   49 ar
    51   52   51 1
    52   53   51 ar
    53   54   46 ar
    54   55   54 1
    55   56   42 1
    56   57   44 2
    57   58   57 1
    58   59   60 ar
    59   60   61 1
    60   62   60 ar
    61   63   62 1
    62   64   62 ar
    63   65   64 ar
    64   66   65 1
    65   67   59 ar
    66   68   67 1
    67   69   58 1
    68   70   69 1
    69   71   69 1
    70   72   69 1
    71   73   64 1
    72   74   73 1
    73   75   73 1
    74   76   73 1
    75   77   45 1
    76   78   53 1
    77   79   78 2
    78   80   78 2
    79   13   14 ar
    80   16   17 1
    81   25   27 ar
    82   53   54 ar
    83   56   57 1
    84   65   67 ar
@<TRIPOS>SUBSTRUCTURE
     1 RES1 1
     2 RES2 41

@<TRIPOS>CRYSIN
  16.4740   13.1890   15.1130  90.0000  98.0310  90.0000  14 1

