# MOL2 file generated by ConQuest
# Please check atom types

@<TRIPOS>MOLECULE
MOKFIC
    47    50     1
SMALL
NO_CHARGES
****
Generated from CSD

@<TRIPOS>ATOM
      1 C1         7.7002    0.1390    7.3279 C.2       1 RES1    0.0000
      2 N1         7.8673    0.0845    6.0074 N.am      1 RES1    0.0000
      3 H1         7.8176   -0.7120    5.6369 H         1 RES1    0.0000
      4 O1         7.5694   -0.9030    7.9983 O.2       1 RES1    0.0000
      5 C2         7.7033    1.4616    8.0294 C.3       1 RES1    0.0000
      6 C3         9.0142    1.5793    8.8790 C.3       1 RES1    0.0000
      7 H2         9.6342    0.8354    8.6735 H         1 RES1    0.0000
      8 H3         9.4737    2.4378    8.6986 H         1 RES1    0.0000
      9 C4         8.5612    1.5110   10.2939 C.ar      1 RES1    0.0000
     10 O2        10.7247    1.5029   11.1400 O.3       1 RES1    0.0000
     11 C5         9.3816    1.5060   11.4161 C.ar      1 RES1    0.0000
     12 C6        11.6256    1.5379   12.2538 C.3       1 RES1    0.0000
     13 H4        12.5493    1.5317   11.9263 H         1 RES1    0.0000
     14 H5        11.4753    0.7533   12.8214 H         1 RES1    0.0000
     15 H6        11.4691    2.3526   12.7760 H         1 RES1    0.0000
     16 C7         8.8076    1.5154   12.6900 C.ar      1 RES1    0.0000
     17 H7         9.3582    1.5267   13.4643 H         1 RES1    0.0000
     18 C8         7.4463    1.5085   12.8142 C.ar      1 RES1    0.0000
     19 H8         7.0558    1.5048   13.6794 H         1 RES1    0.0000
     20 N2         5.1862    1.5098   11.8929 N.pl3     1 RES1    0.0000
     21 C9         6.6244    1.5073   11.6897 C.ar      1 RES1    0.0000
     22 O3         4.7426    1.4703   13.0509 O.2       1 RES1    0.0000
     23 O4         4.4683    1.5392   10.9010 O.2       1 RES1    0.0000
     24 C10        7.1839    1.5098   10.4134 C.ar      1 RES1    0.0000
     25 C11        6.5361    1.5348    9.0607 C.3       1 RES1    0.0000
     26 H9         6.0159    2.3689    8.9388 H         1 RES1    0.0000
     27 H10        5.9265    0.7621    8.9519 H         1 RES1    0.0000
     28 N3         7.6016    2.5724    7.0865 N.am      1 RES1    0.0000
     29 H11        7.3309    3.3408    7.4199 H         1 RES1    0.0000
     30 C12        7.8728    2.5574    5.7732 C.2       1 RES1    0.0000
     31 O5         7.9196    3.5844    5.0896 O.2       1 RES1    0.0000
     32 C13        8.1264    1.2104    5.1075 C.3       1 RES1    0.0000
     33 H12        9.0960    1.1785    4.8637 H         1 RES1    0.0000
     34 C14        7.3310    1.0645    3.8169 C.3       1 RES1    0.0000
     35 H13        7.6524    1.7402    3.1692 H         1 RES1    0.0000
     36 H14        7.5119    0.1703    3.4333 H         1 RES1    0.0000
     37 C15        5.8402    1.2267    3.9842 C.ar      1 RES1    0.0000
     38 C16        5.0421    0.1854    4.4192 C.ar      1 RES1    0.0000
     39 H15        5.4331   -0.6625    4.5925 H         1 RES1    0.0000
     40 C17        3.6646    0.3601    4.6068 C.ar      1 RES1    0.0000
     41 H16        3.1250   -0.3488    4.9355 H         1 RES1    0.0000
     42 C18        3.1040    1.6043    4.2985 C.ar      1 RES1    0.0000
     43 H17        2.1670    1.7302    4.3941 H         1 RES1    0.0000
     44 C19        3.8710    2.6313    3.8671 C.ar      1 RES1    0.0000
     45 H18        3.4751    3.4742    3.6819 H         1 RES1    0.0000
     46 C20        5.2441    2.4522    3.6938 C.ar      1 RES1    0.0000
     47 H19        5.7759    3.1711    3.3759 H         1 RES1    0.0000
@<TRIPOS>BOND
     1    1    2 1
     2    2    3 1
     3    4    1 2
     4    5    1 1
     5    6    5 1
     6    7    6 1
     7    8    6 1
     8    9    6 1
     9   10   11 1
    10   11    9 ar
    11   12   10 1
    12   13   12 1
    13   14   12 1
    14   15   12 1
    15   16   11 ar
    16   17   16 1
    17   18   16 ar
    18   19   18 1
    19   20   21 1
    20   21   18 ar
    21   22   20 2
    22   23   20 2
    23   24    9 ar
    24   25    5 1
    25   26   25 1
    26   27   25 1
    27   28    5 1
    28   29   28 1
    29   30   28 1
    30   31   30 2
    31   32    2 1
    32   33   32 1
    33   34   32 1
    34   35   34 1
    35   36   34 1
    36   37   34 1
    37   38   37 ar
    38   39   38 1
    39   40   38 ar
    40   41   40 1
    41   42   40 ar
    42   43   42 1
    43   44   42 ar
    44   45   44 1
    45   46   37 ar
    46   47   46 1
    47   21   24 ar
    48   24   25 1
    49   30   32 1
    50   44   46 ar
@<TRIPOS>SUBSTRUCTURE
     1 RES1 1

@<TRIPOS>CRYSIN
  11.8720    6.2620   12.8190  90.0000 111.2150  90.0000   4 1

