# MOL2 file generated by ConQuest
# Please check atom types

@<TRIPOS>MOLECULE
MOKMAB
    25    23     2
SMALL
NO_CHARGES
****
Generated from CSD

@<TRIPOS>ATOM
      1 O1         0.1138    1.8343    9.5858 O.3       1 RES1    0.0000
      2 O2         1.7646    0.7595    5.2659 O.2       1 RES1    0.0000
      3 N1         1.8038    1.8343    8.1494 N.2       1 RES1    0.0000
      4 N2         1.2350    1.8343    5.4665 N.pl3     1 RES1    0.0000
      5 C1        -0.7670    1.8343    3.4582 C.3       1 RES1    0.0000
      6 H1        -0.0023    2.3977    3.3209 Du        2 SUP2    0.0000
      7 H2        -1.5058    2.1659    2.9421 Du        2 SUP2    0.0000
      8 H3        -0.5591    0.9391    3.1801 Du        2 SUP2    0.0000
      9 C2        -1.1334    1.8343    4.9126 C.ar      1 RES1    0.0000
     10 C3        -2.4619    1.8343    5.3272 C.ar      1 RES1    0.0000
     11 H4        -3.1366    1.8343    4.6874 H         1 RES1    0.0000
     12 C4        -2.7994    1.8343    6.6545 C.ar      1 RES1    0.0000
     13 H5        -3.6960    1.8343    6.9028 H         1 RES1    0.0000
     14 C5        -1.8166    1.8343    7.6312 C.ar      1 RES1    0.0000
     15 H6        -2.0580    1.8343    8.5286 H         1 RES1    0.0000
     16 C6        -0.4709    1.8343    7.2772 C.ar      1 RES1    0.0000
     17 C7        -0.1725    1.8343    5.9184 C.ar      1 RES1    0.0000
     18 C8         0.5697    1.8343    8.3273 C.2       1 RES1    0.0000
     19 C9         1.2844    1.8343   10.4429 C.3       1 RES1    0.0000
     20 H7         1.3022    1.0448   11.0059 H         1 RES1    0.0000
     21 C10        2.4382    1.8343    9.4781 C.3       1 RES1    0.0000
     22 H8         2.9892    2.6237    9.5975 H         1 RES1    0.0000
     23 O2C        1.7646    2.9090    5.2659 O.2       1 RES1    0.0000
     24 H7C        1.3022    2.6237   11.0059 H         1 RES1    0.0000
     25 H8C        2.9892    1.0448    9.5975 H         1 RES1    0.0000
@<TRIPOS>BOND
     1    1   18 1
     2    2    4 2
     3    3   18 2
     4    4   17 1
     5    5    9 1
     6    9   10 ar
     7   10   11 1
     8   12   10 ar
     9   13   12 1
    10   14   12 ar
    11   15   14 1
    12   16   14 ar
    13   17    9 ar
    14   18   16 1
    15   19    1 1
    16   20   19 1
    17   21    3 1
    18   22   21 1
    19   23    4 2
    20   24   19 1
    21   25   21 1
    22   16   17 ar
    23   19   21 1
@<TRIPOS>SUBSTRUCTURE
     1 RES1 1
     2 SUP2 6

@<TRIPOS>CRYSIN
   7.7767    7.3370    8.6468  90.0000  99.4140  90.0000  11 1

