# MOL2 file generated by ConQuest
# Please check atom types

@<TRIPOS>MOLECULE
MOKREJ
    28    28     2
SMALL
NO_CHARGES
****
Generated from CSD

@<TRIPOS>ATOM
      1 O1        12.3011    0.4134    1.4012 O.3       1 RES1    0.0000
      2 N1        13.5466    0.4134    2.1337 N.2       1 RES1    0.0000
      3 C1        11.9677   -0.8723    1.1998 C.2       1 RES1    0.0000
      4 C2        12.9239   -1.7261    1.7675 C.2       1 RES1    0.0000
      5 C3        10.7107   -1.1615    0.4602 C.2       1 RES1    0.0000
      6 C4         9.6577   -0.2208    0.4242 C.2       1 RES1    0.0000
      7 N2         8.4756   -0.4681   -0.2531 N.2       1 RES1    0.0000
      8 C5         8.4756   -0.4681   -0.2531 Du        2 SUP2    0.0000
      9 C6         8.3302   -1.6675   -0.9035 C.2       1 RES1    0.0000
     10 C7         9.3365   -2.6393   -0.8936 C.2       1 RES1    0.0000
     11 C8        10.5370   -2.3897   -0.2050 C.2       1 RES1    0.0000
     12 H1        12.9239   -2.6761    1.7675 H         1 RES1    0.0000
     13 H2         9.7628    0.6072    0.8781 H         1 RES1    0.0000
     14 H3         7.7810    0.1800   -0.2679 Du        2 SUP2    0.0000
     15 H4         7.5225   -1.8429   -1.3723 H         1 RES1    0.0000
     16 H5         9.2105   -3.4632   -1.3496 H         1 RES1    0.0000
     17 H6        11.2259   -3.0446   -0.1888 H         1 RES1    0.0000
     18 C1A       13.8800   -0.8723    2.3352 C.2       1 RES1    0.0000
     19 C3A       15.1370   -1.1615    3.0747 C.2       1 RES1    0.0000
     20 C4A       16.1900   -0.2208    3.1107 C.2       1 RES1    0.0000
     21 N2A       17.3721   -0.4680    3.7880 N.2       1 RES1    0.0000
     22 C6A       17.5175   -1.6675    4.4385 C.2       1 RES1    0.0000
     23 C7A       16.5112   -2.6392    4.4286 C.2       1 RES1    0.0000
     24 C8A       15.3107   -2.3897    3.7399 C.2       1 RES1    0.0000
     25 H6A       14.6218   -3.0446    3.7237 H         1 RES1    0.0000
     26 H5A       16.6372   -3.4632    4.8846 H         1 RES1    0.0000
     27 H4A       18.3252   -1.8429    4.9072 H         1 RES1    0.0000
     28 H2A       16.0849    0.6072    2.6568 H         1 RES1    0.0000
@<TRIPOS>BOND
     1    1    2 1
     2    2   18 1
     3    3    1 1
     4    4    3 1
     5    5    3 1
     6    6    5 1
     7    7    6 1
     8    9    7 1
     9   10    9 1
    10   11    5 1
    11   12    4 1
    12   13    6 1
    13   15    9 1
    14   16   10 1
    15   17   11 1
    16   18    4 1
    17   19   18 1
    18   20   19 1
    19   21   20 1
    20   22   21 1
    21   23   22 1
    22   24   19 1
    23   25   24 1
    24   26   23 1
    25   27   22 1
    26   28   20 1
    27   10   11 1
    28   23   24 1
@<TRIPOS>SUBSTRUCTURE
     1 RES1 1
     2 SUP2 8

@<TRIPOS>CRYSIN
  26.7590    5.7500    7.3010  90.0000 104.4560  90.0000  15 1

