# MOL2 file generated by ConQuest
# Please check atom types

@<TRIPOS>MOLECULE
MOKWUF
    41    44     1
SMALL
NO_CHARGES
****
Generated from CSD

@<TRIPOS>ATOM
      1 O1         2.7939    5.1403    2.6560 O.3       1 RES1    0.0000
      2 O2         4.3759   -2.9738    6.4323 O.2       1 RES1    0.0000
      3 O3         4.2064   -1.4196    7.9066 O.2       1 RES1    0.0000
      4 N1         2.9436    7.0044    6.2532 N.ar      1 RES1    0.0000
      5 N2         2.2093    8.9079    5.1920 N.3       1 RES1    0.0000
      6 N3         2.5337    7.0549    3.8925 N.ar      1 RES1    0.0000
      7 N4         3.3343    3.6277    4.7790 N.2       1 RES1    0.0000
      8 N5         3.6850    5.0795    7.3088 N.pl3     1 RES1    0.0000
      9 N6         4.2826   -1.7971    6.7463 N.pl3     1 RES1    0.0000
     10 C1         2.5660    7.6097    5.1194 C.ar      1 RES1    0.0000
     11 C2         2.8216    5.7775    3.8416 C.ar      1 RES1    0.0000
     12 C3         3.1912    5.0092    4.9468 C.ar      1 RES1    0.0000
     13 C4         4.2059    2.9407    5.4138 C.2       1 RES1    0.0000
     14 C5         5.2280    3.4444    6.3602 C.ar      1 RES1    0.0000
     15 C6         6.5260    2.9245    6.2957 C.ar      1 RES1    0.0000
     16 C7         7.5187    3.4052    7.1005 C.ar      1 RES1    0.0000
     17 C8         7.2407    4.3963    8.0144 C.ar      1 RES1    0.0000
     18 C9         5.9725    4.9323    8.0985 C.ar      1 RES1    0.0000
     19 C10        4.9700    4.4665    7.2604 C.ar      1 RES1    0.0000
     20 C11        3.2722    5.7127    6.1434 C.ar      1 RES1    0.0000
     21 C12        2.5510    5.9301    1.4907 C.3       1 RES1    0.0000
     22 C13        4.2303    1.4933    5.0648 C.ar      1 RES1    0.0000
     23 C14        4.3283    0.5333    6.0559 C.ar      1 RES1    0.0000
     24 C15        4.2466   -0.8007    5.6864 C.ar      1 RES1    0.0000
     25 C16        4.0745   -1.2057    4.4040 C.ar      1 RES1    0.0000
     26 C17        4.0143   -0.2484    3.4240 C.ar      1 RES1    0.0000
     27 C18        4.0992    1.0896    3.7413 C.ar      1 RES1    0.0000
     28 H1         2.1733    9.2813    5.9879 H         1 RES1    0.0000
     29 H2         1.7370    9.2556    4.5353 H         1 RES1    0.0000
     30 H3         3.6428    5.6222    8.0003 H         1 RES1    0.0000
     31 H4         6.7195    2.2251    5.6826 H         1 RES1    0.0000
     32 H5         8.3997    3.0569    7.0302 H         1 RES1    0.0000
     33 H6         7.9260    4.7122    8.5912 H         1 RES1    0.0000
     34 H7         5.7864    5.6182    8.7291 H         1 RES1    0.0000
     35 H8         1.6983    6.4040    1.5889 H         1 RES1    0.0000
     36 H9         2.5128    5.3481    0.7042 H         1 RES1    0.0000
     37 H10        3.2749    6.5809    1.3804 H         1 RES1    0.0000
     38 H11        4.4491    0.7818    6.9646 H         1 RES1    0.0000
     39 H12        3.9981   -2.1293    4.1889 H         1 RES1    0.0000
     40 H13        3.9139   -0.5104    2.5163 H         1 RES1    0.0000
     41 H14        4.0674    1.7404    3.0498 H         1 RES1    0.0000
@<TRIPOS>BOND
     1    1   11 1
     2    2    9 2
     3    3    9 2
     4    4   10 ar
     5    5   10 1
     6    6   10 ar
     7    7   12 1
     8    8   19 1
     9    9   24 1
    10   11    6 ar
    11   12   11 ar
    12   13    7 2
    13   14   13 1
    14   15   14 ar
    15   16   15 ar
    16   17   16 ar
    17   18   17 ar
    18   19   14 ar
    19   20    4 ar
    20   21    1 1
    21   22   13 1
    22   23   22 ar
    23   24   23 ar
    24   25   24 ar
    25   26   25 ar
    26   27   22 ar
    27   28    5 1
    28   29    5 1
    29   30    8 1
    30   31   15 1
    31   32   16 1
    32   33   17 1
    33   34   18 1
    34   35   21 1
    35   36   21 1
    36   37   21 1
    37   38   23 1
    38   39   25 1
    39   40   26 1
    40   41   27 1
    41    8   20 1
    42   12   20 ar
    43   18   19 ar
    44   26   27 ar
@<TRIPOS>SUBSTRUCTURE
     1 RES1 1

@<TRIPOS>CRYSIN
   7.0470   13.5020   16.4180  90.0000  91.2200  90.0000 231 1

