# MOL2 file generated by ConQuest
# Please check atom types

@<TRIPOS>MOLECULE
MOLDOH
    44    43     1
SMALL
USER_CHARGES
****
Generated from CSD

@<TRIPOS>ATOM
      1 O1        -1.1286    2.2412    7.8711 O.2       1 RES1   -1.0000
      2 O2        -0.1116    3.4660    5.9934 O.3       1 RES1    0.0000
      3 N1         0.5798    3.5704    7.1981 N.2       1 RES1    0.0000
      4 N2        -0.0538    2.8538    8.0524 N.pl3     1 RES1    1.0000
      5 N3         0.5979    2.6919    9.2862 N.3       1 RES1    0.0000
      6 C1         0.5599    4.2973    5.0293 C.3       1 RES1    0.0000
      7 H1         0.4963    5.2351    5.3064 H         1 RES1    0.0000
      8 H2         0.1383    4.1856    4.1518 H         1 RES1    0.0000
      9 H3         1.5029    4.0368    4.9737 H         1 RES1    0.0000
     10 C2         1.7965    3.5285    9.4402 C.3       1 RES1    0.0000
     11 H4         2.4687    3.2614    8.7785 H         1 RES1    0.0000
     12 H5         2.1623    3.4131   10.3423 H         1 RES1    0.0000
     13 H6         1.5586    4.4692    9.3026 H         1 RES1    0.0000
     14 C3        -0.3578    2.7362   10.4150 C.3       1 RES1    0.0000
     15 H7         0.1248    2.4927   11.2445 H         1 RES1    0.0000
     16 H8        -1.0553    2.0499   10.2634 H         1 RES1    0.0000
     17 C4        -1.0388    4.0786   10.6291 C.3       1 RES1    0.0000
     18 H9        -1.5806    4.3024    9.8314 H         1 RES1    0.0000
     19 H10       -0.3505    4.7819   10.7384 H         1 RES1    0.0000
     20 C5        -1.9377    4.0557   11.8593 C.3       1 RES1    0.0000
     21 H11       -1.3842    3.8691   12.6587 H         1 RES1    0.0000
     22 H12       -2.5929    3.3199   11.7661 H         1 RES1    0.0000
     23 O1B       -3.4977    7.1795   16.0584 O.2       1 RES1   -1.0000
     24 O2B       -4.5147    5.9547   17.9361 O.3       1 RES1    0.0000
     25 N1B       -5.2060    5.8503   16.7314 N.2       1 RES1    0.0000
     26 N2B       -4.5725    6.5669   15.8771 N.pl3     1 RES1    1.0000
     27 N3B       -5.2242    6.7288   14.6433 N.3       1 RES1    0.0000
     28 C1B       -5.1862    5.1234   18.9002 C.3       1 RES1    0.0000
     29 H1B       -5.1226    4.1856   18.6231 H         1 RES1    0.0000
     30 H2B       -4.7646    5.2351   19.7777 H         1 RES1    0.0000
     31 H3B       -6.1292    5.3839   18.9558 H         1 RES1    0.0000
     32 C2B       -6.4227    5.8922   14.4893 C.3       1 RES1    0.0000
     33 H4B       -7.0950    6.1593   15.1510 H         1 RES1    0.0000
     34 H5B       -6.7886    6.0076   13.5872 H         1 RES1    0.0000
     35 H6B       -6.1849    4.9515   14.6269 H         1 RES1    0.0000
     36 C3B       -4.2685    6.6845   13.5145 C.3       1 RES1    0.0000
     37 H7B       -4.7511    6.9280   12.6850 H         1 RES1    0.0000
     38 H8B       -3.5709    7.3708   13.6661 H         1 RES1    0.0000
     39 C4B       -3.5875    5.3421   13.3004 C.3       1 RES1    0.0000
     40 H9B       -3.0457    5.1183   14.0981 H         1 RES1    0.0000
     41 H10B      -4.2758    4.6388   13.1911 H         1 RES1    0.0000
     42 C5B       -2.6886    5.3650   12.0702 C.3       1 RES1    0.0000
     43 H11B      -3.2421    5.5516   11.2708 H         1 RES1    0.0000
     44 H12B      -2.0334    6.1008   12.1634 H         1 RES1    0.0000
@<TRIPOS>BOND
     1    1    4 1
     2    2    3 1
     3    3    4 2
     4    4    5 1
     5    5   10 1
     6    6    2 1
     7    7    6 1
     8    8    6 1
     9    9    6 1
    10   10   11 1
    11   12   10 1
    12   13   10 1
    13   14    5 1
    14   15   14 1
    15   16   14 1
    16   17   14 1
    17   18   17 1
    18   19   17 1
    19   20   17 1
    20   21   20 1
    21   22   20 1
    22   23   26 1
    23   24   25 1
    24   25   26 2
    25   26   27 1
    26   27   32 1
    27   28   24 1
    28   29   28 1
    29   30   28 1
    30   31   28 1
    31   32   33 1
    32   34   32 1
    33   35   32 1
    34   36   27 1
    35   37   36 1
    36   38   36 1
    37   39   36 1
    38   40   39 1
    39   41   39 1
    40   42   20 1
    41   43   42 1
    42   44   42 1
    43   39   42 1
@<TRIPOS>SUBSTRUCTURE
     1 RES1 1

@<TRIPOS>CRYSIN
   6.7115    9.4207   12.1863  90.0000 100.9420  90.0000 231 1

