# MOL2 file generated by ConQuest
# Please check atom types

@<TRIPOS>MOLECULE
MOLQUB
    31    32     1
SMALL
NO_CHARGES
****
Generated from CSD

@<TRIPOS>ATOM
      1 O1         1.0150    4.7171    5.3373 O.3       1 RES1    0.0000
      2 N1         0.9782    4.1098    4.0460 N.2       1 RES1    0.0000
      3 C1         1.2044    5.1064    3.2398 C.2       1 RES1    0.0000
      4 N2         1.3865    6.3252    3.8730 N.2       1 RES1    0.0000
      5 C2         1.2673    6.0184    5.1230 C.2       1 RES1    0.0000
      6 C3         1.2125    4.9678    1.7399 C.3       1 RES1    0.0000
      7 C4         1.3549    3.5003    1.3328 C.3       1 RES1    0.0000
      8 H1         2.2027    3.1477    1.6757 H         1 RES1    0.0000
      9 H2         1.3415    3.4294    0.3550 H         1 RES1    0.0000
     10 H3         0.6106    2.9833    1.7071 H         1 RES1    0.0000
     11 C5        -0.1216    5.5197    1.2281 C.3       1 RES1    0.0000
     12 H4        -0.8585    4.9998    1.6105 H         1 RES1    0.0000
     13 H5        -0.1485    5.4542    0.2506 H         1 RES1    0.0000
     14 H6        -0.2109    6.4583    1.4956 H         1 RES1    0.0000
     15 C6         2.3746    5.7882    1.1691 C.3       1 RES1    0.0000
     16 H7         2.2799    6.7235    1.4434 H         1 RES1    0.0000
     17 H8         2.3639    5.7332    0.1905 H         1 RES1    0.0000
     18 H9         3.2231    5.4321    1.5087 H         1 RES1    0.0000
     19 C7         1.3960    6.8921    6.2918 C.ar      1 RES1    0.0000
     20 C8         1.2616    6.3819    7.5839 C.ar      1 RES1    0.0000
     21 H10        1.0553    5.4625    7.7079 H         1 RES1    0.0000
     22 C9         1.4261    7.2008    8.6804 C.ar      1 RES1    0.0000
     23 H11        1.3328    6.8602    9.5637 H         1 RES1    0.0000
     24 C10        1.7302    8.5300    8.4596 C.ar      1 RES1    0.0000
     25 C11        1.8472    9.0668    7.1921 C.ar      1 RES1    0.0000
     26 H12        2.0428    9.9885    7.0736 H         1 RES1    0.0000
     27 C12        1.6747    8.2394    6.1003 C.ar      1 RES1    0.0000
     28 H13        1.7466    8.5908    5.2204 H         1 RES1    0.0000
     29 N3         1.9729    9.4022    9.6230 N.pl3     1 RES1    0.0000
     30 O2         1.8253    8.9284   10.7469 O.2       1 RES1    0.0000
     31 O3         2.3261   10.5621    9.4144 O.2       1 RES1    0.0000
@<TRIPOS>BOND
     1    1    2 1
     2    2    3 2
     3    3    4 1
     4    4    5 2
     5    5    1 1
     6    6    3 1
     7    7    6 1
     8    8    7 1
     9    9    7 1
    10   10    7 1
    11   11    6 1
    12   12   11 1
    13   13   11 1
    14   14   11 1
    15   15    6 1
    16   16   15 1
    17   17   15 1
    18   18   15 1
    19   19    5 1
    20   20   19 ar
    21   21   20 1
    22   22   20 ar
    23   23   22 1
    24   24   22 ar
    25   25   24 ar
    26   26   25 1
    27   27   19 ar
    28   28   27 1
    29   29   24 1
    30   30   29 2
    31   31   29 2
    32   25   27 ar
@<TRIPOS>SUBSTRUCTURE
     1 RES1 1

@<TRIPOS>CRYSIN
   6.7175   13.8116   26.1018  90.0000  90.0000  90.0000  61 1

