# MOL2 file generated by ConQuest
# Please check atom types

@<TRIPOS>MOLECULE
MOMBNO10
    24    24     1
SMALL
NO_CHARGES
****
Generated from CSD

@<TRIPOS>ATOM
      1 C1         0.6145   -0.9647    1.4144 C.2       1 RES1    0.0000
      2 C2        -0.5867   -0.4326    1.9280 C.2       1 RES1    0.0000
      3 C3        -1.7852   -0.9621    1.4734 C.2       1 RES1    0.0000
      4 C4        -1.7803   -1.9740    0.5128 C.2       1 RES1    0.0000
      5 C5        -0.5853   -2.4959    0.0025 C.2       1 RES1    0.0000
      6 C6         0.6321   -1.9727    0.4580 C.2       1 RES1    0.0000
      7 C7         1.8451   -0.3956    1.8858 C.2       1 RES1    0.0000
      8 N1         2.7608    0.1148    2.3522 N.2       1 RES1    0.0000
      9 O1         3.7780    0.6393    2.8532 O.2       1 RES1    0.0000
     10 C8        -0.5819    0.6954    2.9426 C.3       1 RES1    0.0000
     11 C9         1.9165   -2.5571   -0.1012 C.3       1 RES1    0.0000
     12 O2        -3.0085   -2.4142    0.1172 O.3       1 RES1    0.0000
     13 C10       -3.0802   -3.3686   -0.9530 C.3       1 RES1    0.0000
     14 H1        -2.7791   -0.5232    1.8555 H         1 RES1    0.0000
     15 H2        -0.5591   -3.2155   -0.7591 H         1 RES1    0.0000
     16 H3        -1.5338    1.1101    3.2133 H         1 RES1    0.0000
     17 H4        -0.0187    1.6333    2.4964 H         1 RES1    0.0000
     18 H5        -0.2158    0.4211    3.8880 H         1 RES1    0.0000
     19 H6         2.6270   -1.8502   -0.2277 H         1 RES1    0.0000
     20 H7         1.8053   -2.8965   -1.1554 H         1 RES1    0.0000
     21 H8         2.1664   -3.3304    0.4639 H         1 RES1    0.0000
     22 H9        -4.1363   -3.5473   -1.2060 H         1 RES1    0.0000
     23 H10       -2.6491   -4.2746   -0.7591 H         1 RES1    0.0000
     24 H11       -2.5961   -2.9731   -1.9229 H         1 RES1    0.0000
@<TRIPOS>BOND
     1    1    2 1
     2    2    3 1
     3    3    4 1
     4    4    5 1
     5    5    6 1
     6    6    1 1
     7    7    1 1
     8    8    7 1
     9    9    8 1
    10   10    2 1
    11   11    6 1
    12   12    4 1
    13   13   12 1
    14   14    3 1
    15   15    5 1
    16   16   10 1
    17   17   10 1
    18   18   10 1
    19   19   11 1
    20   20   11 1
    21   21   11 1
    22   22   13 1
    23   23   13 1
    24   24   13 1
@<TRIPOS>SUBSTRUCTURE
     1 RES1 1

@<TRIPOS>CRYSIN
   8.3600   12.7600    9.0100  90.0000 110.6000  90.0000  14 1

