# MOL2 file generated by ConQuest
# Please check atom types

@<TRIPOS>MOLECULE
MOMFOL
    45    46     1
SMALL
NO_CHARGES
****
Generated from CSD

@<TRIPOS>ATOM
      1 N1         4.8129    3.5920    7.5524 N.am      1 RES1    0.0000
      2 H1         5.4681    3.7829    7.0291 H         1 RES1    0.0000
      3 O1         0.4008   -0.7353    5.7442 O.3       1 RES1    0.0000
      4 N2        -0.3613   -1.4893    4.8153 N.2       1 RES1    0.0000
      5 O2         3.9753    3.8674    9.6551 O.2       1 RES1    0.0000
      6 O3         7.8085    7.1018    9.8128 O.2       1 RES1    0.0000
      7 C1         0.1787   -1.1925    3.6631 C.2       1 RES1    0.0000
      8 N3         1.2392   -0.3137    3.7432 N.2       1 RES1    0.0000
      9 O4         6.8889    7.2765   11.8492 O.3       1 RES1    0.0000
     10 C2         1.3182   -0.0672    5.0191 C.2       1 RES1    0.0000
     11 C3        -0.3398   -1.7121    2.3465 C.3       1 RES1    0.0000
     12 C4        -1.3540   -2.8281    2.5842 C.3       1 RES1    0.0000
     13 H2        -0.9205   -3.5669    3.0600 H         1 RES1    0.0000
     14 H3        -1.6939   -3.1498    1.7226 H         1 RES1    0.0000
     15 H4        -2.0980   -2.4844    3.1204 H         1 RES1    0.0000
     16 C5        -1.0149   -0.5478    1.6070 C.3       1 RES1    0.0000
     17 H5        -1.7956   -0.2461    2.1155 H         1 RES1    0.0000
     18 H6        -1.3003   -0.8468    0.7178 H         1 RES1    0.0000
     19 H7        -0.3793    0.1918    1.5136 H         1 RES1    0.0000
     20 C6         0.8062   -2.2505    1.4987 C.3       1 RES1    0.0000
     21 H8         1.4894   -1.5558    1.3952 H         1 RES1    0.0000
     22 H9         0.4661   -2.5093    0.6170 H         1 RES1    0.0000
     23 H10        1.1992   -3.0326    1.9392 H         1 RES1    0.0000
     24 C7         2.2189    0.8479    5.7132 C.ar      1 RES1    0.0000
     25 C8         3.3307    1.3797    5.0382 C.ar      1 RES1    0.0000
     26 H11        3.5036    1.1297    4.1379 H         1 RES1    0.0000
     27 C9         4.1669    2.2609    5.6792 C.ar      1 RES1    0.0000
     28 H12        4.9251    2.6046    5.2208 H         1 RES1    0.0000
     29 C10        3.9177    2.6614    6.9991 C.ar      1 RES1    0.0000
     30 C11        2.8072    2.1471    7.6705 C.ar      1 RES1    0.0000
     31 H13        2.6197    2.4180    8.5603 H         1 RES1    0.0000
     32 C12        1.9769    1.2348    7.0263 C.ar      1 RES1    0.0000
     33 H14        1.2333    0.8707    7.4925 H         1 RES1    0.0000
     34 C13        4.8246    4.1171    8.8175 C.2       1 RES1    0.0000
     35 C14        5.9992    5.0350    9.0794 C.3       1 RES1    0.0000
     36 H15        6.1419    5.6161    8.2908 H         1 RES1    0.0000
     37 H16        6.8165    4.4914    9.2076 H         1 RES1    0.0000
     38 C15        5.7755    5.9065   10.3119 C.3       1 RES1    0.0000
     39 H17        4.9636    6.4570   10.1772 H         1 RES1    0.0000
     40 H18        5.6189    5.3236   11.0964 H         1 RES1    0.0000
     41 C16        6.9405    6.8111   10.5960 C.2       1 RES1    0.0000
     42 C17        7.9644    8.1673   12.2187 C.3       1 RES1    0.0000
     43 H19        8.8218    7.7055   12.1114 H         1 RES1    0.0000
     44 H20        7.8548    8.4414   13.1540 H         1 RES1    0.0000
     45 H21        7.9453    8.9592   11.6404 H         1 RES1    0.0000
@<TRIPOS>BOND
     1    1    2 1
     2    3    4 1
     3    4    7 2
     4    5   34 2
     5    6   41 2
     6    7    8 1
     7    8   10 2
     8    9   41 1
     9   10    3 1
    10   11    7 1
    11   12   11 1
    12   13   12 1
    13   14   12 1
    14   15   12 1
    15   16   11 1
    16   17   16 1
    17   18   16 1
    18   19   16 1
    19   20   11 1
    20   21   20 1
    21   22   20 1
    22   23   20 1
    23   24   10 1
    24   25   24 ar
    25   26   25 1
    26   27   25 ar
    27   28   27 1
    28   29    1 1
    29   30   29 ar
    30   31   30 1
    31   32   24 ar
    32   33   32 1
    33   34    1 1
    34   35   34 1
    35   36   35 1
    36   37   35 1
    37   38   35 1
    38   39   38 1
    39   40   38 1
    40   41   38 1
    41   42    9 1
    42   43   42 1
    43   44   42 1
    44   45   42 1
    45   27   29 ar
    46   30   32 ar
@<TRIPOS>SUBSTRUCTURE
     1 RES1 1

@<TRIPOS>CRYSIN
   5.4494    6.1403   25.2830  86.9060  85.2770  72.9260   2 1

