# MOL2 file generated by ConQuest
# Please check atom types

@<TRIPOS>MOLECULE
MOMGAY
    62    64     2
SMALL
NO_CHARGES
****
Generated from CSD

@<TRIPOS>ATOM
      1 O1         4.7864    0.0229   10.0782 O.3       1 RES1    0.0000
      2 N1         7.0128    6.0023   10.4779 N.pl3     1 RES1    0.0000
      3 H1         6.5546    6.7666   10.5658 H         1 RES1    0.0000
      4 H2         7.7572    5.9861   10.9585 H         1 RES1    0.0000
      5 N2         3.8203   -1.0273   10.1564 N.2       1 RES1    0.0000
      6 C1         2.6935   -0.3897   10.3351 C.2       1 RES1    0.0000
      7 N3         2.8230    0.9920   10.3795 N.2       1 RES1    0.0000
      8 C2         4.1068    1.1788   10.2356 C.2       1 RES1    0.0000
      9 C3         1.3802   -1.0967   10.5257 C.3       1 RES1    0.0000
     10 C4         1.5665   -2.6081   10.4196 C.3       1 RES1    0.0000
     11 H3         1.9037   -2.8334    9.5278 H         1 RES1    0.0000
     12 H4         0.7072   -3.0545   10.5658 H         1 RES1    0.0000
     13 H5         2.2087   -2.9062   11.0967 H         1 RES1    0.0000
     14 C5         0.8385   -0.7315   11.9106 C.3       1 RES1    0.0000
     15 H6         1.4660   -1.0379   12.5981 H         1 RES1    0.0000
     16 H7        -0.0303   -1.1634   12.0454 H         1 RES1    0.0000
     17 H8         0.7326    0.2410   11.9746 H         1 RES1    0.0000
     18 C6         0.3990   -0.6276    9.4472 C.3       1 RES1    0.0000
     19 H9         0.2564    0.3384    9.5328 H         1 RES1    0.0000
     20 H10       -0.4562   -1.0943    9.5581 H         1 RES1    0.0000
     21 H11        0.7673   -0.8268    8.5605 H         1 RES1    0.0000
     22 C7         4.8667    2.4144   10.2684 C.ar      1 RES1    0.0000
     23 C8         4.2459    3.6352   10.0264 C.ar      1 RES1    0.0000
     24 H12        3.3232    3.6530    9.8008 H         1 RES1    0.0000
     25 C9         4.9446    4.8168   10.1071 C.ar      1 RES1    0.0000
     26 H13        4.5048    5.6396    9.9289 H         1 RES1    0.0000
     27 C10        6.2939    4.8143   10.4479 C.ar      1 RES1    0.0000
     28 C11        6.9247    3.5951   10.6897 C.ar      1 RES1    0.0000
     29 H14        7.8459    3.5802   10.9214 H         1 RES1    0.0000
     30 C12        6.2260    2.4119   10.5970 C.ar      1 RES1    0.0000
     31 H15        6.6710    1.5882   10.7579 H         1 RES1    0.0000
     32 O2        13.0202    3.8930    5.5847 O.3       2 RES2    0.0000
     33 N4         7.3259    6.0666    7.4038 N.pl3     2 RES2    0.0000
     34 H16        6.7473    6.5792    6.9411 H         2 RES2    0.0000
     35 H17        7.2730    6.0944    8.2960 H         2 RES2    0.0000
     36 N5        14.1209    3.7126    4.6911 N.2       2 RES2    0.0000
     37 C13       13.6371    4.0603    3.5326 C.2       2 RES2    0.0000
     38 N6        12.3127    4.4513    3.5550 N.2       2 RES2    0.0000
     39 C14       11.9924    4.3353    4.8200 C.2       2 RES2    0.0000
     40 C15       14.4601    4.0232    2.2753 C.3       2 RES2    0.0000
     41 C16       15.9552    3.9741    2.6229 C.3       2 RES2    0.0000
     42 H18       16.1981    4.7727    3.1360 H         2 RES2    0.0000
     43 H19       16.4826    3.9441    1.7964 H         2 RES2    0.0000
     44 H20       16.1397    3.1736    3.1580 H         2 RES2    0.0000
     45 C17       14.0729    2.7755    1.4838 C.3       2 RES2    0.0000
     46 H21       14.2642    1.9766    2.0188 H         2 RES2    0.0000
     47 H22       14.5891    2.7425    0.6522 H         2 RES2    0.0000
     48 H23       13.1171    2.8061    1.2723 H         2 RES2    0.0000
     49 C18       14.1464    5.2692    1.4443 C.3       2 RES2    0.0000
     50 H24       13.1902    5.2876    1.2318 H         2 RES2    0.0000
     51 H25       14.6661    5.2466    0.6134 H         2 RES2    0.0000
     52 H26       14.3832    6.0707    1.9565 H         2 RES2    0.0000
     53 C19       10.7591    4.6778    5.4885 C.ar      2 RES2    0.0000
     54 C20        9.7168    5.2492    4.7612 C.ar      2 RES2    0.0000
     55 H27        9.7919    5.3249    3.8168 H         2 RES2    0.0000
     56 C21        8.5824    5.7046    5.3871 C.ar      2 RES2    0.0000
     57 H28        7.8819    6.0880    4.8717 H         2 RES2    0.0000
     58 C22        8.4473    5.6104    6.7758 C.ar      2 RES2    0.0000
     59 C23        9.4730    4.9883    7.5024 C.ar      2 RES2    0.0000
     60 H29        9.3828    4.8746    8.4409 H         2 RES2    0.0000
     61 C24       10.6058    4.5418    6.8710 C.ar      2 RES2    0.0000
     62 H30       11.2967    4.1342    7.3809 H         2 RES2    0.0000
@<TRIPOS>BOND
     1    1    5 1
     2    2    3 1
     3    4    2 1
     4    5    6 2
     5    6    7 1
     6    7    8 2
     7    8    1 1
     8    9    6 1
     9   10    9 1
    10   11   10 1
    11   12   10 1
    12   13   10 1
    13   14    9 1
    14   15   14 1
    15   16   14 1
    16   17   14 1
    17   18    9 1
    18   19   18 1
    19   20   18 1
    20   21   18 1
    21   22    8 1
    22   23   22 ar
    23   24   23 1
    24   25   23 ar
    25   26   25 1
    26   27    2 1
    27   28   27 ar
    28   29   28 1
    29   30   22 ar
    30   31   30 1
    31   32   36 1
    32   33   34 1
    33   35   33 1
    34   36   37 2
    35   37   38 1
    36   38   39 2
    37   39   32 1
    38   40   37 1
    39   41   40 1
    40   42   41 1
    41   43   41 1
    42   44   41 1
    43   45   40 1
    44   46   45 1
    45   47   45 1
    46   48   45 1
    47   49   40 1
    48   50   49 1
    49   51   49 1
    50   52   49 1
    51   53   39 1
    52   54   53 ar
    53   55   54 1
    54   56   54 ar
    55   57   56 1
    56   58   33 1
    57   59   58 ar
    58   60   59 1
    59   61   53 ar
    60   62   61 1
    61   25   27 ar
    62   28   30 ar
    63   56   58 ar
    64   59   61 ar
@<TRIPOS>SUBSTRUCTURE
     1 RES1 1
     2 RES2 32

@<TRIPOS>CRYSIN
  15.6514    9.0961   18.4999  90.0000 114.3710  90.0000  14 1

