# MOL2 file generated by ConQuest
# Please check atom types

@<TRIPOS>MOLECULE
MOMHON
   103   100     3
SMALL
NO_CHARGES
****
Generated from CSD

@<TRIPOS>ATOM
      1 C1        -0.0760   -0.9830   11.9417 C.3       1 RES1    0.0000
      2 H1         0.1552   -1.4992   11.1298 H         1 RES1    0.0000
      3 H2         0.7676   -0.6425   12.3333 H         1 RES1    0.0000
      4 C2        -0.9477    0.1993   11.5427 C.3       1 RES1    0.0000
      5 H3        -1.7651   -0.1582   11.0906 H         1 RES1    0.0000
      6 C3        -0.1657    1.0655   10.5104 C.3       1 RES1    0.0000
      7 H4         0.6655    1.3921   10.9605 H         1 RES1    0.0000
      8 C4        -0.9662    2.2811   10.0925 C.2       1 RES1    0.0000
      9 C5        -0.4827    3.4950   10.3011 C.2       1 RES1    0.0000
     10 H5         0.3643    3.5386   10.7286 H         1 RES1    0.0000
     11 C6        -1.1081    4.8182    9.9438 C.3       1 RES1    0.0000
     12 H6        -2.0440    4.6703    9.6567 H         1 RES1    0.0000
     13 H7        -0.6157    5.2179    9.1834 H         1 RES1    0.0000
     14 C7        -1.3926    1.0032   12.7517 C.ar      1 RES1    0.0000
     15 C8        -0.4759    1.6002   13.6074 C.ar      1 RES1    0.0000
     16 H8         0.4538    1.5138   13.4319 H         1 RES1    0.0000
     17 C9        -0.8978    2.3193   14.7125 C.ar      1 RES1    0.0000
     18 H9        -0.2563    2.7184   15.2874 H         1 RES1    0.0000
     19 C10       -2.2406    2.4595   14.9865 C.ar      1 RES1    0.0000
     20 H10       -2.5281    2.9423   15.7528 H         1 RES1    0.0000
     21 C11       -3.1546    1.8924   14.1349 C.ar      1 RES1    0.0000
     22 H11       -4.0832    2.0005   14.3032 H         1 RES1    0.0000
     23 C12       -2.7388    1.1650   13.0323 C.ar      1 RES1    0.0000
     24 H12       -3.3865    0.7715   12.4603 H         1 RES1    0.0000
     25 C13        0.2640    0.2441    9.2823 C.3       1 RES1    0.0000
     26 H13       -0.4994   -0.2726    8.9515 H         1 RES1    0.0000
     27 H14        0.9875   -0.3675    9.5344 H         1 RES1    0.0000
     28 H15        0.5793    0.8494    8.5785 H         1 RES1    0.0000
     29 C14       -2.2781    2.0224    9.3951 C.3       1 RES1    0.0000
     30 H16       -2.7112    2.8766    9.1865 H         1 RES1    0.0000
     31 H17       -2.8604    1.4943    9.9795 H         1 RES1    0.0000
     32 H18       -2.1148    1.5284    8.5644 H         1 RES1    0.0000
     33 C15       -1.0901    5.7830   11.1111 C.ar      1 RES1    0.0000
     34 C16       -0.7008    7.1091   10.9524 C.ar      1 RES1    0.0000
     35 H19       -0.4518    7.4228   10.0908 H         1 RES1    0.0000
     36 C17       -0.6705    7.9772   12.0285 C.ar      1 RES1    0.0000
     37 H20       -0.4041    8.8781   11.8914 H         1 RES1    0.0000
     38 C18       -1.0210    7.5600   13.3060 C.ar      1 RES1    0.0000
     39 C19       -1.4228    6.2327   13.4618 C.ar      1 RES1    0.0000
     40 H21       -1.6787    5.9212   14.3220 H         1 RES1    0.0000
     41 C20       -1.4567    5.3588   12.3883 C.ar      1 RES1    0.0000
     42 H22       -1.7324    4.4610   12.5229 H         1 RES1    0.0000
     43 C21       -0.9509    8.4909   14.4831 C.3       1 RES1    0.0000
     44 H23       -0.1739    9.0801   14.3878 H         1 RES1    0.0000
     45 H24       -0.8641    7.9679   15.3077 H         1 RES1    0.0000
     46 H25       -1.7683    9.0315   14.5226 H         1 RES1    0.0000
     47 N1        -0.7392   -1.8971   12.9296 N.pl3     1 RES1    0.0000
     48 O1        -0.0200   -2.4941   13.7044 O.2       1 RES1    0.0000
     49 O2        -1.9589   -2.0321   12.8920 O.2       1 RES1    0.0000
     50 C22        1.2107    4.0438    4.7269 C.3       2 RES2    0.0000
     51 H26        1.4354    3.4096    4.0009 H         2 RES2    0.0000
     52 H27        2.0549    4.4439    5.0540 H         2 RES2    0.0000
     53 C23        0.3183    5.1485    4.1656 C.3       2 RES2    0.0000
     54 H28       -0.4900    4.7214    3.7611 H         2 RES2    0.0000
     55 C24        1.0867    5.9059    3.0354 C.3       2 RES2    0.0000
     56 H29        1.8733    6.3544    3.4602 H         2 RES2    0.0000
     57 C25        0.2261    6.9964    2.4244 C.2       2 RES2    0.0000
     58 C26        0.5975    8.2634    2.5471 C.2       2 RES2    0.0000
     59 H30        1.4011    8.4084    3.0324 H         2 RES2    0.0000
     60 C27       -0.0788    9.5026    2.0227 C.3       2 RES2    0.0000
     61 H31       -1.0014    9.2748    1.7442 H         2 RES2    0.0000
     62 H32        0.4085    9.8248    1.2239 H         2 RES2    0.0000
     63 C28       -0.1440    6.1032    5.2532 C.ar      2 RES2    0.0000
     64 C29        0.7661    6.7448    6.0963 C.ar      2 RES2    0.0000
     65 H33        1.6959    6.5783    5.9958 H         2 RES2    0.0000
     66 C30        0.3328    7.6209    7.0753 C.ar      2 RES2    0.0000
     67 H34        0.9642    8.0458    7.6445 H         2 RES2    0.0000
     68 C31       -1.0178    7.8808    7.2264 C.ar      2 RES2    0.0000
     69 H35       -1.3150    8.4814    7.8983 H         2 RES2    0.0000
     70 C32       -1.9328    7.2612    6.3947 C.ar      2 RES2    0.0000
     71 H36       -2.8598    7.4423    6.4911 H         2 RES2    0.0000
     72 C33       -1.4970    6.3756    5.4215 C.ar      2 RES2    0.0000
     73 H37       -2.1337    5.9480    4.8612 H         2 RES2    0.0000
     74 C34        1.6320    4.9526    1.9591 C.3       2 RES2    0.0000
     75 H38        0.9193    4.3490    1.6659 H         2 RES2    0.0000
     76 H39        2.3720    4.4293    2.3319 H         2 RES2    0.0000
     77 H40        1.9541    5.4734    1.1942 H         2 RES2    0.0000
     78 C35       -1.0123    6.5530    1.6762 C.3       2 RES2    0.0000
     79 H41       -1.6642    6.1889    2.3100 H         2 RES2    0.0000
     80 H42       -0.7709    5.8628    1.0249 H         2 RES2    0.0000
     81 H43       -1.4040    7.3206    1.2083 H         2 RES2    0.0000
     82 C36       -0.1286   10.6066    3.0536 C.ar      2 RES2    0.0000
     83 C37        0.1626   11.9256    2.7257 C.ar      2 RES2    0.0000
     84 H44        0.3818   12.1515    1.8288 H         2 RES2    0.0000
     85 C38        0.1358   12.9186    3.6965 C.ar      2 RES2    0.0000
     86 H45        0.3290   13.8161    3.4540 H         2 RES2    0.0000
     87 C39       -0.1716   12.6146    5.0205 C.ar      2 RES2    0.0000
     88 C40       -0.4648   11.3023    5.3395 C.ar      2 RES2    0.0000
     89 H46       -0.6857   11.0782    6.2356 H         2 RES2    0.0000
     90 C41       -0.4421   10.3096    4.3801 C.ar      2 RES2    0.0000
     91 H47       -0.6428    9.4136    4.6262 H         2 RES2    0.0000
     92 C42       -0.1771   13.6387    6.1055 C.3       2 RES2    0.0000
     93 H48       -1.0965   13.9354    6.2701 H         2 RES2    0.0000
     94 H49        0.3683   14.4051    5.8329 H         2 RES2    0.0000
     95 H50        0.1926   13.2491    6.9252 H         2 RES2    0.0000
     96 N2         0.5575    3.2950    5.8477 N.pl3     2 RES2    0.0000
     97 O3         1.2728    2.9467    6.7709 O.2       2 RES2    0.0000
     98 O4        -0.6379    3.0521    5.7810 O.2       2 RES2    0.0000
     99 H51       -0.1800   13.2904    5.6871 Du        3 SUP3    0.0000
    100 C43        0.4194   12.3656    1.2286 Du        3 SUP3    0.0000
    101 H52        0.7113   13.3002    1.2083 Du        3 SUP3    0.0000
    102 H53       -0.4096   12.2707    0.7146 Du        3 SUP3    0.0000
    103 H54        1.1142   11.7961    0.8368 Du        3 SUP3    0.0000
@<TRIPOS>BOND
     1    1    2 1
     2    3    1 1
     3    4    1 1
     4    5    4 1
     5    6    4 1
     6    7    6 1
     7    8    6 1
     8    9    8 2
     9   10    9 1
    10   11    9 1
    11   12   11 1
    12   13   11 1
    13   14    4 1
    14   15   14 ar
    15   16   15 1
    16   17   15 ar
    17   18   17 1
    18   19   17 ar
    19   20   19 1
    20   21   19 ar
    21   22   21 1
    22   23   14 ar
    23   24   23 1
    24   25    6 1
    25   26   25 1
    26   27   25 1
    27   28   25 1
    28   29    8 1
    29   30   29 1
    30   31   29 1
    31   32   29 1
    32   33   11 1
    33   34   33 ar
    34   35   34 1
    35   36   34 ar
    36   37   36 1
    37   38   36 ar
    38   39   38 ar
    39   40   39 1
    40   41   33 ar
    41   42   41 1
    42   43   38 1
    43   44   43 1
    44   45   43 1
    45   46   43 1
    46   47    1 1
    47   48   47 2
    48   49   47 2
    49   50   51 1
    50   52   50 1
    51   53   50 1
    52   54   53 1
    53   55   53 1
    54   56   55 1
    55   57   55 1
    56   58   57 2
    57   59   58 1
    58   60   58 1
    59   61   60 1
    60   62   60 1
    61   63   53 1
    62   64   63 ar
    63   65   64 1
    64   66   64 ar
    65   67   66 1
    66   68   66 ar
    67   69   68 1
    68   70   68 ar
    69   71   70 1
    70   72   63 ar
    71   73   72 1
    72   74   55 1
    73   75   74 1
    74   76   74 1
    75   77   74 1
    76   78   57 1
    77   79   78 1
    78   80   78 1
    79   81   78 1
    80   82   60 1
    81   83   82 ar
    82   84   83 1
    83   85   83 ar
    84   86   85 1
    85   87   85 ar
    86   88   87 ar
    87   89   88 1
    88   90   82 ar
    89   91   90 1
    90   92   87 1
    91   93   92 1
    92   94   92 1
    93   95   92 1
    94   96   50 1
    95   97   96 2
    96   98   96 2
    97   21   23 ar
    98   39   41 ar
    99   70   72 ar
   100   88   90 ar
@<TRIPOS>SUBSTRUCTURE
     1 RES1 1
     2 RES2 50
     3 SUP3 99

@<TRIPOS>CRYSIN
   9.6634   24.3370   15.8310  90.0000  98.1450  90.0000 231 1

