# MOL2 file generated by ConQuest
# Please check atom types

@<TRIPOS>MOLECULE
MOMWIW
    98   102     2
SMALL
NO_CHARGES
****
Generated from CSD

@<TRIPOS>ATOM
      1 C1         8.8307    1.5107    0.8968 C.ar      1 RES1    0.0000
      2 C2         9.0801    1.9250   -0.4087 C.ar      1 RES1    0.0000
      3 H1         8.7794    1.4341   -1.1390 H         1 RES1    0.0000
      4 C3         9.7983    3.1039   -0.5714 C.ar      1 RES1    0.0000
      5 H2         9.9792    3.4074   -1.4329 H         1 RES1    0.0000
      6 C4        10.2492    3.8322    0.5020 C.ar      1 RES1    0.0000
      7 H3        10.7275    4.6164    0.3532 H         1 RES1    0.0000
      8 C5        10.0042    3.4234    1.7949 C.ar      1 RES1    0.0000
      9 H4        10.3153    3.9193    2.5176 H         1 RES1    0.0000
     10 C6         9.2826    2.2499    2.0005 C.ar      1 RES1    0.0000
     11 C7         8.8275    1.5666    3.1773 C.2       1 RES1    0.0000
     12 H5         8.9744    1.8438    4.0527 H         1 RES1    0.0000
     13 C8         8.1541    0.4601    2.8145 C.2       1 RES1    0.0000
     14 C9         7.5320   -0.6136    0.6445 C.2       1 RES1    0.0000
     15 C10        6.8597   -1.6961    1.4266 C.3       1 RES1    0.0000
     16 H6         7.4780   -2.4375    1.5262 H         1 RES1    0.0000
     17 H7         6.0963   -2.0178    0.9208 H         1 RES1    0.0000
     18 C11        6.3843   -1.2683    2.8052 C.3       1 RES1    0.0000
     19 H8         6.0512   -2.0462    3.2807 H         1 RES1    0.0000
     20 H9         5.6507   -0.6423    2.7081 H         1 RES1    0.0000
     21 C12        7.4995   -0.6123    3.6364 C.3       1 RES1    0.0000
     22 C13        6.8821    0.0780    4.8952 C.3       1 RES1    0.0000
     23 H10        7.6116    0.3742    5.4616 H         1 RES1    0.0000
     24 H11        6.4091    0.8712    4.5988 H         1 RES1    0.0000
     25 C14        5.9593   -0.7189    5.7201 C.3       1 RES1    0.0000
     26 H12        5.2207   -1.0120    5.1815 H         1 RES1    0.0000
     27 H13        5.6340   -0.1814    6.4454 H         1 RES1    0.0000
     28 H14        6.4234   -1.4819    6.0708 H         1 RES1    0.0000
     29 C15        8.5318   -1.7084    4.0400 C.3       1 RES1    0.0000
     30 H15        8.1904   -2.1801    4.8170 H         1 RES1    0.0000
     31 H16        8.5981   -2.3497    3.3160 H         1 RES1    0.0000
     32 C16        9.9099   -1.2021    4.3579 C.2       1 RES1    0.0000
     33 C17       10.9303   -1.1794    3.2631 C.2       1 RES1    0.0000
     34 C18       11.1424   -1.7754   -0.1350 C.3       1 RES1    0.0000
     35 H17       10.7842   -2.6665   -0.1413 H         1 RES1    0.0000
     36 H18       11.8710   -1.7189   -0.7568 H         1 RES1    0.0000
     37 H19       10.4570   -1.1542   -0.3872 H         1 RES1    0.0000
     38 C19       12.3181   -0.7123    3.5897 C.2       1 RES1    0.0000
     39 C20       14.4158   -1.3677    4.4235 C.3       1 RES1    0.0000
     40 H20       14.9025   -1.0969    3.6402 H         1 RES1    0.0000
     41 H21       14.8392   -2.1360    4.8120 H         1 RES1    0.0000
     42 H22       14.4104   -0.6491    5.0592 H         1 RES1    0.0000
     43 N1         8.1332    0.3923    1.3905 N.am      1 RES1    0.0000
     44 N2        10.5697   -1.5339    2.0866 N.2       1 RES1    0.0000
     45 O1         7.5866   -0.5944   -0.5686 O.2       1 RES1    0.0000
     46 O2        10.2432   -0.8003    5.4534 O.2       1 RES1    0.0000
     47 O3        11.6156   -1.4582    1.1917 O.3       1 RES1    0.0000
     48 O4        12.6938    0.4009    3.4296 O.2       1 RES1    0.0000
     49 O5        13.0540   -1.6986    4.0552 O.3       1 RES1    0.0000
     50 C21        3.1015    6.2513    2.7232 C.ar      2 RES2    0.0000
     51 C22        1.8389    5.9288    2.2162 C.ar      2 RES2    0.0000
     52 H23        1.7374    5.3983    1.4594 H         2 RES2    0.0000
     53 C23        0.7563    6.4344    2.8922 C.ar      2 RES2    0.0000
     54 H24       -0.0984    6.2353    2.5832 H         2 RES2    0.0000
     55 C24        0.8896    7.2319    4.0224 C.ar      2 RES2    0.0000
     56 H25        0.1290    7.5589    4.4462 H         2 RES2    0.0000
     57 C25        2.1361    7.5453    4.5231 C.ar      2 RES2    0.0000
     58 H26        2.2260    8.0783    5.2799 H         2 RES2    0.0000
     59 C26        3.2675    7.0375    3.8609 C.ar      2 RES2    0.0000
     60 C27        4.6758    7.1395    4.1182 C.2       2 RES2    0.0000
     61 H27        5.0664    7.6158    4.8145 H         2 RES2    0.0000
     62 C28        5.3433    6.4288    3.1804 C.2       2 RES2    0.0000
     63 C29        4.6936    5.0642    1.1995 C.2       2 RES2    0.0000
     64 C30        6.1437    4.7840    0.9864 C.3       2 RES2    0.0000
     65 H28        6.3043    4.7027    0.0328 H         2 RES2    0.0000
     66 H29        6.3554    3.9299    1.3925 H         2 RES2    0.0000
     67 C31        7.0912    5.8355    1.5477 C.3       2 RES2    0.0000
     68 H30        7.0028    6.6513    1.0305 H         2 RES2    0.0000
     69 H31        8.0040    5.5221    1.4543 H         2 RES2    0.0000
     70 C32        6.8163    6.1470    3.0271 C.3       2 RES2    0.0000
     71 C33        7.6027    7.4020    3.4548 C.3       2 RES2    0.0000
     72 H32        7.2193    8.1698    3.0020 H         2 RES2    0.0000
     73 H33        7.4734    7.5323    4.4071 H         2 RES2    0.0000
     74 C34        9.0962    7.3824    3.1748 C.3       2 RES2    0.0000
     75 H34        9.4941    6.6256    3.6099 H         2 RES2    0.0000
     76 H35        9.4954    8.1888    3.5078 H         2 RES2    0.0000
     77 H36        9.2435    7.3202    2.2275 H         2 RES2    0.0000
     78 C35        7.2433    4.9296    3.9163 C.3       2 RES2    0.0000
     79 H37        7.1015    4.1095    3.4182 H         2 RES2    0.0000
     80 H38        8.1915    4.9982    4.1107 H         2 RES2    0.0000
     81 C36        6.4861    4.8524    5.2049 C.2       2 RES2    0.0000
     82 C37        5.2405    4.0283    5.2436 C.2       2 RES2    0.0000
     83 C38        3.3606    2.1478    3.0612 C.3       2 RES2    0.0000
     84 H39        3.1494    2.8660    2.4609 H         2 RES2    0.0000
     85 H40        2.5898    1.5853    3.1697 H         2 RES2    0.0000
     86 H41        4.0855    1.6312    2.7005 H         2 RES2    0.0000
     87 C39        4.4294    4.0064    6.5123 C.2       2 RES2    0.0000
     88 C40        2.5476    4.9116    7.5856 C.3       2 RES2    0.0000
     89 H42        2.2448    4.0274    7.8051 H         2 RES2    0.0000
     90 H43        1.7908    5.4656    7.3775 H         2 RES2    0.0000
     91 H44        3.0189    5.2827    8.3349 H         2 RES2    0.0000
     92 N3         4.3906    5.8634    2.2978 N.am      2 RES2    0.0000
     93 N4         4.9242    3.3881    4.1846 N.2       2 RES2    0.0000
     94 O6         3.8151    4.6232    0.4874 O.2       2 RES2    0.0000
     95 O7         6.8109    5.4545    6.2057 O.2       2 RES2    0.0000
     96 O8         3.7421    2.6837    4.3310 O.3       2 RES2    0.0000
     97 O9         4.6802    3.3047    7.4424 O.2       2 RES2    0.0000
     98 O10        3.4314    4.8497    6.4395 O.3       2 RES2    0.0000
@<TRIPOS>BOND
     1    1    2 ar
     2    2    3 1
     3    4    2 ar
     4    5    4 1
     5    6    4 ar
     6    7    6 1
     7    8    6 ar
     8    9    8 1
     9   10    1 ar
    10   11   10 1
    11   12   11 1
    12   13   11 2
    13   14   15 1
    14   15   16 1
    15   17   15 1
    16   18   15 1
    17   19   18 1
    18   20   18 1
    19   21   13 1
    20   22   21 1
    21   23   22 1
    22   24   22 1
    23   25   22 1
    24   26   25 1
    25   27   25 1
    26   28   25 1
    27   29   21 1
    28   30   29 1
    29   31   29 1
    30   32   29 1
    31   33   32 1
    32   34   35 1
    33   36   34 1
    34   37   34 1
    35   38   33 1
    36   39   40 1
    37   41   39 1
    38   42   39 1
    39   43    1 1
    40   44   33 2
    41   45   14 2
    42   46   32 2
    43   47   34 1
    44   48   38 2
    45   49   38 1
    46   50   51 ar
    47   51   52 1
    48   53   51 ar
    49   54   53 1
    50   55   53 ar
    51   56   55 1
    52   57   55 ar
    53   58   57 1
    54   59   50 ar
    55   60   59 1
    56   61   60 1
    57   62   60 2
    58   63   64 1
    59   64   65 1
    60   66   64 1
    61   67   64 1
    62   68   67 1
    63   69   67 1
    64   70   62 1
    65   71   70 1
    66   72   71 1
    67   73   71 1
    68   74   71 1
    69   75   74 1
    70   76   74 1
    71   77   74 1
    72   78   70 1
    73   79   78 1
    74   80   78 1
    75   81   78 1
    76   82   81 1
    77   83   84 1
    78   85   83 1
    79   86   83 1
    80   87   82 1
    81   88   89 1
    82   90   88 1
    83   91   88 1
    84   92   50 1
    85   93   82 2
    86   94   63 2
    87   95   81 2
    88   96   83 1
    89   97   87 2
    90   98   87 1
    91    8   10 ar
    92   13   43 1
    93   14   43 1
    94   18   21 1
    95   39   49 1
    96   44   47 1
    97   57   59 ar
    98   62   92 1
    99   63   92 1
   100   67   70 1
   101   88   98 1
   102   93   96 1
@<TRIPOS>SUBSTRUCTURE
     1 RES1 1
     2 RES2 50

@<TRIPOS>CRYSIN
  12.1990   12.8400   14.6210 100.6050 114.3570 104.0260   2 1

