# MOL2 file generated by ConQuest
# Please check atom types

@<TRIPOS>MOLECULE
MOMWUI
    49    52     1
SMALL
NO_CHARGES
****
Generated from CSD

@<TRIPOS>ATOM
      1 C1         0.1527    6.3856    3.3885 C.ar      1 RES1    0.0000
      2 C2        -0.7391    7.4066    3.6688 C.ar      1 RES1    0.0000
      3 H1        -1.6657    7.3258    3.4750 H         1 RES1    0.0000
      4 C3        -0.2155    8.5525    4.2469 C.ar      1 RES1    0.0000
      5 H2        -0.7968    9.2784    4.4450 H         1 RES1    0.0000
      6 C4         1.1402    8.6694    4.5461 C.ar      1 RES1    0.0000
      7 H3         1.4674    9.4760    4.9279 H         1 RES1    0.0000
      8 C5         2.0158    7.6308    4.2966 C.ar      1 RES1    0.0000
      9 H4         2.9365    7.7078    4.5210 H         1 RES1    0.0000
     10 C6         1.5208    6.4661    3.7085 C.ar      1 RES1    0.0000
     11 C7         2.1239    5.2085    3.3316 C.2       1 RES1    0.0000
     12 C8         1.1639    4.4244    2.8137 C.2       1 RES1    0.0000
     13 C9        -1.2828    4.5523    2.4430 C.2       1 RES1    0.0000
     14 C10       -1.2461    3.0890    2.0850 C.3       1 RES1    0.0000
     15 H5        -1.2448    3.0063    1.0974 H         1 RES1    0.0000
     16 H6        -2.0754    2.6624    2.4187 H         1 RES1    0.0000
     17 C11       -0.0444    2.3184    2.6409 C.3       1 RES1    0.0000
     18 H7        -0.0361    1.4044    2.2605 H         1 RES1    0.0000
     19 H8        -0.1303    2.2396    3.6250 H         1 RES1    0.0000
     20 C12        1.2790    3.0253    2.2995 C.3       1 RES1    0.0000
     21 C13        1.5576    3.0510    0.7733 C.3       1 RES1    0.0000
     22 H9         0.8585    3.6011    0.3370 H         1 RES1    0.0000
     23 H10        2.4268    3.5004    0.6227 H         1 RES1    0.0000
     24 C14        1.5946    1.6942    0.0892 C.3       1 RES1    0.0000
     25 H11        2.2577    1.1241    0.5302 H         1 RES1    0.0000
     26 H12        1.8394    1.8101   -0.8528 H         1 RES1    0.0000
     27 H13        0.7113    1.2742    0.1480 H         1 RES1    0.0000
     28 C15        2.4629    2.4030    3.0685 C.3       1 RES1    0.0000
     29 H14        2.1879    2.2434    4.0052 H         1 RES1    0.0000
     30 H15        2.6822    1.5260    2.6653 H         1 RES1    0.0000
     31 C16        3.7002    3.2657    3.0636 C.2       1 RES1    0.0000
     32 C17        3.5565    4.7783    3.4623 C.3       1 RES1    0.0000
     33 C18        4.0808    4.8875    4.9012 C.2       1 RES1    0.0000
     34 C19        4.0183    6.5144    0.5553 C.3       1 RES1    0.0000
     35 H16        3.2904    7.0569    0.9248 H         1 RES1    0.0000
     36 H17        3.8261    6.3072   -0.3822 H         1 RES1    0.0000
     37 H18        4.8596    7.0132    0.6144 H         1 RES1    0.0000
     38 C20        3.6463    4.3423    7.1518 C.3       1 RES1    0.0000
     39 H19        4.2671    3.5954    7.2870 H         1 RES1    0.0000
     40 H20        2.8654    4.2264    7.7330 H         1 RES1    0.0000
     41 H21        4.0955    5.1841    7.3733 H         1 RES1    0.0000
     42 N1        -0.0655    5.1057    2.8215 N.am      1 RES1    0.0000
     43 N2         4.4320    5.6351    2.6620 N.3       1 RES1    0.0000
     44 H22        5.2984    5.3314    2.7558 H         1 RES1    0.0000
     45 O1        -2.2847    5.2303    2.3988 O.2       1 RES1    0.0000
     46 O2         4.8015    2.8465    2.8028 O.2       1 RES1    0.0000
     47 O3         4.1295    5.3189    1.2854 O.3       1 RES1    0.0000
     48 O4         3.2195    4.3721    5.7670 O.3       1 RES1    0.0000
     49 O5         5.1512    5.3307    5.1848 O.2       1 RES1    0.0000
@<TRIPOS>BOND
     1    1    2 ar
     2    2    3 1
     3    4    2 ar
     4    5    4 1
     5    6    4 ar
     6    7    6 1
     7    8    6 ar
     8    9    8 1
     9   10    1 ar
    10   11   10 1
    11   12   11 2
    12   13   14 1
    13   14   15 1
    14   16   14 1
    15   17   14 1
    16   18   17 1
    17   19   17 1
    18   20   12 1
    19   21   20 1
    20   22   21 1
    21   23   21 1
    22   24   21 1
    23   25   24 1
    24   26   24 1
    25   27   24 1
    26   28   20 1
    27   29   28 1
    28   30   28 1
    29   31   28 1
    30   32   11 1
    31   33   32 1
    32   34   35 1
    33   36   34 1
    34   37   34 1
    35   38   39 1
    36   40   38 1
    37   41   38 1
    38   42    1 1
    39   43   32 1
    40   44   43 1
    41   45   13 2
    42   46   31 2
    43   47   34 1
    44   48   33 1
    45   49   33 2
    46    8   10 ar
    47   12   42 1
    48   13   42 1
    49   17   20 1
    50   31   32 1
    51   38   48 1
    52   43   47 1
@<TRIPOS>SUBSTRUCTURE
     1 RES1 1

@<TRIPOS>CRYSIN
   9.6837    9.5017   20.5631  90.0000  92.0440  90.0000  14 1

