# MOL2 file generated by ConQuest
# Please check atom types

@<TRIPOS>MOLECULE
MOMXET
    50    52     1
SMALL
NO_CHARGES
****
Generated from CSD

@<TRIPOS>ATOM
      1 C1         3.3084    5.4544    0.7855 C.ar      1 RES1    0.0000
      2 C2         2.2670    4.5205    0.8130 C.ar      1 RES1    0.0000
      3 C3         1.0988    4.7599    0.0892 C.ar      1 RES1    0.0000
      4 H1         0.3853    4.1322    0.1040 H         1 RES1    0.0000
      5 C4         0.9961    5.9244   -0.6503 C.ar      1 RES1    0.0000
      6 H2         0.2116    6.1006   -1.1578 H         1 RES1    0.0000
      7 C5         2.0392    6.8326   -0.6480 C.ar      1 RES1    0.0000
      8 H3         1.9456    7.6346   -1.1504 H         1 RES1    0.0000
      9 C6         3.2082    6.6265    0.0498 C.ar      1 RES1    0.0000
     10 H4         3.9156    7.2599    0.0282 H         1 RES1    0.0000
     11 C7         2.6474    3.4464    1.6892 C.2       1 RES1    0.0000
     12 C8         3.8877    3.7166    2.1730 C.2       1 RES1    0.0000
     13 C9         4.7617    2.9930    3.1740 C.3       1 RES1    0.0000
     14 C10        6.2310    3.3506    2.8871 C.3       1 RES1    0.0000
     15 H5         6.8076    2.9566    3.5887 H         1 RES1    0.0000
     16 H6         6.4995    2.9594    2.0176 H         1 RES1    0.0000
     17 C11        6.4454    4.8634    2.8500 C.3       1 RES1    0.0000
     18 H7         6.2732    5.2345    3.7507 H         1 RES1    0.0000
     19 H8         7.3906    5.0499    2.6226 H         1 RES1    0.0000
     20 C12        5.5648    5.5546    1.8631 C.2       1 RES1    0.0000
     21 C13        4.3161    3.4478    4.5956 C.3       1 RES1    0.0000
     22 H9         4.4128    4.4309    4.6551 H         1 RES1    0.0000
     23 H10        3.3553    3.2363    4.7056 H         1 RES1    0.0000
     24 C14        5.0830    2.8182    5.7483 C.3       1 RES1    0.0000
     25 H11        4.7364    3.1603    6.5984 H         1 RES1    0.0000
     26 H12        6.0342    3.0408    5.6695 H         1 RES1    0.0000
     27 H13        4.9739    1.8435    5.7200 H         1 RES1    0.0000
     28 C15        4.5684    1.4642    3.0647 C.3       1 RES1    0.0000
     29 H14        5.2288    1.0290    3.6608 H         1 RES1    0.0000
     30 H15        3.6691    1.2435    3.4155 H         1 RES1    0.0000
     31 C16        4.6978    0.8474    1.7055 C.2       1 RES1    0.0000
     32 C17        1.7294    2.3186    1.9664 C.2       1 RES1    0.0000
     33 C18        1.6328    0.4518   -0.9810 C.3       1 RES1    0.0000
     34 H16        2.1138    0.5457   -1.8296 H         1 RES1    0.0000
     35 H17        0.6704    0.5511   -1.1385 H         1 RES1    0.0000
     36 H18        1.8119   -0.4344   -0.6005 H         1 RES1    0.0000
     37 C19        0.9092    2.2972    3.1732 C.2       1 RES1    0.0000
     38 C20        0.2614    3.5341    5.0683 C.3       1 RES1    0.0000
     39 H19        0.4023    4.4200    5.4621 H         1 RES1    0.0000
     40 H20        0.5743    2.8453    5.6918 H         1 RES1    0.0000
     41 H21       -0.6937    3.4046    4.8899 H         1 RES1    0.0000
     42 N1         4.3231    4.9459    1.6230 N.am      1 RES1    0.0000
     43 N2         1.4226    1.3494    1.1303 N.2       1 RES1    0.0000
     44 O1         5.8656    6.5866    1.3124 O.2       1 RES1    0.0000
     45 O2         5.1899    1.4153    0.7424 O.2       1 RES1    0.0000
     46 O3         4.2323   -0.3785    1.6765 O.3       1 RES1    0.0000
     47 H22        4.3262   -0.6950    0.9037 H         1 RES1    0.0000
     48 O4         2.0779    1.4702   -0.0595 O.3       1 RES1    0.0000
     49 O5         0.2238    1.3189    3.5173 O.2       1 RES1    0.0000
     50 O6         1.0000    3.4345    3.8317 O.3       1 RES1    0.0000
@<TRIPOS>BOND
     1    1    2 ar
     2    2    3 ar
     3    3    4 1
     4    5    3 ar
     5    6    5 1
     6    7    5 ar
     7    8    7 1
     8    9    1 ar
     9   10    9 1
    10   11    2 1
    11   12   11 2
    12   13   12 1
    13   14   13 1
    14   15   14 1
    15   16   14 1
    16   17   14 1
    17   18   17 1
    18   19   17 1
    19   20   17 1
    20   21   13 1
    21   22   21 1
    22   23   21 1
    23   24   21 1
    24   25   24 1
    25   26   24 1
    26   27   24 1
    27   28   13 1
    28   29   28 1
    29   30   28 1
    30   31   28 1
    31   32   11 1
    32   33   34 1
    33   35   33 1
    34   36   33 1
    35   37   32 1
    36   38   39 1
    37   40   38 1
    38   41   38 1
    39   42    1 1
    40   43   32 2
    41   44   20 2
    42   45   31 2
    43   46   31 1
    44   47   46 1
    45   48   33 1
    46   49   37 2
    47   50   37 1
    48    7    9 ar
    49   12   42 1
    50   20   42 1
    51   38   50 1
    52   43   48 1
@<TRIPOS>SUBSTRUCTURE
     1 RES1 1

@<TRIPOS>CRYSIN
   9.6391   27.1500    8.0064  90.0000 111.8450  90.0000  14 1

