# MOL2 file generated by ConQuest
# Please check atom types

@<TRIPOS>MOLECULE
MONLAE
    34    37     1
SMALL
NO_CHARGES
****
Generated from CSD

@<TRIPOS>ATOM
      1 O1         1.6122    4.9196    6.7835 O.2       1 RES1    0.0000
      2 O2         0.9938    3.8496    8.5851 O.3       1 RES1    0.0000
      3 O3        -5.9326    3.5690    9.9648 O.2       1 RES1    0.0000
      4 O4        -5.5704    2.6194    8.0800 O.2       1 RES1    0.0000
      5 N1         0.2440    2.7543   10.4437 N.2       1 RES1    0.0000
      6 N2        -5.1799    3.0831    9.1343 N.pl3     1 RES1    0.0000
      7 C1         1.2199    3.1385    9.7399 C.2       1 RES1    0.0000
      8 C2         2.6063    2.8816   10.1301 C.ar      1 RES1    0.0000
      9 C3         3.6358    3.2479    9.2405 C.ar      1 RES1    0.0000
     10 C4         3.3523    3.8931    8.0229 C.ar      1 RES1    0.0000
     11 C5         1.9773    4.2594    7.7092 C.2       1 RES1    0.0000
     12 C6         4.3623    4.2284    7.1570 C.ar      1 RES1    0.0000
     13 H1         4.1617    4.6504    6.3525 H         1 RES1    0.0000
     14 C7         5.6854    3.9390    7.4794 C.ar      1 RES1    0.0000
     15 H2         6.3641    4.1623    6.8860 H         1 RES1    0.0000
     16 C8         5.9906    3.3339    8.6551 C.ar      1 RES1    0.0000
     17 H3         6.8794    3.1515    8.8581 H         1 RES1    0.0000
     18 C9         4.9804    2.9753    9.5773 C.ar      1 RES1    0.0000
     19 C10        5.2528    2.3602   10.8112 C.ar      1 RES1    0.0000
     20 H4         6.1320    2.1801   11.0520 H         1 RES1    0.0000
     21 C11        4.2367    2.0230   11.6636 C.ar      1 RES1    0.0000
     22 H5         4.4337    1.6258   12.4806 H         1 RES1    0.0000
     23 C12        2.9080    2.2711   11.3150 C.ar      1 RES1    0.0000
     24 H6         2.2255    2.0196   11.8922 H         1 RES1    0.0000
     25 C13       -1.0924    2.9080   10.0311 C.ar      1 RES1    0.0000
     26 C14       -1.9976    3.4084   10.9608 C.ar      1 RES1    0.0000
     27 H7        -1.6947    3.6879   11.7950 H         1 RES1    0.0000
     28 C15       -3.3303    3.4929   10.6589 C.ar      1 RES1    0.0000
     29 H8        -3.9328    3.8473   11.2714 H         1 RES1    0.0000
     30 C16       -3.7567    3.0437    9.4350 C.ar      1 RES1    0.0000
     31 C17       -2.8853    2.5387    8.4943 C.ar      1 RES1    0.0000
     32 H9        -3.1969    2.2451    7.6689 H         1 RES1    0.0000
     33 C18       -1.5488    2.4756    8.7952 C.ar      1 RES1    0.0000
     34 H10       -0.9487    2.1427    8.1700 H         1 RES1    0.0000
@<TRIPOS>BOND
     1    1   11 2
     2    2    7 1
     3    3    6 2
     4    4    6 2
     5    5    7 2
     6    6   30 1
     7    7    8 1
     8    8    9 ar
     9    9   10 ar
    10   10   11 1
    11   11    2 1
    12   12   10 ar
    13   13   12 1
    14   14   12 ar
    15   15   14 1
    16   16   14 ar
    17   17   16 1
    18   18    9 ar
    19   19   18 ar
    20   20   19 1
    21   21   19 ar
    22   22   21 1
    23   23    8 ar
    24   24   23 1
    25   25    5 1
    26   26   25 ar
    27   27   26 1
    28   28   26 ar
    29   29   28 1
    30   30   28 ar
    31   31   30 ar
    32   32   31 1
    33   33   25 ar
    34   34   33 1
    35   16   18 ar
    36   21   23 ar
    37   31   33 ar
@<TRIPOS>SUBSTRUCTURE
     1 RES1 1

@<TRIPOS>CRYSIN
  29.3600    3.8228   24.9680  90.0000  93.1090  90.0000  15 1

