# MOL2 file generated by ConQuest
# Please check atom types

@<TRIPOS>MOLECULE
MONPHB
    42    44     2
SMALL
NO_CHARGES
****
Generated from CSD

@<TRIPOS>ATOM
      1 C1         8.8974    6.9034    0.8621 C.ar      1 RES1    0.0000
      2 C2         9.4262    8.1427    0.6695 C.ar      1 RES1    0.0000
      3 C3         8.6509    9.2797    0.8928 C.ar      1 RES1    0.0000
      4 C4         7.3701    9.1564    1.3426 C.ar      1 RES1    0.0000
      5 C5         5.4516    7.7697    2.0040 C.ar      1 RES1    0.0000
      6 C6         4.8675    6.5574    2.1710 C.ar      1 RES1    0.0000
      7 C7         5.5609    5.3964    1.8384 C.ar      1 RES1    0.0000
      8 C8         6.8638    5.4445    1.3946 C.ar      1 RES1    0.0000
      9 C9         7.5488    6.6958    1.2781 C.ar      1 RES1    0.0000
     10 C10        6.7928    7.8749    1.5454 C.ar      1 RES1    0.0000
     11 C11        7.3967    4.1871    0.9368 C.1       1 RES1    0.0000
     12 N1         9.8318    5.7693    0.7398 N.pl3     1 RES1    0.0000
     13 N2         7.7099    3.1915    0.5347 N.1       1 RES1    0.0000
     14 O1         9.8592    4.9391    1.7000 O.2       1 RES1    0.0000
     15 O2        10.5954    5.6791   -0.1890 O.2       1 RES1    0.0000
     16 C12        4.4892   -2.0635    1.8340 C.ar      2 RES2    0.0000
     17 C13        5.7992   -2.1086    1.4539 C.ar      2 RES2    0.0000
     18 C14        6.4605   -0.9054    1.1404 C.ar      2 RES2    0.0000
     19 C15        5.8039    0.2797    1.2115 C.ar      2 RES2    0.0000
     20 C16        3.7602    1.5852    1.7212 C.ar      2 RES2    0.0000
     21 C17        2.4759    1.6755    2.1417 C.ar      2 RES2    0.0000
     22 C18        1.7924    0.5114    2.5137 C.ar      2 RES2    0.0000
     23 C19        2.4047   -0.7219    2.4295 C.ar      2 RES2    0.0000
     24 C20        3.7492   -0.8573    1.9637 C.ar      2 RES2    0.0000
     25 C21        4.4497    0.3399    1.6253 C.ar      2 RES2    0.0000
     26 C22        1.6294   -1.8349    2.9063 C.1       2 RES2    0.0000
     27 N3         3.8149   -3.3720    1.9783 N.pl3     2 RES2    0.0000
     28 N4         0.9720   -2.6109    3.4073 N.1       2 RES2    0.0000
     29 O3         2.8932   -3.6096    1.1675 O.2       2 RES2    0.0000
     30 O4         4.1819   -4.1661    2.8309 O.2       2 RES2    0.0000
     31 H1        10.3403    8.2239    0.3948 H         1 RES1    0.0000
     32 H2         8.9501   10.1159    0.7112 H         1 RES1    0.0000
     33 H3         6.8656    9.8632    1.5008 H         1 RES1    0.0000
     34 H4         4.9674    8.5698    2.1871 H         1 RES1    0.0000
     35 H5         3.9773    6.5063    2.4427 H         1 RES1    0.0000
     36 H6         5.1680    4.5661    1.8882 H         1 RES1    0.0000
     37 H7         6.2062   -2.8967    1.3462 H         2 RES2    0.0000
     38 H8         7.2977   -0.9866    0.9199 H         2 RES2    0.0000
     39 H9         6.2375    1.0829    1.0108 H         2 RES2    0.0000
     40 H10        4.2145    2.2831    1.4590 H         2 RES2    0.0000
     41 H11        1.9899    2.5177    2.2742 H         2 RES2    0.0000
     42 H12        0.8672    0.5595    2.8426 H         2 RES2    0.0000
@<TRIPOS>BOND
     1    1    2 ar
     2    2    3 ar
     3    3    4 ar
     4    4   10 ar
     5    5    6 ar
     6    6    7 ar
     7    7    8 ar
     8    8    9 ar
     9    9    1 ar
    10   10    5 ar
    11   11    8 1
    12   12    1 1
    13   13   11 3
    14   14   12 2
    15   15   12 2
    16   16   17 ar
    17   17   18 ar
    18   18   19 ar
    19   19   25 ar
    20   20   21 ar
    21   21   22 ar
    22   22   23 ar
    23   23   24 ar
    24   24   16 ar
    25   25   20 ar
    26   26   23 1
    27   27   16 1
    28   28   26 3
    29   29   27 2
    30   30   27 2
    31   31    2 1
    32   32    3 1
    33   33    4 1
    34   34    5 1
    35   35    6 1
    36   36    7 1
    37   37   17 1
    38   38   18 1
    39   39   19 1
    40   40   20 1
    41   41   21 1
    42   42   22 1
    43    9   10 ar
    44   24   25 ar
@<TRIPOS>SUBSTRUCTURE
     1 RES1 1
     2 RES2 16

@<TRIPOS>CRYSIN
   7.9390   30.0800    7.3250  90.0000  90.7300  90.0000  14 1

