# MOL2 file generated by ConQuest
# Please check atom types

@<TRIPOS>MOLECULE
MONREO
    52    56     2
SMALL
NO_CHARGES
****
Generated from CSD

@<TRIPOS>ATOM
      1 C1         5.2471    8.4387    3.5619 C.ar      1 RES1    0.0000
      2 C2         6.1802    8.0814    4.5272 C.ar      1 RES1    0.0000
      3 C3         6.1865    8.7321    5.7583 C.ar      1 RES1    0.0000
      4 C4         5.2971    9.7240    6.0384 C.ar      1 RES1    0.0000
      5 C5         4.3884   10.0911    5.0873 C.ar      1 RES1    0.0000
      6 C6         4.3556    9.4476    3.8634 C.ar      1 RES1    0.0000
      7 C7         5.1932    7.8183    2.2272 C.2       1 RES1    0.0000
      8 C8         6.0564    6.8504    1.6576 C.2       1 RES1    0.0000
      9 C9         4.4688    7.4761    0.2273 C.2       1 RES1    0.0000
     10 C10        3.7452    7.4815   -0.9656 C.2       1 RES1    0.0000
     11 C11        4.1589    6.6735   -1.9781 C.2       1 RES1    0.0000
     12 C12        5.2908    5.8664   -1.8325 C.2       1 RES1    0.0000
     13 C13        5.9944    5.8504   -0.6741 C.2       1 RES1    0.0000
     14 N1         4.2463    8.1912    1.3528 N.2       1 RES1    0.0000
     15 N2         5.5646    6.6522    0.3519 N.pl3     1 RES1    0.0000
     16 N3         7.1129    6.2673    2.2444 N.2       1 RES1    0.0000
     17 O1         7.7681    5.4430    1.5529 O.2       1 RES1    0.0000
     18 H1         6.7569    7.3952    4.3326 H         1 RES1    0.0000
     19 H2         6.8895    8.4530    6.3790 H         1 RES1    0.0000
     20 H3         5.3118   10.1684    6.9244 H         1 RES1    0.0000
     21 H4         3.7901   10.7906    5.2576 H         1 RES1    0.0000
     22 H5         3.7342    9.7329    3.2069 H         1 RES1    0.0000
     23 H6         2.9967    8.0619   -1.0232 H         1 RES1    0.0000
     24 H7         3.6707    6.6753   -2.8055 H         1 RES1    0.0000
     25 H8         5.5783    5.3064   -2.5110 H         1 RES1    0.0000
     26 H9         6.7817    5.3420   -0.4996 H         1 RES1    0.0000
     27 C14       -0.0426    8.2627    3.3996 C.ar      2 RES2    0.0000
     28 C15        1.0865    8.2619    4.2120 C.ar      2 RES2    0.0000
     29 C16        1.0571    8.9009    5.4431 C.ar      2 RES2    0.0000
     30 C17       -0.0767    9.5294    5.8794 C.ar      2 RES2    0.0000
     31 C18       -1.1923    9.5285    5.0860 C.ar      2 RES2    0.0000
     32 C19       -1.1802    8.8947    3.8549 C.ar      2 RES2    0.0000
     33 C20       -0.0616    7.6423    2.0666 C.2       2 RES2    0.0000
     34 C21        0.8267    6.6895    1.5169 C.2       2 RES2    0.0000
     35 C22       -0.7608    7.2583    0.0630 C.2       2 RES2    0.0000
     36 C23       -1.4614    7.2423   -1.1403 C.2       2 RES2    0.0000
     37 C24       -1.0156    6.4459   -2.1484 C.2       2 RES2    0.0000
     38 C25        0.1293    5.6575   -1.9737 C.2       2 RES2    0.0000
     39 C26        0.8103    5.6575   -0.8039 C.2       2 RES2    0.0000
     40 N4        -1.0121    7.9794    1.1796 N.2       2 RES2    0.0000
     41 N5         0.3597    6.4655    0.2083 N.pl3     2 RES2    0.0000
     42 N6         1.8606    6.1002    2.1480 N.2       2 RES2    0.0000
     43 O2         2.5470    5.2837    1.4791 O.2       2 RES2    0.0000
     44 H10        1.8606    7.8397    3.9051 H         2 RES2    0.0000
     45 H11        1.8555    8.9063    5.9928 H         2 RES2    0.0000
     46 H12       -0.0867    9.9729    6.7695 H         2 RES2    0.0000
     47 H13       -1.9962    9.9373    5.3667 H         2 RES2    0.0000
     48 H14       -1.9795    8.9063    3.3335 H         2 RES2    0.0000
     49 H15       -2.2472    7.8130   -1.1933 H         2 RES2    0.0000
     50 H16       -1.5195    6.4175   -2.9910 H         2 RES2    0.0000
     51 H17        0.4024    5.0931   -2.6681 H         2 RES2    0.0000
     52 H18        1.5872    5.1553   -0.5847 H         2 RES2    0.0000
@<TRIPOS>BOND
     1    1    2 ar
     2    2    3 ar
     3    3    4 ar
     4    4    5 ar
     5    5    6 ar
     6    6    1 ar
     7    7    1 1
     8    8    7 2
     9    9   10 1
    10   10   11 2
    11   11   12 1
    12   12   13 2
    13   13   15 1
    14   14    7 1
    15   15    8 1
    16   16    8 1
    17   17   16 2
    18   18    2 1
    19   19    3 1
    20   20    4 1
    21   21    5 1
    22   22    6 1
    23   23   10 1
    24   24   11 1
    25   25   12 1
    26   26   13 1
    27   27   28 ar
    28   28   29 ar
    29   29   30 ar
    30   30   31 ar
    31   31   32 ar
    32   32   27 ar
    33   33   27 1
    34   34   33 2
    35   35   36 1
    36   36   37 2
    37   37   38 1
    38   38   39 2
    39   39   41 1
    40   40   33 1
    41   41   34 1
    42   42   34 1
    43   43   42 2
    44   44   28 1
    45   45   29 1
    46   46   30 1
    47   47   31 1
    48   48   32 1
    49   49   36 1
    50   50   37 1
    51   51   38 1
    52   52   39 1
    53    9   14 2
    54    9   15 1
    55   35   40 2
    56   35   41 1
@<TRIPOS>SUBSTRUCTURE
     1 RES1 1
     2 RES2 27

@<TRIPOS>CRYSIN
  10.8388    8.8885   22.1827  90.0000 100.4330  90.0000 231 1

