# MOL2 file generated by ConQuest
# Please check atom types

@<TRIPOS>MOLECULE
MOPGOO
    64    66     1
SMALL
NO_CHARGES
****
Generated from CSD

@<TRIPOS>ATOM
      1 O1        -2.4989   11.0958    7.6095 O.2       1 RES1    0.0000
      2 O2        -3.4137   11.1936    5.6476 O.2       1 RES1    0.0000
      3 O3        -2.4305    7.9536    2.3787 O.2       1 RES1    0.0000
      4 O4        -1.0289    6.3558    2.7057 O.2       1 RES1    0.0000
      5 N1         1.1058    5.5721    5.8951 N.2       1 RES1    0.0000
      6 N2         0.2051    6.0710    4.9852 N.3       1 RES1    0.0000
      7 N3        -2.6635   10.6699    6.4687 N.pl3     1 RES1    0.0000
      8 N4        -1.6346    7.3606    3.0913 N.pl3     1 RES1    0.0000
      9 C1         2.9582    1.5514    1.7158 C.3       1 RES1    0.0000
     10 C2         2.5506    3.9260    6.7125 C.ar      1 RES1    0.0000
     11 C3         3.8426    0.8755    2.7638 C.3       1 RES1    0.0000
     12 C4         2.4445    0.4360    0.7887 C.3       1 RES1    0.0000
     13 C5         3.7918    2.5564    0.9293 C.3       1 RES1    0.0000
     14 C6         1.7456    2.2113    2.4185 C.3       1 RES1    0.0000
     15 C7         3.3591    2.7878    6.5149 C.ar      1 RES1    0.0000
     16 C8         0.6008    2.5984    1.4920 C.3       1 RES1    0.0000
     17 C9         2.1355    3.4093    3.3501 C.3       1 RES1    0.0000
     18 C10        4.2737    2.3859    7.4653 C.ar      1 RES1    0.0000
     19 C11        1.1860    3.4528    4.5721 C.3       1 RES1    0.0000
     20 C12        1.5804    4.3832    5.6894 C.2       1 RES1    0.0000
     21 C13        2.1394    4.7001    2.6402 C.1       1 RES1    0.0000
     22 C14        4.3923    3.0835    8.6489 C.ar      1 RES1    0.0000
     23 C15        2.0978    5.7156    2.0069 C.1       1 RES1    0.0000
     24 C16        3.5872    4.1883    8.8738 C.ar      1 RES1    0.0000
     25 C17        2.0536    6.9081    1.1911 C.3       1 RES1    0.0000
     26 C18        2.6862    4.6094    7.9263 C.ar      1 RES1    0.0000
     27 C19        3.2009    7.8706    1.1680 C.3       1 RES1    0.0000
     28 C20        2.9445    7.0226   -0.0092 C.3       1 RES1    0.0000
     29 C21       -0.4929    7.1928    5.3126 C.ar      1 RES1    0.0000
     30 C22       -0.3496    7.7581    6.6049 C.ar      1 RES1    0.0000
     31 C23       -1.0562    8.8746    6.9783 C.ar      1 RES1    0.0000
     32 C24       -1.9302    9.4698    6.0775 C.ar      1 RES1    0.0000
     33 C25       -2.1112    8.9649    4.8208 C.ar      1 RES1    0.0000
     34 C26       -1.4011    7.8342    4.4400 C.ar      1 RES1    0.0000
     35 H1         3.1600    0.1970    3.2631 H         1 RES1    0.0000
     36 H2         0.1225    5.8026    4.1740 H         1 RES1    0.0000
     37 H3         4.5616    0.4380    2.2715 H         1 RES1    0.0000
     38 H4         4.2801    1.4973    3.3553 H         1 RES1    0.0000
     39 H5         1.8005   -0.2310    1.3375 H         1 RES1    0.0000
     40 H6         1.9151    0.7605    0.0115 H         1 RES1    0.0000
     41 H7         3.2198   -0.0495    0.4958 H         1 RES1    0.0000
     42 H8         4.5566    2.0909    0.4843 H         1 RES1    0.0000
     43 H9         3.1213    2.8721    0.2306 H         1 RES1    0.0000
     44 H10        4.2469    3.3488    1.5566 H         1 RES1    0.0000
     45 H11       -0.0805    3.1055    1.9832 H         1 RES1    0.0000
     46 H12        0.9148    3.2042    0.7379 H         1 RES1    0.0000
     47 H13        0.1759    1.8114    1.0596 H         1 RES1    0.0000
     48 H14        1.1364    2.5920    4.9534 H         1 RES1    0.0000
     49 H15        0.2753    3.6997    4.2340 H         1 RES1    0.0000
     50 H16        4.0571    7.5673    1.6719 H         1 RES1    0.0000
     51 H17        2.9032    8.7775    1.0262 H         1 RES1    0.0000
     52 H18        2.5708    7.4477   -0.8071 H         1 RES1    0.0000
     53 H19        3.5897    6.2868   -0.1026 H         1 RES1    0.0000
     54 H20        3.2750    2.2950    5.6914 H         1 RES1    0.0000
     55 H21        4.8070    1.6164    7.3010 H         1 RES1    0.0000
     56 H22        1.3692    1.4841    3.0060 H         1 RES1    0.0000
     57 H23        5.0020    2.7854    9.2969 H         1 RES1    0.0000
     58 H24        3.6683    4.7317    9.7097 H         1 RES1    0.0000
     59 H25        2.1210    5.3644    8.0505 H         1 RES1    0.0000
     60 H26        0.2606    7.3655    7.1880 H         1 RES1    0.0000
     61 H27       -0.9123    9.2389    7.8856 H         1 RES1    0.0000
     62 H28       -2.6752    9.3487    4.2443 H         1 RES1    0.0000
     63 H29        3.0932    3.2380    3.6840 H         1 RES1    0.0000
     64 H30        1.1332    7.2684    1.0031 H         1 RES1    0.0000
@<TRIPOS>BOND
     1    1    7 2
     2    2    7 2
     3    3    8 2
     4    4    8 2
     5    5    6 1
     6    6   29 1
     7    7   32 1
     8    8   34 1
     9    9   11 1
    10   10   15 ar
    11   11   35 1
    12   12    9 1
    13   13    9 1
    14   14    9 1
    15   15   18 ar
    16   16   14 1
    17   17   14 1
    18   18   22 ar
    19   19   17 1
    20   20    5 2
    21   21   17 1
    22   22   24 ar
    23   23   21 3
    24   24   26 ar
    25   25   23 1
    26   26   10 ar
    27   27   25 1
    28   28   25 1
    29   29   30 ar
    30   30   31 ar
    31   31   32 ar
    32   32   33 ar
    33   33   34 ar
    34   34   29 ar
    35   36    6 1
    36   37   11 1
    37   38   11 1
    38   39   12 1
    39   40   12 1
    40   41   12 1
    41   42   13 1
    42   43   13 1
    43   44   13 1
    44   45   16 1
    45   46   16 1
    46   47   16 1
    47   48   19 1
    48   49   19 1
    49   50   27 1
    50   51   27 1
    51   52   28 1
    52   53   28 1
    53   54   15 1
    54   55   18 1
    55   56   14 1
    56   57   22 1
    57   58   24 1
    58   59   26 1
    59   60   30 1
    60   61   31 1
    61   62   33 1
    62   63   17 1
    63   64   25 1
    64   10   20 1
    65   19   20 1
    66   27   28 1
@<TRIPOS>SUBSTRUCTURE
     1 RES1 1

@<TRIPOS>CRYSIN
   8.9936   11.8578   12.2524  76.4480  75.1510  86.8800   2 1

