# MOL2 file generated by ConQuest
# Please check atom types

@<TRIPOS>MOLECULE
MOPPIQ
    54    56     1
SMALL
NO_CHARGES
****
Generated from CSD

@<TRIPOS>ATOM
      1 N1        -0.5377    4.8890    1.8989 N.ar      1 RES1    0.0000
      2 C1         0.3966    5.3262    2.8080 C.ar      1 RES1    0.0000
      3 N2         0.5120    6.6395    2.9013 N.3       1 RES1    0.0000
      4 C2         1.3730    7.3073    3.8571 C.3       1 RES1    0.0000
      5 C3         2.8105    7.4090    3.4000 C.ar      1 RES1    0.0000
      6 C4         3.8255    6.7317    4.0573 C.ar      1 RES1    0.0000
      7 C5         5.1326    6.8557    3.6527 C.ar      1 RES1    0.0000
      8 C6         5.4632    7.6475    2.5765 C.ar      1 RES1    0.0000
      9 C7         4.4711    8.3312    1.8963 C.ar      1 RES1    0.0000
     10 C8         3.1570    8.2135    2.3187 C.ar      1 RES1    0.0000
     11 N3         1.1757    4.5631    3.6010 N.ar      1 RES1    0.0000
     12 C9         0.9698    3.2498    3.5230 C.ar      1 RES1    0.0000
     13 N4         1.7029    2.4469    4.2956 N.3       1 RES1    0.0000
     14 C10        2.8909    2.9223    4.9690 C.3       1 RES1    0.0000
     15 C11        4.0540    2.9207    4.0106 C.2       1 RES1    0.0000
     16 O1         3.9885    2.6067    2.8538 O.2       1 RES1    0.0000
     17 O2         5.1812    3.3233    4.6187 O.3       1 RES1    0.0000
     18 C12        6.3630    3.3341    3.7672 C.3       1 RES1    0.0000
     19 C13        6.9065    1.9667    3.5510 C.3       1 RES1    0.0000
     20 C14       -0.0091    2.6631    2.6410 C.ar      1 RES1    0.0000
     21 N5        -0.2481    1.3657    2.4230 N.2       1 RES1    0.0000
     22 O3         0.4205    0.5032    3.0921 O.2       1 RES1    0.0000
     23 C15       -0.7217    3.6139    1.8514 C.ar      1 RES1    0.0000
     24 O4        -1.6381    3.0978    1.0194 O.3       1 RES1    0.0000
     25 C16       -2.3881    4.0273    0.1747 C.3       1 RES1    0.0000
     26 C17       -3.4687    4.7300    0.9363 C.ar      1 RES1    0.0000
     27 C18       -3.3809    6.0846    1.2145 C.ar      1 RES1    0.0000
     28 C19       -4.3851    6.7301    1.9057 C.ar      1 RES1    0.0000
     29 C20       -5.4933    6.0290    2.3373 C.ar      1 RES1    0.0000
     30 C21       -5.6052    4.6903    2.0566 C.ar      1 RES1    0.0000
     31 C22       -4.6070    4.0400    1.3425 C.ar      1 RES1    0.0000
     32 H1         0.0387    7.1372    2.3509 H         1 RES1    0.0000
     33 H2         1.3441    6.8128    4.7145 H         1 RES1    0.0000
     34 H3         1.0236    8.2183    4.0225 H         1 RES1    0.0000
     35 H4         3.6143    6.1737    4.7968 H         1 RES1    0.0000
     36 H5         5.8164    6.3915    4.1209 H         1 RES1    0.0000
     37 H6         6.3693    7.7238    2.3017 H         1 RES1    0.0000
     38 H7         4.6895    8.8749    1.1483 H         1 RES1    0.0000
     39 H8         2.4766    8.6937    1.8599 H         1 RES1    0.0000
     40 H9         1.4578    1.6074    4.3982 H         1 RES1    0.0000
     41 H10        3.0956    2.3388    5.7416 H         1 RES1    0.0000
     42 H11        2.7392    3.8412    5.3074 H         1 RES1    0.0000
     43 H12        7.0598    3.9001    4.1836 H         1 RES1    0.0000
     44 H13        6.1293    3.7331    2.8920 H         1 RES1    0.0000
     45 H14        7.7266    2.0208    3.0184 H         1 RES1    0.0000
     46 H15        6.2434    1.4230    3.0760 H         1 RES1    0.0000
     47 H16        7.1063    1.5534    4.4177 H         1 RES1    0.0000
     48 H17       -2.7934    3.5280   -0.5784 H         1 RES1    0.0000
     49 H18       -1.7667    4.6982   -0.2035 H         1 RES1    0.0000
     50 H19       -2.6192    6.5743    0.9261 H         1 RES1    0.0000
     51 H20       -4.3145    7.6618    2.0846 H         1 RES1    0.0000
     52 H21       -6.1768    6.4726    2.8275 H         1 RES1    0.0000
     53 H22       -6.3679    4.2069    2.3526 H         1 RES1    0.0000
     54 H23       -4.7036    3.1194    1.1297 H         1 RES1    0.0000
@<TRIPOS>BOND
     1    1    2 ar
     2    2    3 1
     3    3    4 1
     4    4    5 1
     5    5    6 ar
     6    6    7 ar
     7    7    8 ar
     8    8    9 ar
     9    9   10 ar
    10   10    5 ar
    11   11    2 ar
    12   12   11 ar
    13   13   12 1
    14   14   13 1
    15   15   14 1
    16   16   15 2
    17   17   15 1
    18   18   17 1
    19   19   18 1
    20   20   12 ar
    21   21   20 1
    22   22   21 2
    23   23    1 ar
    24   24   23 1
    25   25   24 1
    26   26   25 1
    27   27   26 ar
    28   28   27 ar
    29   29   28 ar
    30   30   29 ar
    31   31   26 ar
    32   32    3 1
    33   33    4 1
    34   34    4 1
    35   35    6 1
    36   36    7 1
    37   37    8 1
    38   38    9 1
    39   39   10 1
    40   40   13 1
    41   41   14 1
    42   42   14 1
    43   43   18 1
    44   44   18 1
    45   45   19 1
    46   46   19 1
    47   47   19 1
    48   48   25 1
    49   49   25 1
    50   50   27 1
    51   51   28 1
    52   52   29 1
    53   53   30 1
    54   54   31 1
    55   20   23 ar
    56   30   31 ar
@<TRIPOS>SUBSTRUCTURE
     1 RES1 1

@<TRIPOS>CRYSIN
  15.2278   15.8992    8.5558  90.0000  97.5860  90.0000  14 1

