# MOL2 file generated by ConQuest
# Please check atom types

@<TRIPOS>MOLECULE
MOPQAJ
    44    47     1
SMALL
NO_CHARGES
****
Generated from CSD

@<TRIPOS>ATOM
      1 C1        -0.0915    5.8932   14.9275 C.3       1 RES1    0.0000
      2 H1        -0.6602    5.4896   14.2391 H         1 RES1    0.0000
      3 C2        -0.1485    7.4316   15.0203 C.3       1 RES1    0.0000
      4 H2         0.4156    7.8352   14.3279 H         1 RES1    0.0000
      5 C3        -1.5353    8.0858   15.0249 C.3       1 RES1    0.0000
      6 H3        -2.2126    7.3996   14.8511 H         1 RES1    0.0000
      7 C4        -1.6873    8.5797   16.4444 C.2       1 RES1    0.0000
      8 H4        -2.4616    8.9862   16.7611 H         1 RES1    0.0000
      9 C5        -0.6499    8.3874   17.1735 C.2       1 RES1    0.0000
     10 H5        -0.5955    8.6554   18.0628 H         1 RES1    0.0000
     11 C6         0.4754    7.6822   16.4518 C.3       1 RES1    0.0000
     12 H6         1.2902    8.2257   16.4117 H         1 RES1    0.0000
     13 C7         0.7496    6.2588   16.9497 C.3       1 RES1    0.0000
     14 H7         0.8869    6.1598   17.9149 H         1 RES1    0.0000
     15 C8         1.8479    5.7183   16.0659 C.2       1 RES1    0.0000
     16 H8         2.7262    5.5581   16.3266 H         1 RES1    0.0000
     17 C9         1.3510    5.5173   14.8733 C.2       1 RES1    0.0000
     18 H9         1.8107    5.1982   14.1300 H         1 RES1    0.0000
     19 C10       -0.4158    5.4925   16.3655 C.3       1 RES1    0.0000
     20 H10       -1.2764    5.8261   16.6668 H         1 RES1    0.0000
     21 H11       -0.3534    4.5368   16.5152 H         1 RES1    0.0000
     22 C11       -1.7192    9.2251   14.0326 C.3       1 RES1    0.0000
     23 H12       -2.5862    9.6330   14.1836 H         1 RES1    0.0000
     24 H13       -1.0437    9.8996   14.2058 H         1 RES1    0.0000
     25 C12       -1.6286    8.8128   12.6077 C.2       1 RES1    0.0000
     26 H14       -2.2897    8.2752   12.2348 H         1 RES1    0.0000
     27 N1        -0.6567    9.1927   11.9079 N.2       1 RES1    0.0000
     28 N2        -0.6573    8.7880   10.5816 N.pl3     1 RES1    0.0000
     29 H15       -1.3038    8.3145   10.2693 H         1 RES1    0.0000
     30 C13        0.3749    9.1493    9.7888 C.ar      1 RES1    0.0000
     31 C14        0.4701    8.8228    8.4159 C.ar      1 RES1    0.0000
     32 C15        1.5370    9.2353    7.6373 C.ar      1 RES1    0.0000
     33 H16        1.5695    9.0255    6.7322 H         1 RES1    0.0000
     34 C16        2.5425    9.9565    8.2177 C.ar      1 RES1    0.0000
     35 C17        2.5115   10.2799    9.5612 C.ar      1 RES1    0.0000
     36 H17        3.2086   10.7665    9.9383 H         1 RES1    0.0000
     37 C18        1.4532    9.8836   10.3344 C.ar      1 RES1    0.0000
     38 H18        1.4441   10.1021   11.2382 H         1 RES1    0.0000
     39 N3        -0.5424    8.0494    7.7397 N.pl3     1 RES1    0.0000
     40 O1        -1.5564    7.7204    8.3671 O.2       1 RES1    0.0000
     41 O2        -0.3682    7.7141    6.5771 O.2       1 RES1    0.0000
     42 N4         3.6578   10.3964    7.3923 N.pl3     1 RES1    0.0000
     43 O3         3.6428   10.1590    6.2030 O.2       1 RES1    0.0000
     44 O4         4.5719   10.9885    7.9474 O.2       1 RES1    0.0000
@<TRIPOS>BOND
     1    1    2 1
     2    3    1 1
     3    4    3 1
     4    5    3 1
     5    6    5 1
     6    7    5 1
     7    8    7 1
     8    9    7 2
     9   10    9 1
    10   11    3 1
    11   12   11 1
    12   13   11 1
    13   14   13 1
    14   15   13 1
    15   16   15 1
    16   17    1 1
    17   18   17 1
    18   19    1 1
    19   20   19 1
    20   21   19 1
    21   22    5 1
    22   23   22 1
    23   24   22 1
    24   25   22 1
    25   26   25 1
    26   27   25 2
    27   28   27 1
    28   29   28 1
    29   30   28 1
    30   31   30 ar
    31   32   31 ar
    32   33   32 1
    33   34   32 ar
    34   35   34 ar
    35   36   35 1
    36   37   30 ar
    37   38   37 1
    38   39   31 1
    39   40   39 2
    40   41   39 2
    41   42   34 1
    42   43   42 2
    43   44   42 2
    44    9   11 1
    45   13   19 1
    46   15   17 2
    47   35   37 ar
@<TRIPOS>SUBSTRUCTURE
     1 RES1 1

@<TRIPOS>CRYSIN
   6.4120   14.5690   19.1440  90.0000 105.0200  90.0000  14 1

