# MOL2 file generated by ConQuest
# Please check atom types

@<TRIPOS>MOLECULE
MOPQUF
    51    56     1
SMALL
NO_CHARGES
****
Generated from CSD

@<TRIPOS>ATOM
      1 N1        11.8970    0.0964    3.0885 N.am      1 RES1    0.0000
      2 N2         9.5794    1.2535    2.0980 N.am      1 RES1    0.0000
      3 N3         6.1985    2.8052    2.4138 N.pl3     1 RES1    0.0000
      4 H1         6.0251    3.3142    1.7421 H         1 RES1    0.0000
      5 N4         5.4806   -2.3940   -1.3502 N.pl3     1 RES1    0.0000
      6 O1        10.7056   -0.8649    4.7357 O.2       1 RES1    0.0000
      7 O2        10.6097    1.6148    0.1233 O.2       1 RES1    0.0000
      8 O3         5.8608   -3.5437   -1.2629 O.2       1 RES1    0.0000
      9 O4         4.4514   -2.0746   -1.9257 O.2       1 RES1    0.0000
     10 C1        13.0570    0.4082    1.0990 C.3       1 RES1    0.0000
     11 H2        12.6464   -0.1672    0.4338 H         1 RES1    0.0000
     12 H3        13.5762    1.0898    0.6431 H         1 RES1    0.0000
     13 C2        13.9321   -0.3944    2.0348 C.3       1 RES1    0.0000
     14 H4        14.2647   -1.1889    1.5907 H         1 RES1    0.0000
     15 H5        14.6895    0.1361    2.3274 H         1 RES1    0.0000
     16 C3        13.0753   -0.7715    3.2059 C.3       1 RES1    0.0000
     17 H6        12.8218   -1.7067    3.1627 H         1 RES1    0.0000
     18 H7        13.5407   -0.6100    4.0406 H         1 RES1    0.0000
     19 C4        10.8090   -0.0242    3.8420 C.2       1 RES1    0.0000
     20 C5         9.6815    0.9571    3.5542 C.3       1 RES1    0.0000
     21 H8         9.8904    1.7955    4.0151 H         1 RES1    0.0000
     22 C6         8.3724    0.4313    4.1197 C.3       1 RES1    0.0000
     23 H9         8.1970   -0.4567    3.7718 H         1 RES1    0.0000
     24 H10        8.4323    0.3725    5.0852 H         1 RES1    0.0000
     25 C7         7.2642    1.3481    3.7398 C.2       1 RES1    0.0000
     26 C8         6.0453    1.7229    4.3902 C.ar      1 RES1    0.0000
     27 C9         5.4177    1.3527    5.5753 C.ar      1 RES1    0.0000
     28 H11        5.8273    0.7576    6.1604 H         1 RES1    0.0000
     29 C10        4.1796    1.8808    5.8695 C.ar      1 RES1    0.0000
     30 H12        3.7467    1.6294    6.6538 H         1 RES1    0.0000
     31 C11        3.5712    2.7826    5.0086 C.ar      1 RES1    0.0000
     32 H13        2.7327    3.1182    5.2281 H         1 RES1    0.0000
     33 C12        4.1685    3.1989    3.8393 C.ar      1 RES1    0.0000
     34 H14        3.7629    3.8228    3.2818 H         1 RES1    0.0000
     35 C13        5.4126    2.6419    3.5273 C.ar      1 RES1    0.0000
     36 C14        7.3189    2.0077    2.5606 C.2       1 RES1    0.0000
     37 C15        8.3075    1.6952    1.4915 C.3       1 RES1    0.0000
     38 H15        8.4667    2.4989    0.9544 H         1 RES1    0.0000
     39 C16       10.6691    1.3100    1.3146 C.2       1 RES1    0.0000
     40 C17       12.0025    1.0390    1.9888 C.3       1 RES1    0.0000
     41 H16       12.3543    1.8854    2.3359 H         1 RES1    0.0000
     42 C18        7.6880    0.6112    0.6086 C.ar      1 RES1    0.0000
     43 C19        8.0469   -0.7196    0.7341 C.ar      1 RES1    0.0000
     44 H17        8.7659   -0.9525    1.2760 H         1 RES1    0.0000
     45 C20        7.3503   -1.7009    0.0658 C.ar      1 RES1    0.0000
     46 H18        7.6008   -2.5935    0.1395 H         1 RES1    0.0000
     47 C21        6.2776   -1.3354   -0.7139 C.ar      1 RES1    0.0000
     48 C22        5.9176   -0.0208   -0.9032 C.ar      1 RES1    0.0000
     49 H19        5.2108    0.2041   -1.4631 H         1 RES1    0.0000
     50 C23        6.6304    0.9468   -0.2438 C.ar      1 RES1    0.0000
     51 H20        6.4063    1.8416   -0.3658 H         1 RES1    0.0000
@<TRIPOS>BOND
     1    1   16 1
     2    2   20 1
     3    3    4 1
     4    5    8 2
     5    6   19 2
     6    7   39 2
     7    9    5 2
     8   10   11 1
     9   12   10 1
    10   13   10 1
    11   14   13 1
    12   15   13 1
    13   16   13 1
    14   17   16 1
    15   18   16 1
    16   19    1 1
    17   20   19 1
    18   21   20 1
    19   22   20 1
    20   23   22 1
    21   24   22 1
    22   25   22 1
    23   26   25 1
    24   27   26 ar
    25   28   27 1
    26   29   27 ar
    27   30   29 1
    28   31   29 ar
    29   32   31 1
    30   33   31 ar
    31   34   33 1
    32   35    3 1
    33   36    3 1
    34   37    2 1
    35   38   37 1
    36   39    2 1
    37   40    1 1
    38   41   40 1
    39   42   37 1
    40   43   42 ar
    41   44   43 1
    42   45   43 ar
    43   46   45 1
    44   47    5 1
    45   48   47 ar
    46   49   48 1
    47   50   42 ar
    48   51   50 1
    49   10   40 1
    50   25   36 2
    51   26   35 ar
    52   33   35 ar
    53   36   37 1
    54   39   40 1
    55   45   47 ar
    56   48   50 ar
@<TRIPOS>SUBSTRUCTURE
     1 RES1 1

@<TRIPOS>CRYSIN
  10.1398   11.5318   17.0130  90.0000  90.0000  90.0000  19 1

