# MOL2 file generated by ConQuest
# Please check atom types

@<TRIPOS>MOLECULE
MOPQUD
    36    37     1
SMALL
NO_CHARGES
****
Generated from CSD

@<TRIPOS>ATOM
      1 N1         1.4031   11.3368    3.7470 N.ar      1 RES1    0.0000
      2 N2         0.6162   11.7229    5.8618 N.3       1 RES1    0.0000
      3 C1         0.7026   12.1539    4.6077 C.ar      1 RES1    0.0000
      4 N3         0.1108   13.3151    4.3205 N.ar      1 RES1    0.0000
      5 N4        -0.4077   14.8784    2.7324 N.3       1 RES1    0.0000
      6 C2         0.1812   13.7308    3.0500 C.ar      1 RES1    0.0000
      7 C3         0.8911   12.9718    2.0419 C.ar      1 RES1    0.0000
      8 N5         1.0719   13.2978    0.7359 N.2       1 RES1    0.0000
      9 O1         0.5355   14.3812    0.3219 O.2       1 RES1    0.0000
     10 O2         2.1056   10.9957    1.6034 O.3       1 RES1    0.0000
     11 C4         1.4700   11.7532    2.5119 C.ar      1 RES1    0.0000
     12 C5        -1.1437   15.7000    3.6917 C.3       1 RES1    0.0000
     13 C6        -0.5032   17.0128    3.9582 C.2       1 RES1    0.0000
     14 C7         0.5877   17.4810    3.4315 C.2       1 RES1    0.0000
     15 C8         2.6133    9.7134    2.0716 C.3       1 RES1    0.0000
     16 C9         3.0622    8.9517    0.8564 C.ar      1 RES1    0.0000
     17 C10        4.3352    9.1403    0.3439 C.ar      1 RES1    0.0000
     18 C11        4.7394    8.4653   -0.8061 C.ar      1 RES1    0.0000
     19 C12        3.8858    7.5755   -1.4194 C.ar      1 RES1    0.0000
     20 C13        2.6184    7.3748   -0.9117 C.ar      1 RES1    0.0000
     21 C14        2.1964    8.0678    0.2226 C.ar      1 RES1    0.0000
     22 H1         0.1829   12.1978    6.4616 H         1 RES1    0.0000
     23 H2         0.9938   10.9615    6.0923 H         1 RES1    0.0000
     24 H3        -0.3497   15.0766    1.9185 H         1 RES1    0.0000
     25 H4        -1.2233   15.2022    4.5446 H         1 RES1    0.0000
     26 H5        -2.0585   15.8549    3.3464 H         1 RES1    0.0000
     27 H6        -0.9417   17.5738    4.5857 H         1 RES1    0.0000
     28 H7         1.0692   16.9631    2.7976 H         1 RES1    0.0000
     29 H8         0.9033   18.3422    3.6810 H         1 RES1    0.0000
     30 H9         1.9027    9.2154    2.5474 H         1 RES1    0.0000
     31 H10        3.3730    9.8508    2.6927 H         1 RES1    0.0000
     32 H11        4.9361    9.7326    0.7785 H         1 RES1    0.0000
     33 H12        5.6048    8.6195   -1.1670 H         1 RES1    0.0000
     34 H13        4.1690    7.1000   -2.1915 H         1 RES1    0.0000
     35 H14        2.0308    6.7626   -1.3371 H         1 RES1    0.0000
     36 H15        1.3192    7.9348    0.5615 H         1 RES1    0.0000
@<TRIPOS>BOND
     1    1    3 ar
     2    2    3 1
     3    3    4 ar
     4    4    6 ar
     5    5    6 1
     6    6    7 ar
     7    7    8 1
     8    8    9 2
     9   10   11 1
    10   11    1 ar
    11   12    5 1
    12   13   12 1
    13   14   13 2
    14   15   10 1
    15   16   15 1
    16   17   16 ar
    17   18   17 ar
    18   19   18 ar
    19   20   19 ar
    20   21   16 ar
    21   22    2 1
    22   23    2 1
    23   24    5 1
    24   25   12 1
    25   26   12 1
    26   27   13 1
    27   28   14 1
    28   29   14 1
    29   30   15 1
    30   31   15 1
    31   32   17 1
    32   33   18 1
    33   34   19 1
    34   35   20 1
    35   36   21 1
    36    7   11 ar
    37   20   21 ar
@<TRIPOS>SUBSTRUCTURE
     1 RES1 1

@<TRIPOS>CRYSIN
   8.0338   24.6270    7.4087  90.0000 106.8720  90.0000  14 1

