# MOL2 file generated by ConQuest
# Please check atom types

@<TRIPOS>MOLECULE
MOQBUP
    17    17     1
SMALL
NO_CHARGES
****
Generated from CSD

@<TRIPOS>ATOM
      1 C1         2.2876    4.9697    1.7182 C.ar      1 RES1    0.0000
      2 C2         1.1079    5.6608    1.9670 C.ar      1 RES1    0.0000
      3 C3        -0.1075    5.1818    1.5476 C.ar      1 RES1    0.0000
      4 C4        -0.1753    3.9720    0.8936 C.ar      1 RES1    0.0000
      5 C5         0.9925    3.2960    0.6611 C.ar      1 RES1    0.0000
      6 C6         2.2217    3.7692    1.0520 C.ar      1 RES1    0.0000
      7 N1         3.5714    5.4114    2.1416 N.3       1 RES1    0.0000
      8 N2         4.0496    6.5606    1.6136 N.pl3     1 RES1    0.0000
      9 O1         3.3704    7.1200    0.7606 O.2       1 RES1    0.0000
     10 O2         5.1388    6.9452    2.0147 O.2       1 RES1    0.0000
     11 C7         4.3127    4.7424    3.1855 C.3       1 RES1    0.0000
     12 N3         1.1199    6.9475    2.6676 N.pl3     1 RES1    0.0000
     13 O3         0.2479    7.7401    2.3691 O.2       1 RES1    0.0000
     14 O4         1.9812    7.1713    3.4881 O.2       1 RES1    0.0000
     15 N4         0.9504    2.0128   -0.0640 N.pl3     1 RES1    0.0000
     16 O5        -0.1360    1.5536   -0.3442 O.2       1 RES1    0.0000
     17 O6         2.0043    1.4837   -0.3442 O.2       1 RES1    0.0000
@<TRIPOS>BOND
     1    1    2 ar
     2    2    3 ar
     3    3    4 ar
     4    4    5 ar
     5    5    6 ar
     6    6    1 ar
     7    7    1 1
     8    8    7 1
     9    9    8 2
    10   10    8 2
    11   11    7 1
    12   12    2 1
    13   13   12 2
    14   14   12 2
    15   15    5 1
    16   16   15 2
    17   17   15 2
@<TRIPOS>SUBSTRUCTURE
     1 RES1 1

@<TRIPOS>CRYSIN
   8.2480   11.6550   10.4040  90.0000 102.5700  90.0000  14 1

