# MOL2 file generated by ConQuest
# Please check atom types

@<TRIPOS>MOLECULE
MOQJUY
    38    39     1
SMALL
NO_CHARGES
****
Generated from CSD

@<TRIPOS>ATOM
      1 O1         3.7381    2.8206    4.8297 O.3       1 RES1    0.0000
      2 O2         2.8897    2.1902    1.1654 O.3       1 RES1    0.0000
      3 C1         1.4205    1.5330   -0.4320 C.2       1 RES1    0.0000
      4 O3         0.9440    1.3182    6.8671 O.3       1 RES1    0.0000
      5 O4         1.2128    3.5695    6.6074 O.2       1 RES1    0.0000
      6 O5         3.4887    4.4285    3.3279 O.2       1 RES1    0.0000
      7 N1         1.1817    2.1411    4.8512 N.am      1 RES1    0.0000
      8 C2         1.0001    2.9076    2.5097 C.3       1 RES1    0.0000
      9 C3         1.6284    3.0965    3.8864 C.3       1 RES1    0.0000
     10 N2         2.4814    1.2034    0.2691 N.2       1 RES1    0.0000
     11 O6         0.9211    0.8433   -1.3026 O.3       1 RES1    0.0000
     12 C4         1.1130    2.4596    6.1673 C.2       1 RES1    0.0000
     13 C5         1.7973    3.1261    1.2690 C.3       1 RES1    0.0000
     14 C6         3.0352    3.5177    3.9698 C.2       1 RES1    0.0000
     15 C7         0.5933    4.0592    3.3790 C.3       1 RES1    0.0000
     16 C8         0.9722    2.8900    0.0067 C.3       1 RES1    0.0000
     17 C9         0.7200    1.3580    8.3191 C.3       1 RES1    0.0000
     18 C10        2.0054    1.8097    8.9717 C.3       1 RES1    0.0000
     19 H1         2.7425    1.3154    8.6057 H         1 RES1    0.0000
     20 H2         1.9558    1.6552    9.9178 H         1 RES1    0.0000
     21 H3         2.1356    2.7466    8.8076 H         1 RES1    0.0000
     22 C11        0.4550   -0.1083    8.6367 C.3       1 RES1    0.0000
     23 H4        -0.2122   -0.4499    8.0365 H         1 RES1    0.0000
     24 H5         0.1427   -0.1879    9.5410 H         1 RES1    0.0000
     25 H6         1.2667   -0.6100    8.5331 H         1 RES1    0.0000
     26 C12       -0.4549    2.2208    8.6555 C.3       1 RES1    0.0000
     27 H7        -0.2098    3.1446    8.5653 H         1 RES1    0.0000
     28 H8        -0.7291    2.0486    9.5598 H         1 RES1    0.0000
     29 H9        -1.1797    2.0217    8.0594 H         1 RES1    0.0000
     30 H10        1.2305    1.4348    4.7503 H         1 RES1    0.0000
     31 H11        4.2212    3.3510    5.2078 H         1 RES1    0.0000
     32 H12        0.4244    2.2495    2.5299 H         1 RES1    0.0000
     33 H13        2.1950    4.0175    1.3457 H         1 RES1    0.0000
     34 H14       -0.3084    4.0083    3.8891 H         1 RES1    0.0000
     35 H15        0.9573    4.7396    3.1489 H         1 RES1    0.0000
     36 H16        0.1386    2.9067    0.1346 H         1 RES1    0.0000
     37 H17        1.6168    3.3695   -0.5921 H         1 RES1    0.0000
     38 H18        0.3195    1.2219   -1.8840 H         1 RES1    0.0000
@<TRIPOS>BOND
     1    1   14 1
     2    2   10 1
     3    3   10 2
     4    4   12 1
     5    5   12 2
     6    6   14 2
     7    7    9 1
     8    8    9 1
     9    9   14 1
    10   11    3 1
    11   12    7 1
    12   13    2 1
    13   15    8 1
    14   16    3 1
    15   17    4 1
    16   18   17 1
    17   19   18 1
    18   20   18 1
    19   21   18 1
    20   22   17 1
    21   23   22 1
    22   24   22 1
    23   25   22 1
    24   26   17 1
    25   27   26 1
    26   28   26 1
    27   29   26 1
    28   30    7 1
    29   31    1 1
    30   32    8 1
    31   33   13 1
    32   34   15 1
    33   35   15 1
    34   36   16 1
    35   37   16 1
    36   38   11 1
    37    8   13 1
    38    9   15 1
    39   13   16 1
@<TRIPOS>SUBSTRUCTURE
     1 RES1 1

@<TRIPOS>CRYSIN
  11.8950    9.2570   13.5520  90.0000  96.7900  90.0000 231 1

