# MOL2 file generated by ConQuest
# Please check atom types

@<TRIPOS>MOLECULE
MOQLIP
    61    64     1
SMALL
NO_CHARGES
****
Generated from CSD

@<TRIPOS>ATOM
      1 O1         1.5739    4.2317   21.0877 O.3       1 RES1    0.0000
      2 O2         0.6363    4.6352   23.1208 O.2       1 RES1    0.0000
      3 O3        -0.5777    6.9112   22.0163 O.3       1 RES1    0.0000
      4 O4         6.9227    2.4920   21.3436 O.2       1 RES1    0.0000
      5 O5         1.4507   -2.3852   18.1259 O.2       1 RES1    0.0000
      6 O6         0.4368   -0.9822   16.8424 O.2       1 RES1    0.0000
      7 O7         4.6287    0.7047   17.7731 O.2       1 RES1    0.0000
      8 N1         5.5604    1.8938   19.5454 N.am      1 RES1    0.0000
      9 N2         1.0676   -1.2510   17.8620 N.pl3     1 RES1    0.0000
     10 C1         3.7769    3.3282   21.5119 C.3       1 RES1    0.0000
     11 C2         2.2582    3.0251   21.5231 C.3       1 RES1    0.0000
     12 C3         2.1302   -0.4264   19.9219 C.ar      1 RES1    0.0000
     13 C4         6.5150    1.6653   20.5657 C.2       1 RES1    0.0000
     14 C5         1.8906    1.9027   20.5669 C.ar      1 RES1    0.0000
     15 C6         2.0418    7.8867   22.5066 C.ar      1 RES1    0.0000
     16 C7         2.5531    7.2432   20.2428 C.ar      1 RES1    0.0000
     17 C8         0.4773    6.2825   21.3215 C.3       1 RES1    0.0000
     18 C9         0.8219    1.0918   18.5514 C.ar      1 RES1    0.0000
     19 C10        0.8701    4.9512   21.9947 C.2       1 RES1    0.0000
     20 C11        2.4001    0.6137   20.8033 C.ar      1 RES1    0.0000
     21 C12        1.7050    7.1809   21.3494 C.ar      1 RES1    0.0000
     22 C13        4.1320    4.3439   22.6077 C.3       1 RES1    0.0000
     23 C14        6.2365   -0.3016   19.3182 C.ar      1 RES1    0.0000
     24 C15        3.7289    7.9886   20.2953 C.ar      1 RES1    0.0000
     25 C16        6.4331   -1.6178   18.9147 C.ar      1 RES1    0.0000
     26 C17        7.7594   -0.5425   21.1884 C.ar      1 RES1    0.0000
     27 C18        4.0524    8.6968   21.4447 C.ar      1 RES1    0.0000
     28 C19        3.1964    8.6518   22.5472 C.ar      1 RES1    0.0000
     29 C20        1.3540   -0.1591   18.8037 C.ar      1 RES1    0.0000
     30 C21        4.9621    3.1634   19.2692 C.2       1 RES1    0.0000
     31 C22        6.8995    0.2254   20.4301 C.ar      1 RES1    0.0000
     32 C23        1.0933    2.1274   19.4424 C.ar      1 RES1    0.0000
     33 C24        4.2030    3.8103   20.1465 C.2       1 RES1    0.0000
     34 C25        5.3702    0.7596   18.7387 C.2       1 RES1    0.0000
     35 C26        7.9577   -1.8718   20.7899 C.ar      1 RES1    0.0000
     36 C27        7.3110   -2.3961   19.6745 C.ar      1 RES1    0.0000
     37 C28       -1.8200    6.2183   21.8496 C.3       1 RES1    0.0000
     38 H1         2.4604   -1.2810   20.0775 H         1 RES1    0.0000
     39 H2         1.4944    7.8365   23.2556 H         1 RES1    0.0000
     40 H3         2.3235    6.7916   19.4626 H         1 RES1    0.0000
     41 H4         0.2909    1.2383   17.8008 H         1 RES1    0.0000
     42 H5         2.9257    0.4590   21.5539 H         1 RES1    0.0000
     43 H6         4.3009    8.0014   19.5611 H         1 RES1    0.0000
     44 H7         5.9901   -1.9677   18.1763 H         1 RES1    0.0000
     45 H8         8.1899   -0.1933   21.9341 H         1 RES1    0.0000
     46 H9         4.8346    9.1981   21.4835 H         1 RES1    0.0000
     47 H10        3.3962    9.1448   23.3095 H         1 RES1    0.0000
     48 H11        5.1103    3.5535   18.4392 H         1 RES1    0.0000
     49 H12        0.7463    2.9759   19.2842 H         1 RES1    0.0000
     50 H13        3.8953    4.6495   19.8897 H         1 RES1    0.0000
     51 H14        8.5306   -2.4161   21.2816 H         1 RES1    0.0000
     52 H15        7.4721   -3.2772   19.4274 H         1 RES1    0.0000
     53 H16        3.7752    4.0434   23.4457 H         1 RES1    0.0000
     54 H17        5.0854    4.4289   22.6782 H         1 RES1    0.0000
     55 H18        3.7511    5.1963   22.3848 H         1 RES1    0.0000
     56 H19       -1.6954    5.2828   22.0233 H         1 RES1    0.0000
     57 H20       -2.4667    6.5733   22.4622 H         1 RES1    0.0000
     58 H21       -2.1331    6.3385   20.9507 H         1 RES1    0.0000
     59 H22        4.2555    2.4955   21.7041 H         1 RES1    0.0000
     60 H23        1.9712    2.7956   22.4317 H         1 RES1    0.0000
     61 H24        0.2108    6.1131   20.3944 H         1 RES1    0.0000
@<TRIPOS>BOND
     1    1   11 1
     2    2   19 2
     3    3   17 1
     4    4   13 2
     5    5    9 2
     6    6    9 2
     7    7   34 2
     8    8   13 1
     9    9   29 1
    10   10   11 1
    11   11   14 1
    12   12   20 ar
    13   13   31 1
    14   14   20 ar
    15   15   21 ar
    16   16   21 ar
    17   17   19 1
    18   18   29 ar
    19   19    1 1
    20   20   42 1
    21   21   17 1
    22   22   10 1
    23   23   25 ar
    24   24   16 ar
    25   25   36 ar
    26   26   31 ar
    27   27   24 ar
    28   28   15 ar
    29   29   12 ar
    30   30    8 1
    31   31   23 ar
    32   32   14 ar
    33   33   10 1
    34   34    8 1
    35   35   26 ar
    36   36   35 ar
    37   37    3 1
    38   38   12 1
    39   39   15 1
    40   40   16 1
    41   41   18 1
    42   43   24 1
    43   44   25 1
    44   45   26 1
    45   46   27 1
    46   47   28 1
    47   48   30 1
    48   49   32 1
    49   50   33 1
    50   51   35 1
    51   52   36 1
    52   53   22 1
    53   54   22 1
    54   55   22 1
    55   56   37 1
    56   57   37 1
    57   58   37 1
    58   59   10 1
    59   60   11 1
    60   61   17 1
    61   18   32 ar
    62   23   34 1
    63   27   28 ar
    64   30   33 2
@<TRIPOS>SUBSTRUCTURE
     1 RES1 1

@<TRIPOS>CRYSIN
   8.8953   11.8609   23.4715  90.0000  90.0000  90.0000  19 1

