# MOL2 file generated by ConQuest
# Please check atom types

@<TRIPOS>MOLECULE
MOQNIQ
    40    42     1
SMALL
NO_CHARGES
****
Generated from CSD

@<TRIPOS>ATOM
      1 O1         7.2218    0.6517    3.1448 O.2       1 RES1    0.0000
      2 O2         4.9694    0.7059    3.0990 O.3       1 RES1    0.0000
      3 O3         1.4419    3.2046    5.4878 O.2       1 RES1    0.0000
      4 O4         0.9226    1.1820    6.0081 O.2       1 RES1    0.0000
      5 N1         4.6036   -1.5223    3.7185 N.2       1 RES1    0.0000
      6 N2         1.5217    1.9984    5.3354 N.pl3     1 RES1    0.0000
      7 C1         2.2039   -1.5402    2.0463 C.ar      1 RES1    0.0000
      8 H1         2.1469   -2.1358    2.7581 H         1 RES1    0.0000
      9 C2         1.4135   -1.7347    0.9199 C.ar      1 RES1    0.0000
     10 H2         0.8348   -2.4621    0.8819 H         1 RES1    0.0000
     11 C3         1.4803   -0.8596   -0.1422 C.ar      1 RES1    0.0000
     12 H3         0.9533   -0.9907   -0.8972 H         1 RES1    0.0000
     13 C4         2.3396    0.2120   -0.0645 C.ar      1 RES1    0.0000
     14 H4         2.3906    0.8071   -0.7764 H         1 RES1    0.0000
     15 C5         3.1314    0.4209    1.0574 C.ar      1 RES1    0.0000
     16 H5         3.6997    1.1563    1.0964 H         1 RES1    0.0000
     17 C6         3.0745   -0.4658    2.1156 C.ar      1 RES1    0.0000
     18 C7         3.9263   -0.2792    3.3717 C.3       1 RES1    0.0000
     19 C8         5.8596   -1.2990    3.7214 C.2       1 RES1    0.0000
     20 C9         6.1612    0.1103    3.3070 C.2       1 RES1    0.0000
     21 C10        3.0970    0.2071    4.6016 C.3       1 RES1    0.0000
     22 H6         2.4068   -0.4654    4.7773 H         1 RES1    0.0000
     23 C11        2.3906    1.5072    4.2363 C.3       1 RES1    0.0000
     24 H7         3.0543    2.1834    4.0282 H         1 RES1    0.0000
     25 H8         1.8515    1.3652    3.4425 H         1 RES1    0.0000
     26 C12        3.9604    0.3213    5.8574 C.ar      1 RES1    0.0000
     27 C13        4.7456    1.4412    6.1058 C.ar      1 RES1    0.0000
     28 H9         4.7261    2.1611    5.5179 H         1 RES1    0.0000
     29 C14        5.5605    1.4851    7.2331 C.ar      1 RES1    0.0000
     30 H10        6.0936    2.2310    7.3856 H         1 RES1    0.0000
     31 C15        5.5850    0.4425    8.1192 C.ar      1 RES1    0.0000
     32 H11        6.1340    0.4783    8.8685 H         1 RES1    0.0000
     33 C16        4.7847   -0.6668    7.8914 C.ar      1 RES1    0.0000
     34 H12        4.7891   -1.3757    8.4923 H         1 RES1    0.0000
     35 C17        3.9776   -0.7175    6.7659 C.ar      1 RES1    0.0000
     36 H13        3.4390   -1.4622    6.6212 H         1 RES1    0.0000
     37 C18        6.9379   -2.2578    4.0764 C.3       1 RES1    0.0000
     38 H14        6.5611   -3.1320    4.1985 H         1 RES1    0.0000
     39 H15        7.3626   -1.9751    4.8897 H         1 RES1    0.0000
     40 H16        7.5865   -2.2854    3.3693 H         1 RES1    0.0000
@<TRIPOS>BOND
     1    1   20 2
     2    2   18 1
     3    3    6 2
     4    4    6 2
     5    5   18 1
     6    6   23 1
     7    7    8 1
     8    9    7 ar
     9   10    9 1
    10   11    9 ar
    11   12   11 1
    12   13   11 ar
    13   14   13 1
    14   15   13 ar
    15   16   15 1
    16   17    7 ar
    17   18   17 1
    18   19    5 2
    19   20    2 1
    20   21   18 1
    21   22   21 1
    22   23   21 1
    23   24   23 1
    24   25   23 1
    25   26   21 1
    26   27   26 ar
    27   28   27 1
    28   29   27 ar
    29   30   29 1
    30   31   29 ar
    31   32   31 1
    32   33   31 ar
    33   34   33 1
    34   35   26 ar
    35   36   35 1
    36   37   19 1
    37   38   37 1
    38   39   37 1
    39   40   37 1
    40   15   17 ar
    41   19   20 1
    42   33   35 ar
@<TRIPOS>SUBSTRUCTURE
     1 RES1 1

@<TRIPOS>CRYSIN
  15.7200    6.1800   17.0450  90.0000  92.7500  90.0000  14 2

