# MOL2 file generated by ConQuest
# Please check atom types

@<TRIPOS>MOLECULE
MOSCON01
    18    18     1
SMALL
NO_CHARGES
****
Generated from CSD

@<TRIPOS>ATOM
      1 H1         2.7083   11.3131   -2.6417 H         1 RES1    0.0000
      2 H2         4.2283   10.9397   -2.6274 H         1 RES1    0.0000
      3 H3         3.6470    8.7296   -1.8778 H         1 RES1    0.0000
      4 H4         3.0878    9.0465   -3.3200 H         1 RES1    0.0000
      5 H5        -0.6337    8.2100   -0.2570 H         1 RES1    0.0000
      6 H6         4.2330   11.2678   -0.6069 H         1 RES1    0.0000
      7 O1         2.4730    6.9957    2.1032 O.2       1 RES1    0.0000
      8 N1         2.1929    8.0144    0.1759 N.2       1 RES1    0.0000
      9 O2         3.4437   11.1320   -0.8234 O.3       1 RES1    0.0000
     10 N2        -0.0300    8.4030   -0.8544 N.pl3     1 RES1    0.0000
     11 N3         1.6633    7.3538    1.2422 N.pl3     1 RES1    0.0000
     12 N4         1.7163    8.9889   -1.9030 N.3       1 RES1    0.0000
     13 O3         0.4477    7.1273    1.3296 O.2       1 RES1    0.0000
     14 C1         1.3071    8.4040   -0.7553 C.2       1 RES1    0.0000
     15 N5         0.6339    9.3419   -2.6519 N.2       1 RES1    0.0000
     16 N6        -0.4198    8.9926   -2.0168 N.2       1 RES1    0.0000
     17 C2         3.0748    9.3013   -2.3775 C.3       1 RES1    0.0000
     18 C3         3.4056   10.7640   -2.2058 C.3       1 RES1    0.0000
@<TRIPOS>BOND
     1    1   18 1
     2    2   18 1
     3    3   17 1
     4    4   17 1
     5    5   10 1
     6    6    9 1
     7    7   11 2
     8    8   11 1
     9    9   18 1
    10   10   14 1
    11   11   13 2
    12   12   14 1
    13   14    8 2
    14   15   12 1
    15   16   10 1
    16   17   12 1
    17   18   17 1
    18   15   16 2
@<TRIPOS>SUBSTRUCTURE
     1 RES1 1

@<TRIPOS>CRYSIN
   7.1287    7.1304    7.9216  66.2120  89.2400  66.8580   2 1

