# MOL2 file generated by ConQuest
# Please check atom types

@<TRIPOS>MOLECULE
MOSLUC
    32    33     1
SMALL
NO_CHARGES
****
Generated from CSD

@<TRIPOS>ATOM
      1 H1        -0.3712   11.7181    4.9250 H         1 RES1    0.0000
      2 C1         0.2457   11.8853    2.6979 C.ar      1 RES1    0.0000
      3 C2         0.5778   12.0169    1.3528 C.ar      1 RES1    0.0000
      4 H2         1.0238   11.3290    0.9146 H         1 RES1    0.0000
      5 C3         0.2480   13.1600    0.6745 C.ar      1 RES1    0.0000
      6 C4        -0.3977   14.2213    1.2987 C.ar      1 RES1    0.0000
      7 H3        -0.6114   14.9893    0.8206 H         1 RES1    0.0000
      8 C5        -0.7134   14.1180    2.6265 C.ar      1 RES1    0.0000
      9 H4        -1.1289   14.8315    3.0548 H         1 RES1    0.0000
     10 C6        -0.4220   12.9561    3.3522 C.ar      1 RES1    0.0000
     11 C7         0.5694   10.6696    3.4034 C.2       1 RES1    0.0000
     12 H5         1.0209    9.9885    2.9592 H         1 RES1    0.0000
     13 C8         0.5127    9.3460    5.3934 C.ar      1 RES1    0.0000
     14 C9         0.1618    9.3801    6.7245 C.ar      1 RES1    0.0000
     15 H6        -0.2196   10.1550    7.0697 H         1 RES1    0.0000
     16 C10        0.3566    8.3045    7.5610 C.ar      1 RES1    0.0000
     17 H7         0.1115    8.3519    8.4576 H         1 RES1    0.0000
     18 C11        0.9209    7.1537    7.0496 C.ar      1 RES1    0.0000
     19 C12        1.2845    7.1020    5.7133 C.ar      1 RES1    0.0000
     20 H8         1.6690    6.3282    5.3709 H         1 RES1    0.0000
     21 C13        1.0827    8.1815    4.8883 C.ar      1 RES1    0.0000
     22 H9         1.3273    8.1335    3.9922 H         1 RES1    0.0000
     23 C14        0.7505    6.0227    9.1444 C.3       1 RES1    0.0000
     24 H10        0.9776    5.1824    9.5482 H         1 RES1    0.0000
     25 H11       -0.1999    6.1531    9.1902 H         1 RES1    0.0000
     26 H12        1.1935    6.7325    9.6149 H         1 RES1    0.0000
     27 N1         0.2433   10.5133    4.6351 N.2       1 RES1    0.0000
     28 N2         0.5708   13.2560   -0.7379 N.pl3     1 RES1    0.0000
     29 O1        -0.7714   12.8575    4.6200 O.3       1 RES1    0.0000
     30 O2         1.1659    6.0238    7.7788 O.3       1 RES1    0.0000
     31 O3         1.2959   12.3927   -1.2291 O.2       1 RES1    0.0000
     32 O4         0.0972   14.1675   -1.3953 O.2       1 RES1    0.0000
@<TRIPOS>BOND
     1    1   29 1
     2    2    3 ar
     3    3    4 1
     4    5    3 ar
     5    6    5 ar
     6    7    6 1
     7    8    6 ar
     8    9    8 1
     9   10    2 ar
    10   11    2 1
    11   12   11 1
    12   13   14 ar
    13   14   15 1
    14   16   14 ar
    15   17   16 1
    16   18   16 ar
    17   19   18 ar
    18   20   19 1
    19   21   13 ar
    20   22   21 1
    21   23   24 1
    22   25   23 1
    23   26   23 1
    24   27   11 2
    25   28    5 1
    26   29   10 1
    27   30   18 1
    28   31   28 2
    29   32   28 2
    30    8   10 ar
    31   13   27 1
    32   19   21 ar
    33   23   30 1
@<TRIPOS>SUBSTRUCTURE
     1 RES1 1

@<TRIPOS>CRYSIN
   3.8883   21.6202   15.3127  90.0000  97.8870  90.0000  14 1

