# MOL2 file generated by ConQuest
# Please check atom types

@<TRIPOS>MOLECULE
MOSSUJ
    37    38     1
SMALL
NO_CHARGES
****
Generated from CSD

@<TRIPOS>ATOM
      1 N1         5.4685    3.2651    6.9022 N.pl3     1 RES1    0.0000
      2 O1         0.9674    1.7204    7.9415 O.3       1 RES1    0.0000
      3 O2         1.8435    0.1298    9.7340 O.3       1 RES1    0.0000
      4 O3         7.0632    0.3035    8.7680 O.2       1 RES1    0.0000
      5 O4         6.6776    2.9616    6.8796 O.2       1 RES1    0.0000
      6 O5         5.0079    4.2069    6.3006 O.2       1 RES1    0.0000
      7 C1        -2.6405    0.5839    5.9002 C.ar      1 RES1    0.0000
      8 H1        -2.8494   -0.2051    5.4537 H         1 RES1    0.0000
      9 C2        -3.6568    1.3657    6.4215 C.ar      1 RES1    0.0000
     10 H2        -4.5446    1.1030    6.3363 H         1 RES1    0.0000
     11 C3        -3.3314    2.5325    7.0611 C.ar      1 RES1    0.0000
     12 H3        -4.0090    3.0788    7.3893 H         1 RES1    0.0000
     13 C4        -2.0165    2.9072    7.2231 C.ar      1 RES1    0.0000
     14 H4        -1.8170    3.6826    7.6966 H         1 RES1    0.0000
     15 C5        -0.9855    2.1443    6.6908 C.ar      1 RES1    0.0000
     16 C6        -1.3336    0.9596    6.0352 C.ar      1 RES1    0.0000
     17 H5        -0.6628    0.4176    5.6842 H         1 RES1    0.0000
     18 C7         0.4258    2.5325    6.8742 C.3       1 RES1    0.0000
     19 H6         0.9239    2.3829    6.0539 H         1 RES1    0.0000
     20 H7         0.4874    3.4723    7.1027 H         1 RES1    0.0000
     21 C8         2.3191    1.7497    8.1114 C.ar      1 RES1    0.0000
     22 C9         3.2029    2.5597    7.4362 C.ar      1 RES1    0.0000
     23 H8         2.8909    3.1793    6.8161 H         1 RES1    0.0000
     24 C10        4.5553    2.4446    7.6862 C.ar      1 RES1    0.0000
     25 C11        5.0976    1.5499    8.6223 C.ar      1 RES1    0.0000
     26 C12        4.1482    0.7399    9.3120 C.ar      1 RES1    0.0000
     27 H9         4.4495    0.1235    9.9396 H         1 RES1    0.0000
     28 C13        2.8186    0.8445    9.0767 C.ar      1 RES1    0.0000
     29 C14        2.2442   -0.6582   10.8741 C.3       1 RES1    0.0000
     30 H10        1.4769   -1.1030   11.2417 H         1 RES1    0.0000
     31 H11        2.6298   -0.0837   11.5408 H         1 RES1    0.0000
     32 H12        2.8922   -1.3113   10.6000 H         1 RES1    0.0000
     33 C15        6.5276    1.3720    8.9639 C.2       1 RES1    0.0000
     34 C16        7.2092    2.4551    9.6841 C.3       1 RES1    0.0000
     35 H13        8.1251    2.2133    9.8336 H         1 RES1    0.0000
     36 H14        6.7740    2.6016   10.5273 H         1 RES1    0.0000
     37 H15        7.1717    3.2598    9.1608 H         1 RES1    0.0000
@<TRIPOS>BOND
     1    1    5 2
     2    2   18 1
     3    3   28 1
     4    4   33 2
     5    6    1 2
     6    7    8 1
     7    9    7 ar
     8   10    9 1
     9   11    9 ar
    10   12   11 1
    11   13   11 ar
    12   14   13 1
    13   15   13 ar
    14   16    7 ar
    15   17   16 1
    16   18   15 1
    17   19   18 1
    18   20   18 1
    19   21    2 1
    20   22   21 ar
    21   23   22 1
    22   24    1 1
    23   25   24 ar
    24   26   25 ar
    25   27   26 1
    26   28   21 ar
    27   29    3 1
    28   30   29 1
    29   31   29 1
    30   32   29 1
    31   33   25 1
    32   34   33 1
    33   35   34 1
    34   36   34 1
    35   37   34 1
    36   15   16 ar
    37   22   24 ar
    38   26   28 ar
@<TRIPOS>SUBSTRUCTURE
     1 RES1 1

@<TRIPOS>CRYSIN
  13.3900   10.4650   20.7680  90.0000  90.0000  90.0000  61 1

