# MOL2 file generated by ConQuest
# Please check atom types

@<TRIPOS>MOLECULE
MOSWOH
   124   124     4
SMALL
NO_CHARGES
****
Generated from CSD

@<TRIPOS>ATOM
      1 O1         6.7901    1.0936   10.0555 O.2       1 RES1    0.0000
      2 O2         7.8456   -0.8821    9.9171 O.3       1 RES1    0.0000
      3 H1         7.7849   -0.8342   10.7339 H         1 RES1    0.0000
      4 O3         9.2027   -2.6260    5.7671 O.2       1 RES1    0.0000
      5 O4         8.3929   -1.9218    3.8815 O.2       1 RES1    0.0000
      6 N1         8.5485   -1.8084    5.1038 N.pl3     1 RES1    0.0000
      7 N2         7.3840    0.5306    3.7354 N.3       1 RES1    0.0000
      8 H2         7.6047   -0.1652    3.2793 H         1 RES1    0.0000
      9 C1         6.9733    1.5228    5.8772 C.ar      1 RES1    0.0000
     10 H3         6.6811    2.3041    5.4640 H         1 RES1    0.0000
     11 C2         6.9426    1.4419    7.2481 C.ar      1 RES1    0.0000
     12 H4         6.6065    2.1542    7.7412 H         1 RES1    0.0000
     13 C3         7.4135    0.2912    7.9177 C.ar      1 RES1    0.0000
     14 C4         7.9389   -0.7437    7.1754 C.ar      1 RES1    0.0000
     15 H5         8.2825   -1.4935    7.6058 H         1 RES1    0.0000
     16 C5         7.9587   -0.6749    5.7895 C.ar      1 RES1    0.0000
     17 C6         7.4384    0.4461    5.0697 C.ar      1 RES1    0.0000
     18 C7         6.9748    1.7227    3.0008 C.3       1 RES1    0.0000
     19 H6         7.5643    2.4596    3.2206 H         1 RES1    0.0000
     20 H7         6.0730    1.9696    3.2567 H         1 RES1    0.0000
     21 C8         7.0261    1.4571    1.4990 C.3       1 RES1    0.0000
     22 H8         7.9236    1.1854    1.2526 H         1 RES1    0.0000
     23 H9         6.4237    0.7273    1.2842 H         1 RES1    0.0000
     24 C9         6.6371    2.6789    0.6929 C.3       1 RES1    0.0000
     25 H10        7.2572    3.3992    0.8870 H         1 RES1    0.0000
     26 H11        5.7513    2.9690    0.9637 H         1 RES1    0.0000
     27 C10        6.6386    2.4096   -0.8170 C.3       1 RES1    0.0000
     28 H12        6.3833    3.2077   -1.2842 H         1 RES1    0.0000
     29 H13        6.0149    1.7073   -1.0179 H         1 RES1    0.0000
     30 H14        7.5194    2.1445   -1.0946 H         1 RES1    0.0000
     31 C11        7.3343    0.1814    9.3847 C.2       1 RES1    0.0000
     32 O5         3.3780    1.1033    2.1994 O.2       2 RES2    0.0000
     33 O6         4.3308   -0.9258    2.3289 O.3       2 RES2    0.0000
     34 H15        4.2842   -0.8689    1.5121 H         2 RES2    0.0000
     35 O7         5.4771   -2.8227    6.4923 O.2       2 RES2    0.0000
     36 O8         4.7579   -2.0525    8.3750 O.2       2 RES2    0.0000
     37 N3         4.8909   -1.9576    7.1474 N.pl3     2 RES2    0.0000
     38 N4         3.8124    0.4196    8.5221 N.3       2 RES2    0.0000
     39 H16        4.0375   -0.2720    8.9803 H         2 RES2    0.0000
     40 C12        3.4542    1.4348    6.3726 C.ar      2 RES2    0.0000
     41 H17        3.1607    2.2125    6.7888 H         2 RES2    0.0000
     42 C13        3.4641    1.3829    5.0122 C.ar      2 RES2    0.0000
     43 H18        3.1728    2.1195    4.5229 H         2 RES2    0.0000
     44 C14        3.9084    0.2300    4.3337 C.ar      2 RES2    0.0000
     45 C15        4.3782   -0.8409    5.0797 C.ar      2 RES2    0.0000
     46 H19        4.7012   -1.5962    4.6447 H         2 RES2    0.0000
     47 C16        4.3709   -0.7970    6.4640 C.ar      2 RES2    0.0000
     48 C17        3.8777    0.3420    7.1815 C.ar      2 RES2    0.0000
     49 C18        3.3803    1.6161    9.2414 C.3       2 RES2    0.0000
     50 H20        2.5001    1.8794    8.9306 H         2 RES2    0.0000
     51 H21        3.9950    2.3443    9.0570 H         2 RES2    0.0000
     52 C19        3.3344    1.3591   10.7323 C.3       2 RES2    0.0000
     53 H22        4.2207    1.1229   11.0454 H         2 RES2    0.0000
     54 H23        2.7432    0.6121   10.9122 H         2 RES2    0.0000
     55 C20        2.8418    2.5881   11.4882 C.3       2 RES2    0.0000
     56 H24        1.9465    2.8093   11.1853 H         2 RES2    0.0000
     57 H25        3.4198    3.3396   11.2823 H         2 RES2    0.0000
     58 C21        2.8189    2.3760   13.0008 C.3       2 RES2    0.0000
     59 H26        2.5109    3.1772   13.4309 H         2 RES2    0.0000
     60 H27        3.7048    2.1681   13.3091 H         2 RES2    0.0000
     61 H28        2.2272    1.6503   13.2143 H         2 RES2    0.0000
     62 C22        3.8583    0.1599    2.8654 C.2       2 RES2    0.0000
     63 O9        -0.3056    1.0098   10.0284 O.2       3 RES3    0.0000
     64 O10        0.6084   -1.0337    9.9517 O.3       3 RES3    0.0000
     65 H29        0.5050   -0.9841   10.7633 H         3 RES3    0.0000
     66 O11        1.8850   -2.9558    5.8414 O.2       3 RES3    0.0000
     67 O12        1.4072   -2.0949    3.9081 O.2       3 RES3    0.0000
     68 N5         1.4029   -2.0481    5.1462 N.pl3     3 RES3    0.0000
     69 N6         0.3673    0.3345    3.7289 N.3       3 RES3    0.0000
     70 H30        0.6560   -0.3317    3.2680 H         3 RES3    0.0000
     71 C23       -0.0951    1.3271    5.8599 C.ar      3 RES3    0.0000
     72 H31       -0.3764    2.1028    5.4324 H         3 RES3    0.0000
     73 C24       -0.1448    1.2722    7.2260 C.ar      3 RES3    0.0000
     74 H32       -0.4625    2.0043    7.7029 H         3 RES3    0.0000
     75 C25        0.2796    0.1183    7.9222 C.ar      3 RES3    0.0000
     76 C26        0.7742   -0.9527    7.1960 C.ar      3 RES3    0.0000
     77 H33        1.0680   -1.7156    7.6397 H         3 RES3    0.0000
     78 C27        0.8333   -0.8960    5.8086 C.ar      3 RES3    0.0000
     79 C28        0.3707    0.2404    5.0724 C.ar      3 RES3    0.0000
     80 C29       -0.1077    1.5278    3.0193 C.3       3 RES3    0.0000
     81 H34        0.4747    2.2763    3.2229 H         3 RES3    0.0000
     82 H35       -1.0008    1.7517    3.3267 H         3 RES3    0.0000
     83 C30       -0.1344    1.3031    1.5142 C.3       3 RES3    0.0000
     84 H36       -0.6761    0.5247    1.3135 H         3 RES3    0.0000
     85 H37        0.7661    1.1326    1.1962 H         3 RES3    0.0000
     86 C31       -0.7061    2.5213    0.7933 C.3       3 RES3    0.0000
     87 H38       -1.6074    2.6816    1.1127 H         3 RES3    0.0000
     88 H39       -0.1711    3.2993    1.0156 H         3 RES3    0.0000
     89 C32       -0.7403    2.3634   -0.7220 C.3       3 RES3    0.0000
     90 H40       -1.0858    3.1661   -1.1194 H         3 RES3    0.0000
     91 H41       -1.3043    1.6226   -0.9547 H         3 RES3    0.0000
     92 H42        0.1480    2.2028   -1.0472 H         3 RES3    0.0000
     93 C33        0.1712    0.0713    9.3854 C.2       3 RES3    0.0000
     94 O13        4.0754    7.9305   10.9989 O.2       4 RES4    0.0000
     95 O14        3.0382    5.9386   10.8910 O.3       4 RES4    0.0000
     96 H43        3.1582    5.9698   11.7021 H         4 RES4    0.0000
     97 O15        1.5992    4.1511    6.7532 O.2       4 RES4    0.0000
     98 O16        2.2075    4.9434    4.8348 O.2       4 RES4    0.0000
     99 N7         2.1700    5.0082    6.0693 N.pl3     4 RES4    0.0000
    100 N8         3.3017    7.3513    4.6856 N.3       4 RES4    0.0000
    101 H44        3.0230    6.6805    4.2272 H         4 RES4    0.0000
    102 C34        3.8166    8.3100    6.8182 C.ar      4 RES4    0.0000
    103 H45        4.1220    9.0790    6.3939 H         4 RES4    0.0000
    104 C35        3.8824    8.2380    8.1886 C.ar      4 RES4    0.0000
    105 H46        4.2304    8.9527    8.6711 H         4 RES4    0.0000
    106 C36        3.4246    7.0869    8.8706 C.ar      4 RES4    0.0000
    107 C37        2.8736    6.0546    8.1342 C.ar      4 RES4    0.0000
    108 H47        2.5495    5.3022    8.5740 H         4 RES4    0.0000
    109 C38        2.7962    6.1229    6.7482 C.ar      4 RES4    0.0000
    110 C39        3.2980    7.2521    6.0235 C.ar      4 RES4    0.0000
    111 C40        3.7560    8.5407    3.9695 C.3       4 RES4    0.0000
    112 H48        4.6666    8.7472    4.2317 H         4 RES4    0.0000
    113 H49        3.1959    9.2955    4.2092 H         4 RES4    0.0000
    114 C41        3.6980    8.3240    2.4720 C.3       4 RES4    0.0000
    115 H50        2.7815    8.1532    2.2073 H         4 RES4    0.0000
    116 H51        4.2275    7.5452    2.2389 H         4 RES4    0.0000
    117 C42        4.2254    9.5403    1.7184 C.3       4 RES4    0.0000
    118 H52        3.6741   10.3088    1.9319 H         4 RES4    0.0000
    119 H53        5.1285    9.7313    2.0177 H         4 RES4    0.0000
    120 C43        4.2346    9.3423    0.2079 C.3       4 RES4    0.0000
    121 H54        4.5569   10.1408   -0.2167 H         4 RES4    0.0000
    122 H55        3.3441    9.1553   -0.0948 H         4 RES4    0.0000
    123 H56        4.8101    8.6071   -0.0158 H         4 RES4    0.0000
    124 C44        3.5342    7.0117   10.3351 C.2       4 RES4    0.0000
@<TRIPOS>BOND
     1    1   31 2
     2    2    3 1
     3    4    6 2
     4    5    6 2
     5    6   16 1
     6    7    8 1
     7    9   10 1
     8   11    9 ar
     9   12   11 1
    10   13   11 ar
    11   14   13 ar
    12   15   14 1
    13   16   14 ar
    14   17    7 1
    15   18    7 1
    16   19   18 1
    17   20   18 1
    18   21   18 1
    19   22   21 1
    20   23   21 1
    21   24   21 1
    22   25   24 1
    23   26   24 1
    24   27   24 1
    25   28   27 1
    26   29   27 1
    27   30   27 1
    28   31    2 1
    29   32   62 2
    30   33   34 1
    31   35   37 2
    32   36   37 2
    33   37   47 1
    34   38   39 1
    35   40   41 1
    36   42   40 ar
    37   43   42 1
    38   44   42 ar
    39   45   44 ar
    40   46   45 1
    41   47   45 ar
    42   48   38 1
    43   49   38 1
    44   50   49 1
    45   51   49 1
    46   52   49 1
    47   53   52 1
    48   54   52 1
    49   55   52 1
    50   56   55 1
    51   57   55 1
    52   58   55 1
    53   59   58 1
    54   60   58 1
    55   61   58 1
    56   62   33 1
    57   63   93 2
    58   64   65 1
    59   66   68 2
    60   67   68 2
    61   68   78 1
    62   69   70 1
    63   71   72 1
    64   73   71 ar
    65   74   73 1
    66   75   73 ar
    67   76   75 ar
    68   77   76 1
    69   78   76 ar
    70   79   69 1
    71   80   69 1
    72   81   80 1
    73   82   80 1
    74   83   80 1
    75   84   83 1
    76   85   83 1
    77   86   83 1
    78   87   86 1
    79   88   86 1
    80   89   86 1
    81   90   89 1
    82   91   89 1
    83   92   89 1
    84   93   64 1
    85   94  124 2
    86   95   96 1
    87   97   99 2
    88   98   99 2
    89   99  109 1
    90  100  101 1
    91  102  103 1
    92  104  102 ar
    93  105  104 1
    94  106  104 ar
    95  107  106 ar
    96  108  107 1
    97  109  107 ar
    98  110  100 1
    99  111  100 1
   100  112  111 1
   101  113  111 1
   102  114  111 1
   103  115  114 1
   104  116  114 1
   105  117  114 1
   106  118  117 1
   107  119  117 1
   108  120  117 1
   109  121  120 1
   110  122  120 1
   111  123  120 1
   112  124   95 1
   113    9   17 ar
   114   13   31 1
   115   16   17 ar
   116   40   48 ar
   117   44   62 1
   118   47   48 ar
   119   71   79 ar
   120   75   93 1
   121   78   79 ar
   122  102  110 ar
   123  106  124 1
   124  109  110 ar
@<TRIPOS>SUBSTRUCTURE
     1 RES1 1
     2 RES2 32
     3 RES3 63
     4 RES4 94

@<TRIPOS>CRYSIN
  14.5188   13.8801   22.5694  90.0000  90.2330  90.0000  14 1

