# MOL2 file generated by ConQuest
# Please check atom types

@<TRIPOS>MOLECULE
MOTFAD
    86    88     2
SMALL
NO_CHARGES
****
Generated from CSD

@<TRIPOS>ATOM
      1 N1         1.6420    6.1471    8.1791 N.pl3     1 RES1    0.0000
      2 N2         2.5598   -2.6718   -4.7932 N.pl3     1 RES1    0.0000
      3 O1         3.5230    2.2834    4.6223 O.3       1 RES1    0.0000
      4 O2         3.2256    1.4694   -1.1236 O.3       1 RES1    0.0000
      5 O3         2.4572    6.6613    8.9388 O.2       1 RES1    0.0000
      6 O4         0.4365    6.3875    8.2368 O.2       1 RES1    0.0000
      7 O5         3.5660   -3.1808   -5.2638 O.2       1 RES1    0.0000
      8 O6         1.4310   -3.0609   -5.0816 O.2       1 RES1    0.0000
      9 C1         2.6390    1.4047    3.8704 C.3       1 RES1    0.0000
     10 H1         1.8783    1.1402    4.4467 H         1 RES1    0.0000
     11 H2         3.1322    0.5824    3.6246 H         1 RES1    0.0000
     12 C2         2.1030    2.0612    2.6076 C.3       1 RES1    0.0000
     13 H3         1.5460    2.8389    2.8607 H         1 RES1    0.0000
     14 H4         1.5235    1.4156    2.1306 H         1 RES1    0.0000
     15 C3         3.2074    2.5266    1.6669 C.3       1 RES1    0.0000
     16 H5         3.7595    1.7462    1.4096 H         1 RES1    0.0000
     17 H6         3.7921    3.1644    2.1490 H         1 RES1    0.0000
     18 C4         2.6778    3.1978    0.4034 C.3       1 RES1    0.0000
     19 H7         1.9740    3.8463    0.6580 H         1 RES1    0.0000
     20 H8         3.4143    3.7051   -0.0215 H         1 RES1    0.0000
     21 C5         2.1049    2.2287   -0.6102 C.3       1 RES1    0.0000
     22 H9         1.4467    1.6268   -0.1810 H         1 RES1    0.0000
     23 H10        1.6543    2.7194   -1.3421 H         1 RES1    0.0000
     24 C6         2.9905    3.2489    5.4246 C.ar      1 RES1    0.0000
     25 C7         3.9143    4.0102    6.1558 C.ar      1 RES1    0.0000
     26 H11        4.8447    3.8634    6.0343 H         1 RES1    0.0000
     27 C8         3.4859    4.9680    7.0489 C.ar      1 RES1    0.0000
     28 H12        4.1109    5.4727    7.5559 H         1 RES1    0.0000
     29 C9         2.1195    5.1805    7.1913 C.ar      1 RES1    0.0000
     30 C10        1.1901    4.4624    6.4529 C.ar      1 RES1    0.0000
     31 H13        0.2624    4.6373    6.5573 H         1 RES1    0.0000
     32 C11        1.6171    3.4915    5.5651 C.ar      1 RES1    0.0000
     33 H14        0.9871    2.9942    5.0572 H         1 RES1    0.0000
     34 C12        2.9800    0.4693   -2.0103 C.ar      1 RES1    0.0000
     35 C13        4.1098   -0.2099   -2.4740 C.ar      1 RES1    0.0000
     36 H15        4.9706    0.0333   -2.1551 H         1 RES1    0.0000
     37 C14        3.9822   -1.2322   -3.3925 C.ar      1 RES1    0.0000
     38 H16        4.7484   -1.6933   -3.7135 H         1 RES1    0.0000
     39 C15        2.7075   -1.5748   -3.8402 C.ar      1 RES1    0.0000
     40 C16        1.5761   -0.9165   -3.3859 C.ar      1 RES1    0.0000
     41 H17        0.7170   -1.1683   -3.7043 H         1 RES1    0.0000
     42 C17        1.7026    0.1094   -2.4668 C.ar      1 RES1    0.0000
     43 H18        0.9328    0.5657   -2.1474 H         1 RES1    0.0000
     44 N3         5.9927   -3.8868    3.2356 N.pl3     2 RES2    0.0000
     45 N4         4.8581    5.1684   16.0967 N.pl3     2 RES2    0.0000
     46 O7         6.6003    0.2372    6.9348 O.3       2 RES2    0.0000
     47 O8         5.7122    0.8875   12.6424 O.3       2 RES2    0.0000
     48 O9         7.0217   -4.3948    2.8019 O.2       2 RES2    0.0000
     49 O10        4.8652   -4.2218    2.8604 O.2       2 RES2    0.0000
     50 O11        5.8180    5.6034   16.7280 O.2       2 RES2    0.0000
     51 O12        3.7225    5.6475   16.2036 O.2       2 RES2    0.0000
     52 C18        5.5005    0.9774    7.5197 C.3       2 RES2    0.0000
     53 H19        4.8032    1.1217    6.8319 H         2 RES2    0.0000
     54 H20        5.8267    1.8644    7.8136 H         2 RES2    0.0000
     55 C19        4.8908    0.2569    8.6983 C.3       2 RES2    0.0000
     56 H21        4.4398   -0.5625    8.3750 H         2 RES2    0.0000
     57 H22        4.2025    0.8380    9.1082 H         2 RES2    0.0000
     58 C20        5.9118   -0.1300    9.7670 C.3       2 RES2    0.0000
     59 H23        6.4126    0.6779   10.0454 H         2 RES2    0.0000
     60 H24        6.5602   -0.7705    9.3797 H         2 RES2    0.0000
     61 C21        5.2550   -0.7607   10.9941 C.3       2 RES2    0.0000
     62 H25        4.5585   -1.3971   10.6957 H         2 RES2    0.0000
     63 H26        5.9363   -1.2716   11.4980 H         2 RES2    0.0000
     64 C22        4.6275    0.2622   11.9121 C.3       2 RES2    0.0000
     65 H27        4.1304    0.9384   11.3860 H         2 RES2    0.0000
     66 H28        3.9981   -0.1763   12.5379 H         2 RES2    0.0000
     67 C23        6.3440   -0.7959    6.0909 C.ar      2 RES2    0.0000
     68 C24        7.4836   -1.4587    5.6218 C.ar      2 RES2    0.0000
     69 H29        8.3408   -1.2065    5.9438 H         2 RES2    0.0000
     70 C25        7.3726   -2.4754    4.6960 C.ar      2 RES2    0.0000
     71 H30        8.1467   -2.9225    4.3731 H         2 RES2    0.0000
     72 C26        6.1085   -2.8334    4.2441 C.ar      2 RES2    0.0000
     73 C27        4.9622   -2.2151    4.7282 C.ar      2 RES2    0.0000
     74 H31        4.1056   -2.4932    4.4252 H         2 RES2    0.0000
     75 C28        5.0733   -1.1913    5.6550 C.ar      2 RES2    0.0000
     76 H32        4.2958   -0.7622    5.9913 H         2 RES2    0.0000
     77 C29        5.4208    1.9202   13.4695 C.ar      2 RES2    0.0000
     78 C30        6.5171    2.4822   14.1430 C.ar      2 RES2    0.0000
     79 H33        7.3882    2.1298   13.9997 H         2 RES2    0.0000
     80 C31        6.3421    3.5372   15.0064 C.ar      2 RES2    0.0000
     81 H34        7.0829    3.9147   15.4661 H         2 RES2    0.0000
     82 C32        5.0570    4.0429   15.1951 C.ar      2 RES2    0.0000
     83 C33        3.9615    3.4933   14.5403 C.ar      2 RES2    0.0000
     84 H35        3.0936    3.8498   14.6854 H         2 RES2    0.0000
     85 C34        4.1360    2.4275   13.6784 C.ar      2 RES2    0.0000
     86 H36        3.3900    2.0438   13.2328 H         2 RES2    0.0000
@<TRIPOS>BOND
     1    1    5 2
     2    2    7 2
     3    3    9 1
     4    4   21 1
     5    6    1 2
     6    8    2 2
     7    9   10 1
     8   11    9 1
     9   12    9 1
    10   13   12 1
    11   14   12 1
    12   15   12 1
    13   16   15 1
    14   17   15 1
    15   18   15 1
    16   19   18 1
    17   20   18 1
    18   21   18 1
    19   22   21 1
    20   23   21 1
    21   24    3 1
    22   25   24 ar
    23   26   25 1
    24   27   25 ar
    25   28   27 1
    26   29    1 1
    27   30   29 ar
    28   31   30 1
    29   32   24 ar
    30   33   32 1
    31   34    4 1
    32   35   34 ar
    33   36   35 1
    34   37   35 ar
    35   38   37 1
    36   39    2 1
    37   40   39 ar
    38   41   40 1
    39   42   34 ar
    40   43   42 1
    41   44   48 2
    42   45   50 2
    43   46   52 1
    44   47   64 1
    45   49   44 2
    46   51   45 2
    47   52   53 1
    48   54   52 1
    49   55   52 1
    50   56   55 1
    51   57   55 1
    52   58   55 1
    53   59   58 1
    54   60   58 1
    55   61   58 1
    56   62   61 1
    57   63   61 1
    58   64   61 1
    59   65   64 1
    60   66   64 1
    61   67   46 1
    62   68   67 ar
    63   69   68 1
    64   70   68 ar
    65   71   70 1
    66   72   44 1
    67   73   72 ar
    68   74   73 1
    69   75   67 ar
    70   76   75 1
    71   77   47 1
    72   78   77 ar
    73   79   78 1
    74   80   78 ar
    75   81   80 1
    76   82   45 1
    77   83   82 ar
    78   84   83 1
    79   85   77 ar
    80   86   85 1
    81   27   29 ar
    82   30   32 ar
    83   37   39 ar
    84   40   42 ar
    85   70   72 ar
    86   73   75 ar
    87   80   82 ar
    88   83   85 ar
@<TRIPOS>SUBSTRUCTURE
     1 RES1 1
     2 RES2 44

@<TRIPOS>CRYSIN
  10.6032   10.7227   16.3124  95.6030 105.7180 110.5720   2 1

