# MOL2 file generated by ConQuest
# Please check atom types

@<TRIPOS>MOLECULE
MOTJIQ
    70    61     2
SMALL
NO_CHARGES
****
Generated from CSD

@<TRIPOS>ATOM
      1 C1         3.0452    1.5850   11.1099 C.ar      1 RES1    0.0000
      2 H1         2.3686    1.3028   10.5367 H         1 RES1    0.0000
      3 C2         3.1981    2.9211   11.3712 C.ar      1 RES1    0.0000
      4 H2         2.6265    3.5401   10.9770 H         1 RES1    0.0000
      5 C3         4.2334    3.3649   12.2510 C.ar      1 RES1    0.0000
      6 C4         5.0884    2.4170   12.8012 C.ar      1 RES1    0.0000
      7 C5         7.5139    2.2885   13.0994 C.2       1 RES1    0.0000
      8 C6         9.0994    2.1690   11.7668 C.2       1 RES1    0.0000
      9 C7        10.1125    2.3514   10.6984 C.3       1 RES1    0.0000
     10 H3         9.7515    2.0684    9.8437 H         1 RES1    0.0000
     11 H4        10.3631    3.2859   10.6320 H         1 RES1    0.0000
     12 C8        12.3709    1.7054   10.2956 C.ar      1 RES1    0.0000
     13 C9        12.5225    2.4547    9.1766 C.ar      1 RES1    0.0000
     14 H5        11.8054    2.9229    8.8142 H         1 RES1    0.0000
     15 C10       13.7802    2.5032    8.5818 C.ar      1 RES1    0.0000
     16 H6        13.8854    3.0289    7.8224 H         1 RES1    0.0000
     17 C11       14.8680    1.8231    9.0539 C.ar      1 RES1    0.0000
     18 C12       16.2842    2.0342    8.6814 C.3       1 RES1    0.0000
     19 C13       16.7976    0.7547    8.1126 C.3       1 RES1    0.0000
     20 H7        16.3921    0.0162    8.5688 H         1 RES1    0.0000
     21 H8        17.7514    0.7161    8.2252 H         1 RES1    0.0000
     22 H9        16.5841    0.7125    7.1785 H         1 RES1    0.0000
     23 C14       17.1814    2.4350    9.8220 C.3       1 RES1    0.0000
     24 H10       16.9100    3.2939   10.1555 H         1 RES1    0.0000
     25 H11       18.0904    2.4862    9.5130 H         1 RES1    0.0000
     26 H12       17.1184    1.7844   10.5237 H         1 RES1    0.0000
     27 C15       16.4157    3.0639    7.5712 C.3       1 RES1    0.0000
     28 H13       15.9623    2.7449    6.7872 H         1 RES1    0.0000
     29 H14       17.3450    3.1978    7.3690 H         1 RES1    0.0000
     30 H15       16.0261    3.8914    7.8541 H         1 RES1    0.0000
     31 C16       14.6424    1.0378   10.1411 C.ar      1 RES1    0.0000
     32 H16       15.3468    0.5355   10.4847 H         1 RES1    0.0000
     33 C17        3.8677    0.6712   11.6773 C.ar      1 RES1    0.0000
     34 H17        3.7463   -0.2345   11.5054 H         1 RES1    0.0000
     35 C18        4.8786    1.0791   12.5045 C.ar      1 RES1    0.0000
     36 H18        5.4408    0.4403   12.8799 H         1 RES1    0.0000
     37 C19        4.3370    4.7666   12.6128 C.2       1 RES1    0.0000
     38 C20        5.4428    5.1934   13.4921 C.ar      1 RES1    0.0000
     39 C21        5.5979    6.5376   13.8097 C.ar      1 RES1    0.0000
     40 H19        5.0000    7.1611   13.4675 H         1 RES1    0.0000
     41 C22        6.6152    6.9554   14.6124 C.ar      1 RES1    0.0000
     42 H20        6.7090    7.8620   14.7987 H         1 RES1    0.0000
     43 C23        7.5134    6.0488   15.1582 C.ar      1 RES1    0.0000
     44 H21        8.1966    6.3408   15.7169 H         1 RES1    0.0000
     45 C24        7.3755    4.6767   14.8521 C.ar      1 RES1    0.0000
     46 H22        7.9747    4.0586   15.2058 H         1 RES1    0.0000
     47 C25        6.3528    4.2562   14.0258 C.ar      1 RES1    0.0000
     48 C26       13.4188    0.9587   10.7504 C.ar      1 RES1    0.0000
     49 H23       13.3015    0.3926   11.4780 H         1 RES1    0.0000
     50 C27        6.2335    2.7746   13.7400 C.3       1 RES1    0.0000
     51 N1         8.1516    1.2462   13.5253 N.2       1 RES1    0.0000
     52 N2         8.0671    2.9094   12.0124 N.2       1 RES1    0.0000
     53 O1        11.2073    1.5913   11.0232 O.3       1 RES1    0.0000
     54 O2         6.1196    2.0297   14.9549 O.3       1 RES1    0.0000
     55 H24        5.5560    2.3793   15.4383 H         1 RES1    0.0000
     56 O3         3.5054    5.5887   12.2187 O.2       1 RES1    0.0000
     57 O4         9.2299    1.1483   12.6157 O.3       1 RES1    0.0000
     58 C28       16.2466    1.8392    8.2281 Du        2 SUP2    0.0000
     59 C29       16.8694    0.4807    8.2180 Du        2 SUP2    0.0000
     60 H25       17.7259    0.5247    7.7877 Du        2 SUP2    0.0000
     61 H26       16.3012   -0.1276    7.7401 Du        2 SUP2    0.0000
     62 H27       16.9795    0.1734    9.1203 Du        2 SUP2    0.0000
     63 C30       17.0740    2.8483    8.9586 Du        2 SUP2    0.0000
     64 H28       17.1231    3.6596    8.4403 Du        2 SUP2    0.0000
     65 H29       17.9591    2.5050    9.0929 Du        2 SUP2    0.0000
     66 H30       16.6716    3.0406    9.8090 Du        2 SUP2    0.0000
     67 C31       16.0837    2.2463    6.7655 Du        2 SUP2    0.0000
     68 H31       15.6100    3.0846    6.7179 Du        2 SUP2    0.0000
     69 H32       15.5898    1.5751    6.2963 Du        2 SUP2    0.0000
     70 H33       16.9503    2.3505    6.3627 Du        2 SUP2    0.0000
@<TRIPOS>BOND
     1    1    2 1
     2    3    1 ar
     3    4    3 1
     4    5    3 ar
     5    6    5 ar
     6    7   50 1
     7    8    9 1
     8    9   10 1
     9   11    9 1
    10   12   13 ar
    11   13   14 1
    12   15   13 ar
    13   16   15 1
    14   17   15 ar
    15   18   17 1
    16   19   18 1
    17   20   19 1
    18   21   19 1
    19   22   19 1
    20   23   18 1
    21   24   23 1
    22   25   23 1
    23   26   23 1
    24   27   18 1
    25   28   27 1
    26   29   27 1
    27   30   27 1
    28   31   17 ar
    29   32   31 1
    30   33    1 ar
    31   34   33 1
    32   35    6 ar
    33   36   35 1
    34   37    5 1
    35   38   37 1
    36   39   38 ar
    37   40   39 1
    38   41   39 ar
    39   42   41 1
    40   43   41 ar
    41   44   43 1
    42   45   43 ar
    43   46   45 1
    44   47   38 ar
    45   48   12 ar
    46   49   48 1
    47   50    6 1
    48   51    7 2
    49   52    7 1
    50   53    9 1
    51   54   50 1
    52   55   54 1
    53   56   37 2
    54   57    8 1
    55    8   52 2
    56   12   53 1
    57   31   48 ar
    58   33   35 ar
    59   45   47 ar
    60   47   50 1
    61   51   57 1
@<TRIPOS>SUBSTRUCTURE
     1 RES1 1
     2 SUP2 58

@<TRIPOS>CRYSIN
  17.5478    8.9851   15.2261  90.0000 108.5180  90.0000  14 1

