# MOL2 file generated by ConQuest
# Please check atom types

@<TRIPOS>MOLECULE
MOTJOU
    23    23     1
SMALL
NO_CHARGES
****
Generated from CSD

@<TRIPOS>ATOM
      1 C1         0.3672    0.8202    6.5025 C.ar      1 RES1    0.0000
      2 C2        -0.6113    0.1995    7.2254 C.ar      1 RES1    0.0000
      3 H1        -0.3450   -0.3602    7.8893 H         1 RES1    0.0000
      4 C3        -1.9375    0.3529    6.8776 C.ar      1 RES1    0.0000
      5 H2        -2.6240   -0.0554    7.4138 H         1 RES1    0.0000
      6 C4        -2.2703    1.1334    5.7946 C.ar      1 RES1    0.0000
      7 C5        -1.2747    1.7310    5.0567 C.ar      1 RES1    0.0000
      8 H3        -1.5460    2.2631    4.2880 H         1 RES1    0.0000
      9 C6         0.0366    1.5841    5.4028 C.ar      1 RES1    0.0000
     10 H4         0.7691    2.0137    4.8868 H         1 RES1    0.0000
     11 N1         1.7483    0.6224    6.8316 N.3       1 RES1    0.0000
     12 N2         2.3080    1.3929    7.7748 N.pl3     1 RES1    0.0000
     13 O1         1.6242    2.2683    8.2970 O.2       1 RES1    0.0000
     14 O2         3.4803    1.1688    8.0630 O.2       1 RES1    0.0000
     15 C7         2.5452   -0.4147    6.2348 C.3       1 RES1    0.0000
     16 H5         2.9367   -0.9329    6.9031 H         1 RES1    0.0000
     17 H6         1.9611   -0.9884    5.7145 H         1 RES1    0.0000
     18 H7         3.2357    0.0462    5.7233 H         1 RES1    0.0000
     19 O3        -3.5460    1.3755    5.3718 O.3       1 RES1    0.0000
     20 C8        -4.6245    0.8674    6.1477 C.3       1 RES1    0.0000
     21 H8        -4.5661   -0.1386    6.2428 H         1 RES1    0.0000
     22 H9        -4.5442    1.1916    7.1761 H         1 RES1    0.0000
     23 H10       -5.4114    1.2839    5.7233 H         1 RES1    0.0000
@<TRIPOS>BOND
     1    1    2 ar
     2    2    3 1
     3    4    2 ar
     4    5    4 1
     5    6    4 ar
     6    7    6 ar
     7    8    7 1
     8    9    1 ar
     9   10    9 1
    10   11    1 1
    11   12   11 1
    12   13   12 2
    13   14   12 2
    14   15   11 1
    15   16   15 1
    16   17   15 1
    17   18   15 1
    18   19    6 1
    19   20   19 1
    20   21   20 1
    21   22   20 1
    22   23   20 1
    23    7    9 ar
@<TRIPOS>SUBSTRUCTURE
     1 RES1 1

@<TRIPOS>CRYSIN
  10.9180    9.2370    9.2650  90.0000 108.1300  90.0000  14 1

