# MOL2 file generated by ConQuest
# Please check atom types

@<TRIPOS>MOLECULE
MOVFIM
    48    50     1
SMALL
NO_CHARGES
****
Generated from CSD

@<TRIPOS>ATOM
      1 O1         8.4290    8.7285    2.2327 O.3       1 RES1    0.0000
      2 O2         5.4050    8.0281    4.1947 O.3       1 RES1    0.0000
      3 N1         5.5567    6.7497    4.8649 N.3       1 RES1    0.0000
      4 C1         7.3136    9.1147    1.3752 C.3       1 RES1    0.0000
      5 H1         7.2116    8.4527    0.6611 H         1 RES1    0.0000
      6 O3         7.1499    3.6723    4.5360 O.3       1 RES1    0.0000
      7 O4         8.9042   10.2684    0.0118 O.3       1 RES1    0.0000
      8 O5         9.2129    7.3013    3.6662 O.2       1 RES1    0.0000
      9 C2         8.2908    7.6395    2.9815 C.2       1 RES1    0.0000
     10 C3         5.7580    7.8242    2.8275 C.3       1 RES1    0.0000
     11 H2         5.0279    7.3757    2.3525 H         1 RES1    0.0000
     12 C4         6.6855    6.0445    4.1749 C.3       1 RES1    0.0000
     13 H3         7.4720    6.0565    4.7595 H         1 RES1    0.0000
     14 C5         6.2278    4.6029    3.9887 C.3       1 RES1    0.0000
     15 H4         6.0627    4.4110    3.0420 H         1 RES1    0.0000
     16 C6         7.6881   10.4387    0.7708 C.3       1 RES1    0.0000
     17 H5         6.9768   10.7529    0.1910 H         1 RES1    0.0000
     18 H6         7.8237   11.0983    1.4704 H         1 RES1    0.0000
     19 C7         6.0453    9.1603    2.1974 C.3       1 RES1    0.0000
     20 H7         6.1352    9.8319    2.8922 H         1 RES1    0.0000
     21 H8         5.3017    9.4145    1.6288 H         1 RES1    0.0000
     22 C8         6.9862    6.9008    2.9109 C.3       1 RES1    0.0000
     23 H9         6.9955    6.3131    2.1257 H         1 RES1    0.0000
     24 C9         4.9192    4.5334    4.7927 C.3       1 RES1    0.0000
     25 H10        4.3179    3.8641    4.4316 H         1 RES1    0.0000
     26 H11        5.0923    4.3343    5.7277 H         1 RES1    0.0000
     27 C10        7.9391    2.8711    3.6480 C.3       1 RES1    0.0000
     28 C11        8.7619    3.7298    2.7226 C.3       1 RES1    0.0000
     29 H12        8.2116    4.0392    1.9995 H         1 RES1    0.0000
     30 H13        9.4920    3.2141    2.3717 H         1 RES1    0.0000
     31 H14        9.1068    4.4854    3.2073 H         1 RES1    0.0000
     32 C12        9.2129   11.1727   -0.8558 C.2       1 RES1    0.0000
     33 O6         8.5552   12.1081   -1.0912 O.2       1 RES1    0.0000
     34 C13        4.3501    5.9293    4.6274 C.3       1 RES1    0.0000
     35 H15        3.9944    6.0661    3.7352 H         1 RES1    0.0000
     36 H16        3.6588    6.1140    5.2821 H         1 RES1    0.0000
     37 C14       10.5108   10.8537   -1.5352 C.3       1 RES1    0.0000
     38 H17       10.4141   10.9688   -2.4814 H         1 RES1    0.0000
     39 H18       10.7550    9.9446   -1.3431 H         1 RES1    0.0000
     40 H19       11.1939   11.4437   -1.2073 H         1 RES1    0.0000
     41 C15        7.0398    1.9357    2.8564 C.3       1 RES1    0.0000
     42 H20        6.1392    2.0076    3.1821 H         1 RES1    0.0000
     43 H21        7.3472    1.0314    2.9617 H         1 RES1    0.0000
     44 H22        7.0653    2.1779    1.9288 H         1 RES1    0.0000
     45 C16        8.8397    2.0748    4.5520 C.3       1 RES1    0.0000
     46 H23        9.3699    2.6744    5.0826 H         1 RES1    0.0000
     47 H24        9.4169    1.5207    4.0203 H         1 RES1    0.0000
     48 H25        8.3069    1.5207    5.1270 H         1 RES1    0.0000
@<TRIPOS>BOND
     1    1    4 1
     2    2    3 1
     3    3   12 1
     4    4    5 1
     5    6   14 1
     6    7   16 1
     7    8    9 2
     8    9    1 1
     9   10    2 1
    10   11   10 1
    11   12   13 1
    12   14   12 1
    13   15   14 1
    14   16    4 1
    15   17   16 1
    16   18   16 1
    17   19    4 1
    18   20   19 1
    19   21   19 1
    20   22    9 1
    21   23   22 1
    22   24   14 1
    23   25   24 1
    24   26   24 1
    25   27    6 1
    26   28   27 1
    27   29   28 1
    28   30   28 1
    29   31   28 1
    30   32    7 1
    31   33   32 2
    32   34    3 1
    33   35   34 1
    34   36   34 1
    35   37   32 1
    36   38   37 1
    37   39   37 1
    38   40   37 1
    39   41   27 1
    40   42   41 1
    41   43   41 1
    42   44   41 1
    43   45   27 1
    44   46   45 1
    45   47   45 1
    46   48   45 1
    47   10   19 1
    48   10   22 1
    49   12   22 1
    50   24   34 1
@<TRIPOS>SUBSTRUCTURE
     1 RES1 1

@<TRIPOS>CRYSIN
  13.4220   23.9860    5.3490  90.0000  90.0000  90.0000  18 1

