# MOL2 file generated by ConQuest
# Please check atom types

@<TRIPOS>MOLECULE
MOVHOV
    48    51     1
SMALL
NO_CHARGES
****
Generated from CSD

@<TRIPOS>ATOM
      1 O1         1.7236    4.1381    0.6064 O.3       1 RES1    0.0000
      2 N1         2.9775    6.2202    5.2272 N.3       1 RES1    0.0000
      3 O2         5.1721    6.7242    5.6580 O.3       1 RES1    0.0000
      4 O3         1.3021    5.8855   -0.8677 O.3       1 RES1    0.0000
      5 C1         1.7716    6.3828    0.3229 C.ar      1 RES1    0.0000
      6 C2         4.1017    5.2173    7.1903 C.ar      1 RES1    0.0000
      7 N2         5.8909    5.0658    2.8194 N.1       1 RES1    0.0000
      8 C3         1.9604    7.6906    0.6799 C.ar      1 RES1    0.0000
      9 H1         1.7660    8.4041    0.0820 H         1 RES1    0.0000
     10 C4         2.0375    5.3437    1.2008 C.ar      1 RES1    0.0000
     11 C5         5.6558    8.2649    3.9577 C.1       1 RES1    0.0000
     12 C6         4.9163    7.0185    4.2904 C.3       1 RES1    0.0000
     13 C7         2.4564    7.9268    1.9728 C.ar      1 RES1    0.0000
     14 H2         2.5848    8.8217    2.2649 H         1 RES1    0.0000
     15 C8         2.5441    5.5425    2.4570 C.ar      1 RES1    0.0000
     16 H3         2.7371    4.8174    3.0381 H         1 RES1    0.0000
     17 C9         4.4385    4.0018    6.5940 C.ar      1 RES1    0.0000
     18 H4         4.5908    3.9627    5.6583 H         1 RES1    0.0000
     19 N3         6.2585    9.2156    3.7711 N.1       1 RES1    0.0000
     20 C10        2.7644    6.8817    2.8389 C.ar      1 RES1    0.0000
     21 C11        3.8997    5.2894    8.5644 C.ar      1 RES1    0.0000
     22 H5         3.6786    6.1203    8.9698 H         1 RES1    0.0000
     23 C12        4.0203    4.1474    9.3474 C.ar      1 RES1    0.0000
     24 H6         3.8877    4.1833   10.2858 H         1 RES1    0.0000
     25 C13        3.3671    7.1780    4.1932 C.3       1 RES1    0.0000
     26 H7         3.1082    8.1002    4.4790 H         1 RES1    0.0000
     27 C14        4.3389    2.9570    8.7195 C.ar      1 RES1    0.0000
     28 N4         4.4476    1.7369    9.5329 N.pl3     1 RES1    0.0000
     29 C15        3.9109    6.4359    6.3230 C.3       1 RES1    0.0000
     30 H8         3.6225    7.2164    6.8767 H         1 RES1    0.0000
     31 C16        1.3268    4.4576   -0.7314 C.3       1 RES1    0.0000
     32 H9         0.4294    4.0834   -0.9177 H         1 RES1    0.0000
     33 H10        1.9681    4.0668   -1.3785 H         1 RES1    0.0000
     34 C17        1.5548    6.3715    5.6259 C.3       1 RES1    0.0000
     35 H11        1.0054    6.4852    4.8110 H         1 RES1    0.0000
     36 H12        1.4615    7.1942    6.1699 H         1 RES1    0.0000
     37 C18        4.5515    2.8569    7.3531 C.ar      1 RES1    0.0000
     38 H13        4.7683    2.0230    6.9509 H         1 RES1    0.0000
     39 C19        5.4446    5.9137    3.4372 C.1       1 RES1    0.0000
     40 C20        1.0118    5.1942    6.4237 C.3       1 RES1    0.0000
     41 H14        1.5597    5.0852    7.2399 H         1 RES1    0.0000
     42 H15        0.0870    5.4043    6.7088 H         1 RES1    0.0000
     43 O4         4.6139    0.6628    8.9522 O.2       1 RES1    0.0000
     44 O5         4.3319    1.8372   10.7360 O.2       1 RES1    0.0000
     45 C21        0.9991    3.8754    5.6669 C.3       1 RES1    0.0000
     46 H16        0.6385    3.1704    6.2441 H         1 RES1    0.0000
     47 H17        1.9133    3.6436    5.4006 H         1 RES1    0.0000
     48 H18        0.4385    3.9627    4.8695 H         1 RES1    0.0000
@<TRIPOS>BOND
     1    1   10 1
     2    2   25 1
     3    3   12 1
     4    4    5 1
     5    5    8 ar
     6    6   17 ar
     7    7   39 3
     8    8    9 1
     9   10    5 ar
    10   11   12 1
    11   12   25 1
    12   13    8 ar
    13   14   13 1
    14   15   10 ar
    15   16   15 1
    16   17   18 1
    17   19   11 3
    18   20   13 ar
    19   21    6 ar
    20   22   21 1
    21   23   21 ar
    22   24   23 1
    23   25   20 1
    24   26   25 1
    25   27   23 ar
    26   28   27 1
    27   29    2 1
    28   30   29 1
    29   31    1 1
    30   32   31 1
    31   33   31 1
    32   34    2 1
    33   35   34 1
    34   36   34 1
    35   37   17 ar
    36   38   37 1
    37   39   12 1
    38   40   34 1
    39   41   40 1
    40   42   40 1
    41   43   28 2
    42   44   28 2
    43   45   40 1
    44   46   45 1
    45   47   45 1
    46   48   45 1
    47    3   29 1
    48    4   31 1
    49    6   29 1
    50   15   20 ar
    51   27   37 ar
@<TRIPOS>SUBSTRUCTURE
     1 RES1 1

@<TRIPOS>CRYSIN
   7.0163   13.8750   39.0500  90.0000  90.0000  90.0000  61 1

