# MOL2 file generated by ConQuest
# Please check atom types

@<TRIPOS>MOLECULE
MOVHIP
    39    41     1
SMALL
NO_CHARGES
****
Generated from CSD

@<TRIPOS>ATOM
      1 C1         1.4226    2.6062   -0.6945 C.3       1 RES1    0.0000
      2 H1         0.9374    1.7365   -0.6010 H         1 RES1    0.0000
      3 C2         2.8788    2.5063    1.0958 C.3       1 RES1    0.0000
      4 H2         2.6661    1.5499    1.2965 H         1 RES1    0.0000
      5 C3         3.6986    2.5935   -0.2282 C.3       1 RES1    0.0000
      6 C4         0.6707    3.5236   -1.6248 C.ar      1 RES1    0.0000
      7 C5         0.9139    4.8967   -1.6079 C.ar      1 RES1    0.0000
      8 H3         1.4954    5.2679   -0.9551 H         1 RES1    0.0000
      9 C6         0.3081    5.7177   -2.5434 C.ar      1 RES1    0.0000
     10 H4         0.4693    6.6536   -2.5476 H         1 RES1    0.0000
     11 C7        -0.5414    5.1384   -3.4760 C.ar      1 RES1    0.0000
     12 C8        -0.8317    3.7870   -3.4998 C.ar      1 RES1    0.0000
     13 H5        -1.4361    3.4257   -4.1364 H         1 RES1    0.0000
     14 C9        -0.2091    2.9749   -2.5594 C.ar      1 RES1    0.0000
     15 H6        -0.3836    2.0412   -2.5530 H         1 RES1    0.0000
     16 C10        0.5124    3.0677    1.5113 C.3       1 RES1    0.0000
     17 H7         0.7250    3.4655    2.3823 H         1 RES1    0.0000
     18 H8         0.2874    2.1208    1.6306 H         1 RES1    0.0000
     19 H9        -0.2512    3.5376    1.1149 H         1 RES1    0.0000
     20 C11        3.5613    3.1327    2.2863 C.ar      1 RES1    0.0000
     21 C12        3.4419    4.4892    2.5723 C.ar      1 RES1    0.0000
     22 H10        2.8831    5.0402    2.0373 H         1 RES1    0.0000
     23 C13        4.1433    5.0365    3.6432 C.ar      1 RES1    0.0000
     24 H11        4.0597    5.9620    3.8386 H         1 RES1    0.0000
     25 C14        4.9640    4.2394    4.4275 C.ar      1 RES1    0.0000
     26 H12        5.4366    4.6186    5.1587 H         1 RES1    0.0000
     27 C15        5.0937    2.8918    4.1442 C.ar      1 RES1    0.0000
     28 H13        5.6640    2.3485    4.6757 H         1 RES1    0.0000
     29 C16        4.3893    2.3319    3.0820 C.ar      1 RES1    0.0000
     30 H14        4.4705    1.4044    2.8962 H         1 RES1    0.0000
     31 C17        4.3366    3.9349   -0.3984 C.1       1 RES1    0.0000
     32 C18        4.7455    1.5419   -0.2902 C.1       1 RES1    0.0000
     33 N1         1.6755    3.1867    0.6206 N.3       1 RES1    0.0000
     34 N2        -1.1271    5.9999   -4.5183 N.pl3     1 RES1    0.0000
     35 N3         4.8024    4.9715   -0.5444 N.1       1 RES1    0.0000
     36 N4         5.5374    0.7161   -0.3089 N.1       1 RES1    0.0000
     37 O1         2.7566    2.3816   -1.2580 O.3       1 RES1    0.0000
     38 O2        -0.7663    7.1724   -4.5675 O.2       1 RES1    0.0000
     39 O3        -1.9493    5.5089   -5.2906 O.2       1 RES1    0.0000
@<TRIPOS>BOND
     1    1    2 1
     2    3    4 1
     3    5    3 1
     4    6    1 1
     5    7    6 ar
     6    8    7 1
     7    9    7 ar
     8   10    9 1
     9   11    9 ar
    10   12   11 ar
    11   13   12 1
    12   14    6 ar
    13   15   14 1
    14   16   17 1
    15   18   16 1
    16   19   16 1
    17   20    3 1
    18   21   20 ar
    19   22   21 1
    20   23   21 ar
    21   24   23 1
    22   25   23 ar
    23   26   25 1
    24   27   25 ar
    25   28   27 1
    26   29   20 ar
    27   30   29 1
    28   31    5 1
    29   32    5 1
    30   33    1 1
    31   34   11 1
    32   35   31 3
    33   36   32 3
    34   37    1 1
    35   38   34 2
    36   39   34 2
    37    3   33 1
    38    5   37 1
    39   12   14 ar
    40   16   33 1
    41   27   29 ar
@<TRIPOS>SUBSTRUCTURE
     1 RES1 1

@<TRIPOS>CRYSIN
   7.2945   12.4389   18.2616  90.0000  96.1020  90.0000 231 1

