# MOL2 file generated by ConQuest
# Please check atom types

@<TRIPOS>MOLECULE
MOVJAK
    56    60     2
SMALL
USER_CHARGES
****
Generated from CSD

@<TRIPOS>ATOM
      1 C1         1.2151    3.2163   -0.8649 C.2       1 RES1    0.0000
      2 C2         3.5578    2.4491   -0.0774 C.ar      1 RES1    0.0000
      3 H1         3.9034    3.2967    0.0840 H         1 RES1    0.0000
      4 C3         4.3427    1.3154    0.1275 C.ar      1 RES1    0.0000
      5 C4         3.7730    0.0499   -0.1142 C.ar      1 RES1    0.0000
      6 H2         4.2979   -0.7053    0.0258 H         1 RES1    0.0000
      7 C5         2.4781   -0.1214   -0.5481 C.ar      1 RES1    0.0000
      8 H3         2.1191   -0.9658   -0.6962 H         1 RES1    0.0000
      9 C6         1.7475    1.0221   -0.7515 C.ar      1 RES1    0.0000
     10 C7         2.2504    2.2943   -0.5253 C.ar      1 RES1    0.0000
     11 C8         5.7459    1.4290    0.5990 C.ar      1 RES1    0.0000
     12 C9         6.1523    2.4785    1.4197 C.ar      1 RES1    0.0000
     13 H4         5.5358    3.1296    1.6665 H         1 RES1    0.0000
     14 C10        7.4516    2.5697    1.8728 C.ar      1 RES1    0.0000
     15 H5         7.6964    3.2758    2.4260 H         1 RES1    0.0000
     16 C11        8.3911    1.6259    1.5132 C.ar      1 RES1    0.0000
     17 H6         9.2643    1.6883    1.8234 H         1 RES1    0.0000
     18 C12        8.0136    0.5870    0.6859 C.ar      1 RES1    0.0000
     19 H7         8.6404   -0.0504    0.4295 H         1 RES1    0.0000
     20 C13        6.7116    0.4884    0.2372 C.ar      1 RES1    0.0000
     21 H8         6.4721   -0.2187   -0.3175 H         1 RES1    0.0000
     22 C14        1.1738    4.6914   -0.8288 C.3       1 RES1    0.0000
     23 H9         1.5429    5.0416   -1.6422 H         1 RES1    0.0000
     24 H10        1.6879    5.0072   -0.0810 H         1 RES1    0.0000
     25 H11        0.2638    4.9838   -0.7382 H         1 RES1    0.0000
     26 N1         0.1734    2.5305   -1.2760 N.pl3     1 RES1    1.0000
     27 O1         0.4570    1.0840   -1.2009 O.3       1 RES1    0.0000
     28 O2        -0.9429    2.8347   -1.7129 O.2       1 RES1   -1.0000
     29 C15       10.9815    5.9963    1.5921 C.2       2 RES2    0.0000
     30 C16        8.5764    6.7879    1.1264 C.ar      2 RES2    0.0000
     31 H12        8.2164    5.9472    0.9570 H         2 RES2    0.0000
     32 C17        7.7745    7.9162    1.0793 C.ar      2 RES2    0.0000
     33 C18        8.3683    9.1679    1.3246 C.ar      2 RES2    0.0000
     34 H13        7.8323    9.9271    1.2812 H         2 RES2    0.0000
     35 C19        9.7028    9.3267    1.6245 C.ar      2 RES2    0.0000
     36 H14       10.0761   10.1642    1.7821 H         2 RES2    0.0000
     37 C20       10.4518    8.1763    1.6790 C.ar      2 RES2    0.0000
     38 C21        9.9253    6.9256    1.4307 C.ar      2 RES2    0.0000
     39 C22        6.3296    7.8061    0.7655 C.ar      2 RES2    0.0000
     40 C23        5.8418    6.7578   -0.0118 C.ar      2 RES2    0.0000
     41 H15        6.4304    6.1093   -0.3271 H         2 RES2    0.0000
     42 C24        4.5019    6.6667   -0.3190 C.ar      2 RES2    0.0000
     43 H16        4.1968    5.9607   -0.8421 H         2 RES2    0.0000
     44 C25        3.6107    7.6122    0.1407 C.ar      2 RES2    0.0000
     45 H17        2.7086    7.5519   -0.0751 H         2 RES2    0.0000
     46 C26        4.0716    8.6450    0.9202 C.ar      2 RES2    0.0000
     47 H18        3.4755    9.2857    1.2370 H         2 RES2    0.0000
     48 C27        5.4078    8.7401    1.2377 C.ar      2 RES2    0.0000
     49 H19        5.7011    9.4393    1.7762 H         2 RES2    0.0000
     50 C28       11.0144    4.5206    1.4779 C.3       2 RES2    0.0000
     51 H20       11.6392    4.2662    0.7949 H         2 RES2    0.0000
     52 H21       10.1394    4.1974    1.2480 H         2 RES2    0.0000
     53 H22       11.2859    4.1409    2.3170 H         2 RES2    0.0000
     54 N2        12.0662    6.6566    1.9088 N.pl3     2 RES2    1.0000
     55 O3        11.7859    8.0860    1.9722 O.3       2 RES2    0.0000
     56 O4        13.2482    6.3256    2.1475 O.2       2 RES2   -1.0000
@<TRIPOS>BOND
     1    1   10 1
     2    2    3 1
     3    4    2 ar
     4    5    4 ar
     5    6    5 1
     6    7    5 ar
     7    8    7 1
     8    9    7 ar
     9   10    2 ar
    10   11    4 1
    11   12   11 ar
    12   13   12 1
    13   14   12 ar
    14   15   14 1
    15   16   14 ar
    16   17   16 1
    17   18   16 ar
    18   19   18 1
    19   20   11 ar
    20   21   20 1
    21   22    1 1
    22   23   22 1
    23   24   22 1
    24   25   22 1
    25   26    1 2
    26   27    9 1
    27   28   26 1
    28   29   38 1
    29   30   31 1
    30   32   30 ar
    31   33   32 ar
    32   34   33 1
    33   35   33 ar
    34   36   35 1
    35   37   35 ar
    36   38   30 ar
    37   39   32 1
    38   40   39 ar
    39   41   40 1
    40   42   40 ar
    41   43   42 1
    42   44   42 ar
    43   45   44 1
    44   46   44 ar
    45   47   46 1
    46   48   39 ar
    47   49   48 1
    48   50   29 1
    49   51   50 1
    50   52   50 1
    51   53   50 1
    52   54   29 2
    53   55   37 1
    54   56   54 1
    55    9   10 ar
    56   18   20 ar
    57   26   27 1
    58   37   38 ar
    59   46   48 ar
    60   54   55 1
@<TRIPOS>SUBSTRUCTURE
     1 RES1 1
     2 RES2 29

@<TRIPOS>CRYSIN
  24.7186   12.2875    7.3697  90.0000  91.4830  90.0000  14 1

