# MOL2 file generated by ConQuest
# Please check atom types

@<TRIPOS>MOLECULE
MOVQOE
   103   108     1
SMALL
NO_CHARGES
****
Generated from CSD

@<TRIPOS>ATOM
      1 N1         5.3944    4.8866    7.0274 N.3       1 RES1    0.0000
      2 O1         1.5187   -0.9941   -1.5393 O.2       1 RES1    0.0000
      3 C1         1.6391    3.5086    5.6847 C.ar      1 RES1    0.0000
      4 O2         1.6516    0.9290   -2.5143 O.2       1 RES1    0.0000
      5 C2         1.4902    2.9805    4.3796 C.ar      1 RES1    0.0000
      6 N2         1.6924    0.2210   -1.5184 N.pl3     1 RES1    0.0000
      7 C3         0.2144    2.8104    3.8707 C.ar      1 RES1    0.0000
      8 H1         0.1094    2.4471    2.9998 H         1 RES1    0.0000
      9 C4        -0.9202    3.1574    4.6001 C.ar      1 RES1    0.0000
     10 H2        -1.7871    3.0276    4.2345 H         1 RES1    0.0000
     11 C5        -0.7678    3.6913    5.8582 C.ar      1 RES1    0.0000
     12 H3        -1.5360    3.9459    6.3560 H         1 RES1    0.0000
     13 C6         0.4931    3.8620    6.4072 C.ar      1 RES1    0.0000
     14 H4         0.5804    4.2220    7.2817 H         1 RES1    0.0000
     15 C7         2.7353    2.6352    3.5835 C.3       1 RES1    0.0000
     16 H5         3.2654    3.4613    3.4536 H         1 RES1    0.0000
     17 H6         3.2850    2.0075    4.1162 H         1 RES1    0.0000
     18 O3        -2.5070    8.5030    6.0202 O.2       1 RES1    0.0000
     19 C8         5.0055    7.8908    4.1262 C.ar      1 RES1    0.0000
     20 O4        -1.8303   10.4178    5.3298 O.2       1 RES1    0.0000
     21 C9         4.1365    7.6458    3.0398 C.ar      1 RES1    0.0000
     22 N3        -1.6995    9.2142    5.4372 N.pl3     1 RES1    0.0000
     23 C10        4.3324    8.3376    1.8560 C.ar      1 RES1    0.0000
     24 H7         3.7637    8.1593    1.1178 H         1 RES1    0.0000
     25 C11        5.3321    9.2792    1.7194 C.ar      1 RES1    0.0000
     26 H8         5.4455    9.7439    0.8992 H         1 RES1    0.0000
     27 C12        6.1637    9.5373    2.7881 C.ar      1 RES1    0.0000
     28 H9         6.8450   10.1937    2.7047 H         1 RES1    0.0000
     29 C13        6.0153    8.8459    3.9876 C.ar      1 RES1    0.0000
     30 H10        6.6031    9.0240    4.7134 H         1 RES1    0.0000
     31 C14        2.9490    6.7309    3.1623 C.3       1 RES1    0.0000
     32 H11        3.2011    5.9526    3.7195 H         1 RES1    0.0000
     33 H12        2.7104    6.3926    2.2620 H         1 RES1    0.0000
     34 O5        11.9612    6.4267    0.8494 O.2       1 RES1    0.0000
     35 C15        6.2840    2.3989    3.6734 C.ar      1 RES1    0.0000
     36 O6        10.9290    8.3003    1.2147 O.2       1 RES1    0.0000
     37 C16        6.1199    2.7722    2.3280 C.ar      1 RES1    0.0000
     38 N4        10.9641    7.0738    1.1472 N.pl3     1 RES1    0.0000
     39 C17        6.0404    1.7743    1.3714 C.ar      1 RES1    0.0000
     40 H13        5.9366    2.0177    0.4594 H         1 RES1    0.0000
     41 C18        6.1097    0.4304    1.7052 C.ar      1 RES1    0.0000
     42 H14        6.0674   -0.2368    1.0301 H         1 RES1    0.0000
     43 C19        6.2384    0.0776    3.0246 C.ar      1 RES1    0.0000
     44 H15        6.2641   -0.8411    3.2643 H         1 RES1    0.0000
     45 C20        6.3297    1.0415    4.0055 C.ar      1 RES1    0.0000
     46 H16        6.4249    0.7809    4.9138 H         1 RES1    0.0000
     47 C21        6.0449    4.2180    1.9238 C.3       1 RES1    0.0000
     48 H17        5.4784    4.6969    2.5794 H         1 RES1    0.0000
     49 H18        5.5943    4.2738    1.0440 H         1 RES1    0.0000
     50 C22        2.4746    2.0165    2.2345 C.ar      1 RES1    0.0000
     51 C23        2.1948    0.6631    2.1323 C.ar      1 RES1    0.0000
     52 H19        2.1820    0.1294    2.9191 H         1 RES1    0.0000
     53 C24        1.9329    0.0735    0.9108 C.ar      1 RES1    0.0000
     54 H20        1.7390   -0.8548    0.8533 H         1 RES1    0.0000
     55 C25        1.9586    0.8552   -0.2198 C.ar      1 RES1    0.0000
     56 C26        2.2266    2.2005   -0.1633 C.ar      1 RES1    0.0000
     57 H21        2.2397    2.7268   -0.9535 H         1 RES1    0.0000
     58 C27        2.4784    2.7725    1.0742 C.ar      1 RES1    0.0000
     59 H22        2.6575    3.7039    1.1275 H         1 RES1    0.0000
     60 C28        1.7323    7.3999    3.7743 C.ar      1 RES1    0.0000
     61 C29        0.6802    6.6289    4.2668 C.ar      1 RES1    0.0000
     62 H23        0.7414    5.6820    4.2290 H         1 RES1    0.0000
     63 C30       -0.4452    7.2108    4.8074 C.ar      1 RES1    0.0000
     64 H24       -1.1539    6.6773    5.1477 H         1 RES1    0.0000
     65 C31       -0.5185    8.5819    4.8431 C.ar      1 RES1    0.0000
     66 C32        0.4868    9.3856    4.3490 C.ar      1 RES1    0.0000
     67 H25        0.4076   10.3321    4.3751 H         1 RES1    0.0000
     68 C33        1.6148    8.7834    3.8121 C.ar      1 RES1    0.0000
     69 H26        2.3160    9.3231    3.4661 H         1 RES1    0.0000
     70 C34        7.3749    4.9404    1.8255 C.ar      1 RES1    0.0000
     71 C35        7.3959    6.3287    1.8357 C.ar      1 RES1    0.0000
     72 H27        6.5863    6.8053    1.9795 H         1 RES1    0.0000
     73 C36        8.5706    7.0308    1.6398 C.ar      1 RES1    0.0000
     74 H28        8.5749    7.9815    1.6440 H         1 RES1    0.0000
     75 C37        9.7259    6.3260    1.4405 C.ar      1 RES1    0.0000
     76 C38        9.7558    4.9549    1.4573 C.ar      1 RES1    0.0000
     77 H29       10.5745    4.4888    1.3391 H         1 RES1    0.0000
     78 C39        8.5699    4.2562    1.6498 C.ar      1 RES1    0.0000
     79 H30        8.5767    3.3060    1.6607 H         1 RES1    0.0000
     80 C40        4.5474    4.1024    7.9415 C.3       1 RES1    0.0000
     81 H31        4.6697    4.4343    8.8658 H         1 RES1    0.0000
     82 H32        4.8302    3.1539    7.9178 H         1 RES1    0.0000
     83 N5         2.8937    3.6653    6.2346 N.3       1 RES1    0.0000
     84 C41        3.0886    4.1990    7.5637 C.3       1 RES1    0.0000
     85 H33        2.5399    3.6888    8.2115 H         1 RES1    0.0000
     86 H34        2.7977    5.1451    7.5893 H         1 RES1    0.0000
     87 H35        3.5616    3.6338    5.7672 H         1 RES1    0.0000
     88 C42        5.4704    6.2847    7.4704 C.3       1 RES1    0.0000
     89 H36        6.1373    6.3562    8.1976 H         1 RES1    0.0000
     90 H37        4.5920    6.5545    7.8385 H         1 RES1    0.0000
     91 N6         4.8200    7.2190    5.3287 N.3       1 RES1    0.0000
     92 C43        5.8498    7.2347    6.3582 C.3       1 RES1    0.0000
     93 H38        5.9462    8.1508    6.7193 H         1 RES1    0.0000
     94 H39        6.7180    6.9630    5.9676 H         1 RES1    0.0000
     95 H40        4.4214    6.4311    5.2702 H         1 RES1    0.0000
     96 C44        6.7260    4.2951    6.8911 C.3       1 RES1    0.0000
     97 H41        7.0678    4.0528    7.7884 H         1 RES1    0.0000
     98 H42        7.3420    4.9662    6.5021 H         1 RES1    0.0000
     99 N7         6.3338    3.3880    4.6524 N.3       1 RES1    0.0000
    100 C45        6.7135    3.0610    6.0110 C.3       1 RES1    0.0000
    101 H43        7.6137    2.6485    6.0108 H         1 RES1    0.0000
    102 H44        6.0752    2.4011    6.3810 H         1 RES1    0.0000
    103 H45        6.5732    4.1834    4.4085 H         1 RES1    0.0000
@<TRIPOS>BOND
     1    1   80 1
     2    2    6 2
     3    3    5 ar
     4    4    6 2
     5    5    7 ar
     6    6   55 1
     7    7    8 1
     8    9    7 ar
     9   10    9 1
    10   11    9 ar
    11   12   11 1
    12   13    3 ar
    13   14   13 1
    14   15    5 1
    15   16   15 1
    16   17   15 1
    17   18   22 2
    18   19   21 ar
    19   20   22 2
    20   21   23 ar
    21   22   65 1
    22   23   24 1
    23   25   23 ar
    24   26   25 1
    25   27   25 ar
    26   28   27 1
    27   29   19 ar
    28   30   29 1
    29   31   21 1
    30   32   31 1
    31   33   31 1
    32   34   38 2
    33   35   37 ar
    34   36   38 2
    35   37   39 ar
    36   38   75 1
    37   39   40 1
    38   41   39 ar
    39   42   41 1
    40   43   41 ar
    41   44   43 1
    42   45   35 ar
    43   46   45 1
    44   47   37 1
    45   48   47 1
    46   49   47 1
    47   50   15 1
    48   51   50 ar
    49   52   51 1
    50   53   51 ar
    51   54   53 1
    52   55   53 ar
    53   56   55 ar
    54   57   56 1
    55   58   50 ar
    56   59   58 1
    57   60   31 1
    58   61   60 ar
    59   62   61 1
    60   63   61 ar
    61   64   63 1
    62   65   63 ar
    63   66   65 ar
    64   67   66 1
    65   68   60 ar
    66   69   68 1
    67   70   47 1
    68   71   70 ar
    69   72   71 1
    70   73   71 ar
    71   74   73 1
    72   75   73 ar
    73   76   75 ar
    74   77   76 1
    75   78   70 ar
    76   79   78 1
    77   80   81 1
    78   82   80 1
    79   83    3 1
    80   84   80 1
    81   85   84 1
    82   86   84 1
    83   87   83 1
    84   88    1 1
    85   89   88 1
    86   90   88 1
    87   91   19 1
    88   92   88 1
    89   93   92 1
    90   94   92 1
    91   95   91 1
    92   96    1 1
    93   97   96 1
    94   98   96 1
    95   99   35 1
    96  100   96 1
    97  101  100 1
    98  102  100 1
    99  103   99 1
   100   11   13 ar
   101   27   29 ar
   102   43   45 ar
   103   56   58 ar
   104   66   68 ar
   105   76   78 ar
   106   83   84 1
   107   91   92 1
   108   99  100 1
@<TRIPOS>SUBSTRUCTURE
     1 RES1 1

@<TRIPOS>CRYSIN
  11.3050   13.3672   15.3131  69.9330  70.8670  72.7080   2 1

