# MOL2 file generated by ConQuest
# Please check atom types

@<TRIPOS>MOLECULE
MOVTUN
    51    34     3
SMALL
NO_CHARGES
****
Generated from CSD

@<TRIPOS>ATOM
      1 O1         5.7032    3.8988    0.1173 O.2       1 RES1    0.0000
      2 O2         5.3389    5.4121   -1.3729 O.2       1 RES1    0.0000
      3 N1         5.2458    4.2652   -0.9611 N.pl3     1 RES1    0.0000
      4 C1         4.5550    3.2763   -1.8044 C.ar      1 RES1    0.0000
      5 C2         3.8565    2.2209   -1.2413 C.ar      1 RES1    0.0000
      6 C3         3.2121    1.3585   -2.1414 C.ar      1 RES1    0.0000
      7 H1         2.6974    0.6345   -1.8044 H         1 RES1    0.0000
      8 C4         3.3106    1.5427   -3.5155 C.ar      1 RES1    0.0000
      9 H2         2.8706    0.9409   -4.1033 H         1 RES1    0.0000
     10 C5         4.0408    2.5894   -4.0275 C.ar      1 RES1    0.0000
     11 H3         4.1133    2.7006   -4.9683 H         1 RES1    0.0000
     12 C6         4.6665    3.4769   -3.1800 C.ar      1 RES1    0.0000
     13 H4         5.1631    4.2096   -3.5242 H         1 RES1    0.0000
     14 C7         3.6835    1.9778    0.2436 C.3       1 RES1    0.0000
     15 H5         3.4949    2.8271    0.6929 H         1 RES1    0.0000
     16 H6         4.5066    1.5896    0.6083 H         1 RES1    0.0000
     17 H7         2.9388    1.3585    0.3880 H         1 RES1    0.0000
     18 O3        -1.3702    0.9169   -0.0408 O.2       2 RES2    0.0000
     19 O4         0.0828    1.9756    1.1480 O.2       2 RES2    0.0000
     20 N2        -0.4898    1.7466    0.0700 N.pl3     2 RES2    0.0000
     21 C8        -0.0482    2.5316   -1.1013 C.ar      2 RES2    0.0000
     22 C9        -0.3462    2.1293   -2.3996 C.ar      2 RES2    0.0000
     23 C10        0.1522    2.9350   -3.4133 C.ar      2 RES2    0.0000
     24 H8        -0.0261    2.6963   -4.3148 H         2 RES2    0.0000
     25 C11        0.8867    4.0558   -3.1654 C.ar      2 RES2    0.0000
     26 H9         1.2238    4.5672   -3.8903 H         2 RES2    0.0000
     27 C12        1.1482    4.4592   -1.8540 C.ar      2 RES2    0.0000
     28 H10        1.6404    5.2530   -1.6819 H         2 RES2    0.0000
     29 C13        0.6839    3.6884   -0.8242 C.ar      2 RES2    0.0000
     30 H11        0.8597    3.9392    0.0744 H         2 RES2    0.0000
     31 C14       -1.1189    0.8886   -2.7613 C.3       2 RES2    0.0000
     32 H12       -1.0755    0.7468   -3.7299 H         2 RES2    0.0000
     33 H13       -2.0548    0.9954   -2.4885 H         2 RES2    0.0000
     34 H14       -0.7309    0.1156   -2.3004 H         2 RES2    0.0000
     35 C15       -0.3028    2.0890   -1.2224 Du        3 SUP3    0.0000
     36 C16        0.2484    3.3210   -1.5725 Du        3 SUP3    0.0000
     37 C17        0.3491    3.6513   -2.9247 Du        3 SUP3    0.0000
     38 C18       -0.0896    2.7726   -3.8947 Du        3 SUP3    0.0000
     39 C19       -0.6370    1.5482   -3.5373 Du        3 SUP3    0.0000
     40 C20       -0.7398    1.2135   -2.1953 Du        3 SUP3    0.0000
     41 C21        0.7306    4.2892   -0.4989 Du        3 SUP3    0.0000
     42 H15        0.7224    4.4865   -3.1785 Du        3 SUP3    0.0000
     43 H16       -0.0154    3.0081   -4.8122 Du        3 SUP3    0.0000
     44 H17       -0.9378    0.9453   -4.2069 Du        3 SUP3    0.0000
     45 H18       -1.1139    0.3761   -1.9444 Du        3 SUP3    0.0000
     46 H19        0.7968    5.1908   -0.8781 Du        3 SUP3    0.0000
     47 H20        1.6129    4.0057   -0.1765 Du        3 SUP3    0.0000
     48 H21        0.0970    4.2935    0.2465 Du        3 SUP3    0.0000
     49 N3        -0.4210    1.7161    0.1911 Du        3 SUP3    0.0000
     50 O5        -1.2013    0.8155    0.4960 Du        3 SUP3    0.0000
     51 O6         0.2648    2.3168    1.0167 Du        3 SUP3    0.0000
@<TRIPOS>BOND
     1    1    3 2
     2    2    3 2
     3    3    4 1
     4    4    5 ar
     5    5    6 ar
     6    6    7 1
     7    8    6 ar
     8    9    8 1
     9   10    8 ar
    10   11   10 1
    11   12    4 ar
    12   13   12 1
    13   14    5 1
    14   15   14 1
    15   16   14 1
    16   17   14 1
    17   18   20 2
    18   19   20 2
    19   20   21 1
    20   21   22 ar
    21   22   23 ar
    22   23   24 1
    23   25   23 ar
    24   26   25 1
    25   27   25 ar
    26   28   27 1
    27   29   21 ar
    28   30   29 1
    29   31   22 1
    30   32   31 1
    31   33   31 1
    32   34   31 1
    33   10   12 ar
    34   27   29 ar
@<TRIPOS>SUBSTRUCTURE
     1 RES1 1
     2 RES2 18
     3 SUP3 35

@<TRIPOS>CRYSIN
   8.4053   10.9028   15.1685  90.0000 105.9170  90.0000 231 1

