# MOL2 file generated by ConQuest
# Please check atom types

@<TRIPOS>MOLECULE
MOVVAV01
    34    34     2
SMALL
NO_CHARGES
****
Generated from CSD

@<TRIPOS>ATOM
      1 O1        -0.6115    5.3192   10.0561 O.2       1 RES1    0.0000
      2 O2        -0.4509    5.8896    8.0047 O.2       1 RES1    0.0000
      3 N1        -0.2922    5.0904    8.9025 N.pl3     1 RES1    0.0000
      4 C1         0.2805    3.7721    8.5747 C.ar      1 RES1    0.0000
      5 C2         0.4703    2.8522    9.5901 C.ar      1 RES1    0.0000
      6 H1         0.2510    3.0749   10.4867 H         1 RES1    0.0000
      7 C3         0.9829    1.6068    9.2851 C.ar      1 RES1    0.0000
      8 C4         1.2992    1.2993    7.9590 C.ar      1 RES1    0.0000
      9 H2         1.6536    0.4460    7.7397 H         1 RES1    0.0000
     10 C5         1.0915    2.2541    6.9538 C.ar      1 RES1    0.0000
     11 H3         1.2964    2.0377    6.0515 H         1 RES1    0.0000
     12 C6         0.5983    3.4949    7.2554 C.ar      1 RES1    0.0000
     13 H4         0.4772    4.1490    6.5769 H         1 RES1    0.0000
     14 C7         1.1862    0.5727   10.3668 C.3       1 RES1    0.0000
     15 H5         1.4275    1.0194   11.2052 H         1 RES1    0.0000
     16 H6         1.9052   -0.0390   10.1041 H         1 RES1    0.0000
     17 H7         0.3569    0.0652   10.4936 H         1 RES1    0.0000
     18 O3         3.4743    5.4111    7.2839 O.2       2 RES2    0.0000
     19 O4         3.0933    5.5872    9.3902 O.2       2 RES2    0.0000
     20 N2         3.5039    4.9599    8.4113 N.pl3     2 RES2    0.0000
     21 C8         4.0333    3.6099    8.6226 C.ar      2 RES2    0.0000
     22 C9         4.3776    2.8477    7.5181 C.ar      2 RES2    0.0000
     23 H8         4.3051    3.2116    6.6443 H         2 RES2    0.0000
     24 C10        4.8265    1.5544    7.6986 C.ar      2 RES2    0.0000
     25 C11        4.9143    1.0526    8.9916 C.ar      2 RES2    0.0000
     26 H9         5.2043    0.1576    9.1241 H         2 RES2    0.0000
     27 C12        4.5904    1.8282   10.0847 C.ar      2 RES2    0.0000
     28 H10        4.6827    1.4721   10.9608 H         2 RES2    0.0000
     29 C13        4.1293    3.1253    9.9111 C.ar      2 RES2    0.0000
     30 H11        3.8873    3.6634   10.6558 H         2 RES2    0.0000
     31 C14        5.1754    0.6603    6.5175 C.3       2 RES2    0.0000
     32 H12        5.4683    1.2145    5.7636 H         2 RES2    0.0000
     33 H13        4.3858    0.1422    6.2548 H         2 RES2    0.0000
     34 H14        5.8978    0.0484    6.7722 H         2 RES2    0.0000
@<TRIPOS>BOND
     1    1    3 2
     2    2    3 2
     3    3    4 1
     4    4    5 ar
     5    5    6 1
     6    7    5 ar
     7    8    7 ar
     8    9    8 1
     9   10    8 ar
    10   11   10 1
    11   12    4 ar
    12   13   12 1
    13   14    7 1
    14   15   14 1
    15   16   14 1
    16   17   14 1
    17   18   20 2
    18   19   20 2
    19   20   21 1
    20   21   22 ar
    21   22   23 1
    22   24   22 ar
    23   25   24 ar
    24   26   25 1
    25   27   25 ar
    26   28   27 1
    27   29   21 ar
    28   30   29 1
    29   31   24 1
    30   32   31 1
    31   33   31 1
    32   34   31 1
    33   10   12 ar
    34   27   29 ar
@<TRIPOS>SUBSTRUCTURE
     1 RES1 1
     2 RES2 18

@<TRIPOS>CRYSIN
   7.3700    7.7950   11.4420  91.0340  93.1990  90.4520   2 1

