# MOL2 file generated by ConQuest
# Please check atom types

@<TRIPOS>MOLECULE
MOVYUT
    98   104     1
SMALL
NO_CHARGES
****
Generated from CSD

@<TRIPOS>ATOM
      1 C1         0.0598    4.1369    5.1732 C.2       1 RES1    0.0000
      2 C2         0.4846    5.2739    4.5603 C.2       1 RES1    0.0000
      3 H1         0.6025    6.1036    4.9619 H         1 RES1    0.0000
      4 C3         0.7149    4.9651    3.2011 C.2       1 RES1    0.0000
      5 H2         1.0157    5.5614    2.5526 H         1 RES1    0.0000
      6 C4         0.4235    3.6536    2.9963 C.2       1 RES1    0.0000
      7 C5         0.4038    2.7952    1.7546 C.3       1 RES1    0.0000
      8 C6        -1.0426    2.2822    1.5148 C.3       1 RES1    0.0000
      9 H3        -1.0352    1.6800    0.7541 H         1 RES1    0.0000
     10 H4        -1.3219    1.7701    2.2901 H         1 RES1    0.0000
     11 C7        -2.0649    3.3666    1.2609 C.3       1 RES1    0.0000
     12 H5        -2.0388    4.0052    1.9773 H         1 RES1    0.0000
     13 H6        -2.9405    2.9756    1.2121 H         1 RES1    0.0000
     14 H7        -1.8641    3.8081    0.4320 H         1 RES1    0.0000
     15 C8         0.8915    3.6512    0.5630 C.3       1 RES1    0.0000
     16 H8         0.3501    4.4548    0.5213 H         1 RES1    0.0000
     17 H9         1.8055    3.9245    0.7373 H         1 RES1    0.0000
     18 C9         0.8441    2.9754   -0.7853 C.3       1 RES1    0.0000
     19 H10        1.2837    2.1233   -0.7317 H         1 RES1    0.0000
     20 H11        1.2890    3.5248   -1.4336 H         1 RES1    0.0000
     21 H12       -0.0712    2.8476   -1.0464 H         1 RES1    0.0000
     22 C10        1.3129    1.6050    1.9309 C.2       1 RES1    0.0000
     23 C11        1.2001    0.3167    1.5245 C.2       1 RES1    0.0000
     24 H13        0.4708   -0.0509    1.0799 H         1 RES1    0.0000
     25 C12        2.3744   -0.3691    1.8911 C.2       1 RES1    0.0000
     26 H14        2.5566   -1.2662    1.7241 H         1 RES1    0.0000
     27 C13        3.1926    0.4983    2.5284 C.2       1 RES1    0.0000
     28 C14        4.5490    0.3084    3.1678 C.3       1 RES1    0.0000
     29 C15        5.5623    1.3315    2.5947 C.3       1 RES1    0.0000
     30 H15        5.3314    2.2130    2.8952 H         1 RES1    0.0000
     31 H16        5.5371    1.3041    1.6347 H         1 RES1    0.0000
     32 H17        6.4454    1.1109    2.8971 H         1 RES1    0.0000
     33 C16        4.9880   -1.1251    2.8235 C.ar      1 RES1    0.0000
     34 C17        4.6497   -2.1803    3.6400 C.ar      1 RES1    0.0000
     35 H18        4.2048   -2.0125    4.4387 H         1 RES1    0.0000
     36 C18        4.9541   -3.4781    3.3004 C.ar      1 RES1    0.0000
     37 H19        4.6996   -4.1826    3.8522 H         1 RES1    0.0000
     38 C19        5.6306   -3.7149    2.1480 C.ar      1 RES1    0.0000
     39 C20        6.0017   -2.7008    1.3132 C.ar      1 RES1    0.0000
     40 H20        6.4651   -2.8776    0.5269 H         1 RES1    0.0000
     41 C21        5.6747   -1.4175    1.6593 C.ar      1 RES1    0.0000
     42 H21        5.9219   -0.7216    1.0948 H         1 RES1    0.0000
     43 C22        4.4796    0.4965    4.6662 C.2       1 RES1    0.0000
     44 C23        5.4604    0.8086    5.5646 C.2       1 RES1    0.0000
     45 H22        6.3458    1.0055    5.3566 H         1 RES1    0.0000
     46 C24        4.9162    0.7798    6.8429 C.2       1 RES1    0.0000
     47 H23        5.3740    0.9594    7.6318 H         1 RES1    0.0000
     48 C25        3.5966    0.4414    6.7463 C.2       1 RES1    0.0000
     49 C26        2.5698    0.1204    7.8143 C.3       1 RES1    0.0000
     50 C27        2.3262   -1.4211    7.8087 C.3       1 RES1    0.0000
     51 H24        1.6512   -1.6323    8.4734 H         1 RES1    0.0000
     52 H25        1.9741   -1.6782    6.9411 H         1 RES1    0.0000
     53 C28        3.5722   -2.2498    8.0954 C.3       1 RES1    0.0000
     54 H26        4.2672   -2.0069    7.4791 H         1 RES1    0.0000
     55 H27        3.3659   -3.1823    7.9949 H         1 RES1    0.0000
     56 H28        3.8674   -2.0837    8.9947 H         1 RES1    0.0000
     57 C29        3.1136    0.5968    9.1811 C.3       1 RES1    0.0000
     58 H29        3.9912    0.2043    9.3131 H         1 RES1    0.0000
     59 H30        3.2291    1.5591    9.1436 H         1 RES1    0.0000
     60 C30        2.2579    0.2668   10.3945 C.3       1 RES1    0.0000
     61 H31        1.3495    0.5290   10.2254 H         1 RES1    0.0000
     62 H32        2.5912    0.7402   11.1601 H         1 RES1    0.0000
     63 H33        2.2921   -0.6775   10.5624 H         1 RES1    0.0000
     64 C31        1.2473    0.8080    7.5460 C.2       1 RES1    0.0000
     65 C32       -0.0340    0.3650    7.6897 C.2       1 RES1    0.0000
     66 H34       -0.2889   -0.4897    7.9539 H         1 RES1    0.0000
     67 C33       -0.9130    1.4311    7.3657 C.2       1 RES1    0.0000
     68 H35       -1.8427    1.3986    7.3749 H         1 RES1    0.0000
     69 C34       -0.1524    2.5113    7.0384 C.2       1 RES1    0.0000
     70 C35       -0.5096    3.9080    6.5486 C.3       1 RES1    0.0000
     71 C36        0.0503    4.9827    7.5039 C.3       1 RES1    0.0000
     72 H36        1.0056    4.9005    7.5555 H         1 RES1    0.0000
     73 H37       -0.3292    4.8628    8.3784 H         1 RES1    0.0000
     74 H38       -0.1777    5.8550    7.1738 H         1 RES1    0.0000
     75 C37       -2.0477    4.0201    6.5290 C.ar      1 RES1    0.0000
     76 C38       -2.7803    3.9031    7.7016 C.ar      1 RES1    0.0000
     77 H39       -2.3259    3.7922    8.5050 H         1 RES1    0.0000
     78 C39       -4.1531    3.9468    7.7165 C.ar      1 RES1    0.0000
     79 H40       -4.6254    3.8567    8.5125 H         1 RES1    0.0000
     80 C40       -4.8070    4.1259    6.5246 C.ar      1 RES1    0.0000
     81 C41       -4.1365    4.2711    5.3439 C.ar      1 RES1    0.0000
     82 H41       -4.5998    4.3965    4.5486 H         1 RES1    0.0000
     83 C42       -2.7528    4.2301    5.3546 C.ar      1 RES1    0.0000
     84 H42       -2.2873    4.3452    4.5579 H         1 RES1    0.0000
     85 N1         0.0317    3.1546    4.2142 N.pl3     1 RES1    0.0000
     86 H43       -0.2000    2.3386    4.3568 H         1 RES1    0.0000
     87 N2         2.5351    1.7055    2.5388 N.pl3     1 RES1    0.0000
     88 H44        2.8501    2.4283    2.8822 H         1 RES1    0.0000
     89 N3         3.3405    0.2709    5.4078 N.pl3     1 RES1    0.0000
     90 H45        2.5769    0.0531    5.0792 H         1 RES1    0.0000
     91 N4         1.1596    2.1191    7.1589 N.pl3     1 RES1    0.0000
     92 H46        1.8355    2.6296    7.0118 H         1 RES1    0.0000
     93 N5         5.9616   -5.0932    1.7818 N.pl3     1 RES1    0.0000
     94 N6        -6.2678    4.0841    6.5182 N.pl3     1 RES1    0.0000
     95 O1         6.8337   -5.2806    0.9522 O.2       1 RES1    0.0000
     96 O2         5.3368   -5.9855    2.3210 O.2       1 RES1    0.0000
     97 O3        -6.8633    4.1017    7.5776 O.2       1 RES1    0.0000
     98 O4        -6.8442    3.9558    5.4383 O.2       1 RES1    0.0000
@<TRIPOS>BOND
     1    1    2 2
     2    2    3 1
     3    4    2 1
     4    5    4 1
     5    6    4 2
     6    7    6 1
     7    8    7 1
     8    9    8 1
     9   10    8 1
    10   11    8 1
    11   12   11 1
    12   13   11 1
    13   14   11 1
    14   15    7 1
    15   16   15 1
    16   17   15 1
    17   18   15 1
    18   19   18 1
    19   20   18 1
    20   21   18 1
    21   22    7 1
    22   23   22 2
    23   24   23 1
    24   25   23 1
    25   26   25 1
    26   27   25 2
    27   28   27 1
    28   29   28 1
    29   30   29 1
    30   31   29 1
    31   32   29 1
    32   33   28 1
    33   34   33 ar
    34   35   34 1
    35   36   34 ar
    36   37   36 1
    37   38   36 ar
    38   39   38 ar
    39   40   39 1
    40   41   33 ar
    41   42   41 1
    42   43   28 1
    43   44   43 2
    44   45   44 1
    45   46   44 1
    46   47   46 1
    47   48   46 2
    48   49   48 1
    49   50   49 1
    50   51   50 1
    51   52   50 1
    52   53   50 1
    53   54   53 1
    54   55   53 1
    55   56   53 1
    56   57   49 1
    57   58   57 1
    58   59   57 1
    59   60   57 1
    60   61   60 1
    61   62   60 1
    62   63   60 1
    63   64   49 1
    64   65   64 2
    65   66   65 1
    66   67   65 1
    67   68   67 1
    68   69   67 2
    69   70    1 1
    70   71   70 1
    71   72   71 1
    72   73   71 1
    73   74   71 1
    74   75   70 1
    75   76   75 ar
    76   77   76 1
    77   78   76 ar
    78   79   78 1
    79   80   78 ar
    80   81   80 ar
    81   82   81 1
    82   83   75 ar
    83   84   83 1
    84   85    1 1
    85   86   85 1
    86   87   22 1
    87   88   87 1
    88   89   43 1
    89   90   89 1
    90   91   64 1
    91   92   91 1
    92   93   38 1
    93   94   80 1
    94   95   93 2
    95   96   93 2
    96   97   94 2
    97   98   94 2
    98    6   85 1
    99   27   87 1
   100   39   41 ar
   101   48   89 1
   102   69   70 1
   103   69   91 1
   104   81   83 ar
@<TRIPOS>SUBSTRUCTURE
     1 RES1 1

@<TRIPOS>CRYSIN
  10.4592   10.4709   18.8020  97.9520  90.1000  95.9660   2 1

