# MOL2 file generated by ConQuest
# Please check atom types

@<TRIPOS>MOLECULE
MOWBUV
    39    42     1
SMALL
USER_CHARGES
****
Generated from CSD

@<TRIPOS>ATOM
      1 O1         5.7489   10.3078    2.3698 O.3       1 RES1    0.0000
      2 O2         5.2323   10.0937    6.0696 O.3       1 RES1    0.0000
      3 O3         8.3192    8.4704   -0.8758 O.2       1 RES1    0.0000
      4 O4         6.6304    7.7166    3.3322 O.2       1 RES1   -1.0000
      5 O5         4.0432   11.6525    8.6313 O.2       1 RES1    0.0000
      6 O6         1.5837    8.1634    6.9524 O.2       1 RES1   -1.0000
      7 N1         7.4649    7.8565    2.3768 N.pl3     1 RES1    1.0000
      8 N2         8.2477    8.1853    0.3676 N.3       1 RES1    0.0000
      9 N3         3.0746   10.9829    8.1326 N.3       1 RES1    0.0000
     10 N4         1.9197    9.3334    7.3224 N.pl3     1 RES1    1.0000
     11 C1         4.9609   11.1599    3.2268 C.3       1 RES1    0.0000
     12 C2         5.8718   11.5870    4.3602 C.3       1 RES1    0.0000
     13 C3         6.3344   10.4531    5.2336 C.3       1 RES1    0.0000
     14 C4         5.1292    9.7081    1.3277 C.ar      1 RES1    0.0000
     15 C5         3.8447   10.0402    0.8851 C.ar      1 RES1    0.0000
     16 C6         3.3311    9.3935   -0.2295 C.ar      1 RES1    0.0000
     17 C7         4.0442    8.4529   -0.9039 C.ar      1 RES1    0.0000
     18 C8         5.2958    8.1044   -0.4636 C.ar      1 RES1    0.0000
     19 C9         5.8491    8.7151    0.6697 C.ar      1 RES1    0.0000
     20 C10        5.3878    9.0745    6.9547 C.ar      1 RES1    0.0000
     21 C11        4.3023    8.8473    7.8141 C.ar      1 RES1    0.0000
     22 C12        4.3471    7.8062    8.7180 C.ar      1 RES1    0.0000
     23 C13        5.4533    6.9804    8.7999 C.ar      1 RES1    0.0000
     24 C14        6.5062    7.2207    7.9499 C.ar      1 RES1    0.0000
     25 C15        6.4949    8.2323    7.0390 C.ar      1 RES1    0.0000
     26 C16        7.1502    8.2803    1.1357 C.2       1 RES1    0.0000
     27 C17        3.1290    9.7037    7.7485 C.2       1 RES1    0.0000
     28 C18        1.0087   10.5077    7.1514 C.3       1 RES1    0.0000
     29 C19        1.6788   11.5214    8.1232 C.3       1 RES1    0.0000
     30 C20        8.8666    7.4020    2.5009 C.3       1 RES1    0.0000
     31 C21        9.4681    7.7767    1.1357 C.3       1 RES1    0.0000
     32 C22        8.7897    5.8246    2.6109 C.3       1 RES1    0.0000
     33 C23        9.4607    7.9297    3.7045 C.3       1 RES1    0.0000
     34 C24       10.2455    6.7564    0.3840 C.3       1 RES1    0.0000
     35 C25       10.3065    9.0177    1.2013 C.3       1 RES1    0.0000
     36 C26        1.1849   11.4089    9.5493 C.3       1 RES1    0.0000
     37 C27        1.6561   12.9699    7.6666 C.3       1 RES1    0.0000
     38 C28        1.1325   10.9108    5.6902 C.3       1 RES1    0.0000
     39 C29       -0.4041   10.1407    7.5120 C.3       1 RES1    0.0000
@<TRIPOS>BOND
     1    1   11 1
     2    2   13 1
     3    3    8 1
     4    4    7 1
     5    5    9 1
     6    6   10 1
     7    7   26 2
     8    8   26 1
     9    9   27 1
    10   10   27 2
    11   11   12 1
    12   12   13 1
    13   14    1 1
    14   15   14 ar
    15   16   15 ar
    16   17   16 ar
    17   18   17 ar
    18   19   14 ar
    19   20    2 1
    20   21   20 ar
    21   22   21 ar
    22   23   22 ar
    23   24   23 ar
    24   25   20 ar
    25   26   19 1
    26   27   21 1
    27   28   10 1
    28   29    9 1
    29   30    7 1
    30   31    8 1
    31   32   30 1
    32   33   30 1
    33   34   31 1
    34   35   31 1
    35   36   29 1
    36   37   29 1
    37   38   28 1
    38   39   28 1
    39   18   19 ar
    40   24   25 ar
    41   28   29 1
    42   30   31 1
@<TRIPOS>SUBSTRUCTURE
     1 RES1 1

@<TRIPOS>CRYSIN
  11.3900   10.9239   23.4700  90.0000  93.8670  90.0000 231 1

