# MOL2 file generated by ConQuest
# Please check atom types

@<TRIPOS>MOLECULE
MOWCAE
    44    46     1
SMALL
USER_CHARGES
****
Generated from CSD

@<TRIPOS>ATOM
      1 O1         5.2929    3.7555    8.8458 O.3       1 RES1    0.0000
      2 O2         0.8753    0.4182    3.2793 O.2       1 RES1    0.0000
      3 O3         1.7811    2.4781    3.5254 O.3       1 RES1    0.0000
      4 O4        -1.0994    1.6029    6.8868 O.3       1 RES1    0.0000
      5 O5        -1.0005   -0.0787    5.4097 O.2       1 RES1   -1.0000
      6 N1        -0.5585    1.0301    5.6963 N.pl3     1 RES1    1.0000
      7 C1         4.1815    3.6438    8.0497 C.ar      1 RES1    0.0000
      8 C2         3.4321    2.4794    8.2308 C.ar      1 RES1    0.0000
      9 H1         3.7156    1.8225    8.8558 H         1 RES1    0.0000
     10 C3         2.2789    2.2858    7.4977 C.ar      1 RES1    0.0000
     11 H2         1.7783    1.4865    7.6163 H         1 RES1    0.0000
     12 C4         1.8337    3.2449    6.5850 C.ar      1 RES1    0.0000
     13 C5         2.6091    4.3763    6.3874 C.ar      1 RES1    0.0000
     14 H3         2.3341    5.0216    5.7469 H         1 RES1    0.0000
     15 C6         3.7837    4.5879    7.1093 C.ar      1 RES1    0.0000
     16 H4         4.3056    5.3681    6.9611 H         1 RES1    0.0000
     17 C7         0.4981    3.0947    5.8962 C.3       1 RES1    0.0000
     18 H5         0.3567    3.8642    5.2744 H         1 RES1    0.0000
     19 C8         0.3368    1.8143    5.1475 C.2       1 RES1    0.0000
     20 C9         0.9988    1.4516    3.8880 C.2       1 RES1    0.0000
     21 C10        5.9384    5.0129    8.8532 C.3       1 RES1    0.0000
     22 H6         5.2894    5.7198    9.0967 H         1 RES1    0.0000
     23 H7         6.2889    5.2135    7.9502 H         1 RES1    0.0000
     24 C11        7.0712    4.9978    9.8459 C.ar      1 RES1    0.0000
     25 C12        7.1798    6.0169   10.7794 C.ar      1 RES1    0.0000
     26 H8         6.5064    6.6854   10.8307 H         1 RES1    0.0000
     27 C13        8.2665    6.0634   11.6363 C.ar      1 RES1    0.0000
     28 H9         8.3376    6.7645   12.2733 H         1 RES1    0.0000
     29 C14        9.2470    5.0937   11.5684 C.ar      1 RES1    0.0000
     30 H10        9.9982    5.1373   12.1489 H         1 RES1    0.0000
     31 C15        9.1383    4.0548   10.6526 C.ar      1 RES1    0.0000
     32 H11        9.8020    3.3770   10.6165 H         1 RES1    0.0000
     33 C16        8.0481    4.0159    9.7886 C.ar      1 RES1    0.0000
     34 H12        7.9720    3.3119    9.1550 H         1 RES1    0.0000
     35 C17       -0.6955    2.9980    6.8750 C.3       1 RES1    0.0000
     36 H13       -0.4246    3.2875    7.7817 H         1 RES1    0.0000
     37 H14       -1.4424    3.5723    6.5690 H         1 RES1    0.0000
     38 C18        2.3310    2.4277    2.1855 C.3       1 RES1    0.0000
     39 H15        1.6058    2.4474    1.5119 H         1 RES1    0.0000
     40 H16        2.8601    1.6004    2.0584 H         1 RES1    0.0000
     41 C19        3.2089    3.6398    2.0488 C.3       1 RES1    0.0000
     42 H17        2.6846    4.4461    2.2364 H         1 RES1    0.0000
     43 H18        3.5625    3.6851    1.1371 H         1 RES1    0.0000
     44 H19        3.9511    3.5787    2.6852 H         1 RES1    0.0000
@<TRIPOS>BOND
     1    1    7 1
     2    2   20 2
     3    3   20 1
     4    4    6 1
     5    5    6 1
     6    6   19 2
     7    7    8 ar
     8    8    9 1
     9   10    8 ar
    10   11   10 1
    11   12   10 ar
    12   13   12 ar
    13   14   13 1
    14   15    7 ar
    15   16   15 1
    16   17   12 1
    17   18   17 1
    18   19   17 1
    19   20   19 1
    20   21    1 1
    21   22   21 1
    22   23   21 1
    23   24   21 1
    24   25   24 ar
    25   26   25 1
    26   27   25 ar
    27   28   27 1
    28   29   27 ar
    29   30   29 1
    30   31   29 ar
    31   32   31 1
    32   33   24 ar
    33   34   33 1
    34   35    4 1
    35   36   35 1
    36   37   35 1
    37   38    3 1
    38   39   38 1
    39   40   38 1
    40   41   38 1
    41   42   41 1
    42   43   41 1
    43   44   41 1
    44   13   15 ar
    45   17   35 1
    46   31   33 ar
@<TRIPOS>SUBSTRUCTURE
     1 RES1 1

@<TRIPOS>CRYSIN
  18.5272    5.8134   16.2635  90.0000 104.4480  90.0000  14 1

