# MOL2 file generated by ConQuest
# Please check atom types

@<TRIPOS>MOLECULE
MOWJIR
   100   106     2
SMALL
NO_CHARGES
****
Generated from CSD

@<TRIPOS>ATOM
      1 O1         2.0166   13.2158    8.8819 O.3       1 RES1    0.0000
      2 O2        -0.4955   13.1988   11.4372 O.3       1 RES1    0.0000
      3 O3         0.3717   11.5561   10.1780 O.2       1 RES1    0.0000
      4 N1        -1.0137   15.4748    6.3554 N.ar      1 RES1    0.0000
      5 N2         1.5699   13.3582    7.5539 N.2       1 RES1    0.0000
      6 N3         2.0898   15.8764   10.5444 N.2       1 RES1    0.0000
      7 N4         2.9362   16.5819   11.3428 N.3       1 RES1    0.0000
      8 C1        -1.5877   15.8998    5.2194 C.ar      1 RES1    0.0000
      9 C2        -1.3067   15.3643    3.9777 C.ar      1 RES1    0.0000
     10 C3        -0.3971   14.3230    3.9009 C.ar      1 RES1    0.0000
     11 C4         0.2233   13.8788    5.0514 C.ar      1 RES1    0.0000
     12 C5        -0.1028   14.4887    6.2626 C.ar      1 RES1    0.0000
     13 C6         0.5413   14.1253    7.5315 C.2       1 RES1    0.0000
     14 C7         0.1557   14.6800    8.8755 C.3       1 RES1    0.0000
     15 C8         1.0615   13.8533    9.7956 C.3       1 RES1    0.0000
     16 C9         0.2884   12.7143   10.4724 C.2       1 RES1    0.0000
     17 C10       -1.1604   12.1873   12.2421 C.3       1 RES1    0.0000
     18 C11        1.8769   14.6332   10.8084 C.2       1 RES1    0.0000
     19 C12        3.1920   17.9271   11.0596 C.ar      1 RES1    0.0000
     20 C13        2.4835   18.6326   10.0900 C.ar      1 RES1    0.0000
     21 C14        2.7726   19.9714    9.8660 C.ar      1 RES1    0.0000
     22 C15        3.7438   20.6217   10.6052 C.ar      1 RES1    0.0000
     23 C16        4.4380   19.9225   11.5780 C.ar      1 RES1    0.0000
     24 C17        4.1763   18.5816   11.8020 C.ar      1 RES1    0.0000
     25 C18        2.4355   13.8852   11.9620 C.ar      1 RES1    0.0000
     26 C19        1.9928   14.1551   13.2549 C.ar      1 RES1    0.0000
     27 C20        2.5157   13.4474   14.3317 C.ar      1 RES1    0.0000
     28 C21        3.4908   12.4890   14.1285 C.ar      1 RES1    0.0000
     29 C22        3.9335   12.2064   12.8453 C.ar      1 RES1    0.0000
     30 C23        3.3903   12.8843   11.7636 C.ar      1 RES1    0.0000
     31 O4         8.0315   13.3563   11.3206 O.3       2 RES2    0.0000
     32 O5         5.5030   13.2116    8.7811 O.3       2 RES2    0.0000
     33 O6         6.2945   11.6326   10.1876 O.2       2 RES2    0.0000
     34 N5         4.9178   15.7595   13.6277 N.ar      2 RES2    0.0000
     35 N6         7.5566   13.5919   12.6261 N.2       2 RES2    0.0000
     36 N7         8.1901   15.8084    9.3972 N.2       2 RES2    0.0000
     37 N8         9.0120   16.4353    8.5139 N.3       2 RES2    0.0000
     38 C24        4.2718   16.1867   14.7254 C.ar      2 RES2    0.0000
     39 C25        4.5271   15.7106   15.9990 C.ar      2 RES2    0.0000
     40 C26        5.5021   14.7480   16.1574 C.ar      2 RES2    0.0000
     41 C27        6.2004   14.3017   15.0470 C.ar      2 RES2    0.0000
     42 C28        5.8773   14.8309   13.8005 C.ar      2 RES2    0.0000
     43 C29        6.5578   14.3995   12.5701 C.2       2 RES2    0.0000
     44 C30        6.2336   14.8776   11.1892 C.3       2 RES2    0.0000
     45 C31        7.0935   13.9298   10.3508 C.3       2 RES2    0.0000
     46 C32        6.2613   12.7610    9.7876 C.2       2 RES2    0.0000
     47 C33        4.8409   12.1873    7.9859 C.3       2 RES2    0.0000
     48 C34        7.9179   14.5610    9.2435 C.2       2 RES2    0.0000
     49 C35        9.4317   17.7316    8.8211 C.ar      2 RES2    0.0000
     50 C36        8.7929   18.4945    9.7988 C.ar      2 RES2    0.0000
     51 C37        9.2637   19.7610   10.0996 C.ar      2 RES2    0.0000
     52 C38       10.3566   20.2944    9.4260 C.ar      2 RES2    0.0000
     53 C39       10.9717   19.5485    8.4403 C.ar      2 RES2    0.0000
     54 C40       10.5187   18.2735    8.1315 C.ar      2 RES2    0.0000
     55 C41        8.3891   13.6748    8.1363 C.ar      2 RES2    0.0000
     56 C42        7.9970   13.9235    6.8243 C.ar      2 RES2    0.0000
     57 C43        8.4040   13.0756    5.8034 C.ar      2 RES2    0.0000
     58 C44        9.2208   11.9918    6.0882 C.ar      2 RES2    0.0000
     59 C45        9.6069   11.7304    7.3907 C.ar      2 RES2    0.0000
     60 C46        9.1785   12.5634    8.4195 C.ar      2 RES2    0.0000
     61 H1         3.3201   16.1930   12.0325 H         1 RES1    0.0000
     62 H2        -2.2215   16.6053    5.2722 H         1 RES1    0.0000
     63 H3        -1.7274   15.7043    3.1969 H         1 RES1    0.0000
     64 H4        -0.2018   13.9192    3.0625 H         1 RES1    0.0000
     65 H5         0.8571   13.1712    5.0194 H         1 RES1    0.0000
     66 H6        -0.8028   14.5270    9.0723 H         1 RES1    0.0000
     67 H7         0.3542   15.6490    8.9395 H         1 RES1    0.0000
     68 H8        -1.7572   11.6581   11.6740 H         1 RES1    0.0000
     69 H9        -1.6838   12.6229   12.9477 H         1 RES1    0.0000
     70 H10       -0.4899   11.6008   12.6485 H         1 RES1    0.0000
     71 H11        1.8059   18.1991    9.5844 H         1 RES1    0.0000
     72 H12        2.2971   20.4474    9.1939 H         1 RES1    0.0000
     73 H13        3.9329   21.5397   10.4484 H         1 RES1    0.0000
     74 H14        5.0990   20.3667   12.0965 H         1 RES1    0.0000
     75 H15        4.6684   18.1056   12.4613 H         1 RES1    0.0000
     76 H16        1.3340   14.8245   13.4005 H         1 RES1    0.0000
     77 H17        2.2015   13.6238   15.2102 H         1 RES1    0.0000
     78 H18        3.8592   12.0236   14.8694 H         1 RES1    0.0000
     79 H19        4.6065   11.5498   12.7077 H         1 RES1    0.0000
     80 H20        3.6688   12.6654   10.8820 H         1 RES1    0.0000
     81 H21        9.2703   16.0379    7.7715 H         2 RES2    0.0000
     82 H22        3.6024   16.8518   14.6213 H         2 RES2    0.0000
     83 H23        4.0418   16.0379   16.7462 H         2 RES2    0.0000
     84 H24        5.6933   14.3952   17.0198 H         2 RES2    0.0000
     85 H25        6.8853   13.6493   15.1350 H         2 RES2    0.0000
     86 H26        6.5000   15.8233   11.0596 H         2 RES2    0.0000
     87 H27        5.2705   14.7756   10.9844 H         2 RES2    0.0000
     88 H28        5.5081   11.6985    7.4595 H         2 RES2    0.0000
     89 H29        4.1966   12.6123    7.3811 H         2 RES2    0.0000
     90 H30        4.3722   11.5646    8.5779 H         2 RES2    0.0000
     91 H31        8.0377   18.1460   10.2564 H         2 RES2    0.0000
     92 H32        8.8342   20.2710   10.7748 H         2 RES2    0.0000
     93 H33       10.6764   21.1636    9.6404 H         2 RES2    0.0000
     94 H34       11.7138   19.9119    7.9699 H         2 RES2    0.0000
     95 H35       10.9470   17.7698    7.4483 H         2 RES2    0.0000
     96 H36        7.4489   14.6757    6.6258 H         2 RES2    0.0000
     97 H37        8.1236   13.2371    4.9090 H         2 RES2    0.0000
     98 H38        9.5159   11.4244    5.3842 H         2 RES2    0.0000
     99 H39       10.1645   10.9845    7.5827 H         2 RES2    0.0000
    100 H40        9.4244   12.3722    9.3171 H         2 RES2    0.0000
@<TRIPOS>BOND
     1    1    5 1
     2    2   16 1
     3    3   16 2
     4    4    8 ar
     5    5   13 2
     6    6    7 1
     7    7   19 1
     8    8    9 ar
     9    9   10 ar
    10   10   11 ar
    11   11   12 ar
    12   12    4 ar
    13   13   12 1
    14   14   13 1
    15   15    1 1
    16   16   15 1
    17   17    2 1
    18   18    6 2
    19   19   20 ar
    20   20   21 ar
    21   21   22 ar
    22   22   23 ar
    23   23   24 ar
    24   24   19 ar
    25   25   18 1
    26   26   25 ar
    27   27   26 ar
    28   28   27 ar
    29   29   28 ar
    30   30   25 ar
    31   31   35 1
    32   32   46 1
    33   33   46 2
    34   34   38 ar
    35   35   43 2
    36   36   37 1
    37   37   49 1
    38   38   39 ar
    39   39   40 ar
    40   40   41 ar
    41   41   42 ar
    42   42   34 ar
    43   43   42 1
    44   44   43 1
    45   45   31 1
    46   46   45 1
    47   47   32 1
    48   48   36 2
    49   49   50 ar
    50   50   51 ar
    51   51   52 ar
    52   52   53 ar
    53   53   54 ar
    54   54   49 ar
    55   55   48 1
    56   56   55 ar
    57   57   56 ar
    58   58   57 ar
    59   59   58 ar
    60   60   55 ar
    61   61    7 1
    62   62    8 1
    63   63    9 1
    64   64   10 1
    65   65   11 1
    66   66   14 1
    67   67   14 1
    68   68   17 1
    69   69   17 1
    70   70   17 1
    71   71   20 1
    72   72   21 1
    73   73   22 1
    74   74   23 1
    75   75   24 1
    76   76   26 1
    77   77   27 1
    78   78   28 1
    79   79   29 1
    80   80   30 1
    81   81   37 1
    82   82   38 1
    83   83   39 1
    84   84   40 1
    85   85   41 1
    86   86   44 1
    87   87   44 1
    88   88   47 1
    89   89   47 1
    90   90   47 1
    91   91   50 1
    92   92   51 1
    93   93   52 1
    94   94   53 1
    95   95   54 1
    96   96   56 1
    97   97   57 1
    98   98   58 1
    99   99   59 1
   100  100   60 1
   101   14   15 1
   102   15   18 1
   103   29   30 ar
   104   44   45 1
   105   45   48 1
   106   59   60 ar
@<TRIPOS>SUBSTRUCTURE
     1 RES1 1
     2 RES2 31

@<TRIPOS>CRYSIN
  11.8908   21.2507   16.0006  90.0000  90.0160  90.0000  14 1

