# MOL2 file generated by ConQuest
# Please check atom types

@<TRIPOS>MOLECULE
MOZLUJ
    81    81     3
SMALL
NO_CHARGES
****
Generated from CSD

@<TRIPOS>ATOM
      1 O1         4.1325    1.6847   -2.1328 O.2       1 RES1    0.0000
      2 O2         6.3775    6.2384   -2.0408 O.2       1 RES1    0.0000
      3 O3         5.5920    4.4786   -1.0904 O.2       1 RES1    0.0000
      4 N1         2.9351    3.6052   -2.0413 N.am      1 RES1    0.0000
      5 H1         2.8445    4.3950   -2.3695 H         1 RES1    0.0000
      6 N2         5.9116    5.1068   -2.0781 N.pl3     1 RES1    0.0000
      7 C1         1.3498    3.1666    1.3540 C.3       1 RES1    0.0000
      8 H2         1.6736    3.4784    2.2014 H         1 RES1    0.0000
      9 H3         1.2844    2.2088    1.3697 H         1 RES1    0.0000
     10 H4         0.4831    3.5432    1.1836 H         1 RES1    0.0000
     11 C2         2.3112    3.5902    0.2600 C.3       1 RES1    0.0000
     12 H5         2.3593    4.5593    0.2533 H         1 RES1    0.0000
     13 H6         3.1948    3.2587    0.4842 H         1 RES1    0.0000
     14 C3         1.9974    3.1573   -1.0379 C.3       1 RES1    0.0000
     15 H7         1.1136    3.4803   -1.2710 H         1 RES1    0.0000
     16 H8         1.9687    2.1881   -1.0469 H         1 RES1    0.0000
     17 C4         3.9337    2.8455   -2.4787 C.2       1 RES1    0.0000
     18 C5         4.8030    3.4653   -3.5432 C.ar      1 RES1    0.0000
     19 C6         4.7176    2.8934   -4.8085 C.ar      1 RES1    0.0000
     20 H9         4.1477    2.1721   -4.9474 H         1 RES1    0.0000
     21 C7         5.4707    3.3845   -5.8665 C.ar      1 RES1    0.0000
     22 H10        5.4051    2.9967   -6.7094 H         1 RES1    0.0000
     23 C8         6.3120    4.4419   -5.6625 C.ar      1 RES1    0.0000
     24 H11        6.8130    4.7734   -6.3709 H         1 RES1    0.0000
     25 C9         6.4230    5.0110   -4.4408 C.ar      1 RES1    0.0000
     26 H12        6.9974    5.7313   -4.3108 H         1 RES1    0.0000
     27 C10        5.6908    4.5255   -3.4031 C.ar      1 RES1    0.0000
     28 O4         3.0760   -3.0333   -2.7811 O.2       2 RES2    0.0000
     29 O5         0.4512    1.0283   -3.7235 O.2       2 RES2    0.0000
     30 O6         0.7029   -0.8950   -2.8497 O.2       2 RES2    0.0000
     31 N3         3.5806   -1.0781   -1.7770 N.am      2 RES2    0.0000
     32 H13        3.7705   -0.2489   -1.9054 H         2 RES2    0.0000
     33 N4         1.0358   -0.0225   -3.6336 N.pl3     2 RES2    0.0000
     34 C11        2.4214   -1.6397    1.7799 C.3       2 RES2    0.0000
     35 H14        1.6482   -1.2969    2.2350 H         2 RES2    0.0000
     36 H15        3.2145   -1.3617    2.2439 H         2 RES2    0.0000
     37 H16        2.3822   -2.5985    1.7597 H         2 RES2    0.0000
     38 C12        2.4482   -1.1232    0.4102 C.3       2 RES2    0.0000
     39 H17        2.4671   -0.1540    0.4439 H         2 RES2    0.0000
     40 H18        1.6278   -1.3852   -0.0381 H         2 RES2    0.0000
     41 C13        3.6268   -1.6040   -0.4172 C.3       2 RES2    0.0000
     42 H19        4.4522   -1.3232    0.0067 H         2 RES2    0.0000
     43 H20        3.6213   -2.5741   -0.4483 H         2 RES2    0.0000
     44 C14        3.2616   -1.8143   -2.8106 C.2       2 RES2    0.0000
     45 C15        3.1961   -1.0884   -4.1456 C.ar      2 RES2    0.0000
     46 C16        4.2271   -1.2687   -5.0483 C.ar      2 RES2    0.0000
     47 H21        4.9510   -1.8021   -4.8152 H         2 RES2    0.0000
     48 C17        4.1932   -0.6639   -6.2925 C.ar      2 RES2    0.0000
     49 H22        4.8969   -0.7954   -6.8865 H         2 RES2    0.0000
     50 C18        3.1344    0.1268   -6.6619 C.ar      2 RES2    0.0000
     51 H23        3.1101    0.5156   -7.5052 H         2 RES2    0.0000
     52 C19        2.1201    0.3353   -5.7807 C.ar      2 RES2    0.0000
     53 H24        1.4020    0.8790   -6.0123 H         2 RES2    0.0000
     54 C20        2.1640   -0.2667   -4.5430 C.ar      2 RES2    0.0000
     55 O7         5.7891    8.5590    5.9251 O.2       3 RES3    0.0000
     56 O8         3.9666    4.7378    3.2274 O.2       3 RES3    0.0000
     57 O9         3.8464    6.2572    4.7549 O.2       3 RES3    0.0000
     58 N5         6.1597    6.4187    6.5171 N.am      3 RES3    0.0000
     59 H25        6.4536    5.6515    6.2611 H         3 RES3    0.0000
     60 N6         4.4123    5.7078    3.8221 N.pl3     3 RES3    0.0000
     61 C21        6.0626    6.0638   10.2805 C.3       3 RES3    0.0000
     62 H26        6.6521    5.6139   10.8902 H         3 RES3    0.0000
     63 H27        5.1865    5.6731   10.3343 H         3 RES3    0.0000
     64 H28        6.0129    6.9944   10.5114 H         3 RES3    0.0000
     65 C22        6.5966    5.9229    8.8615 C.3       3 RES3    0.0000
     66 H29        7.4903    6.2957    8.8166 H         3 RES3    0.0000
     67 H30        6.6534    4.9819    8.6328 H         3 RES3    0.0000
     68 C23        5.7529    6.5934    7.9056 C.3       3 RES3    0.0000
     69 H31        5.7452    7.5410    8.1105 H         3 RES3    0.0000
     70 H32        4.8467    6.2638    8.0074 H         3 RES3    0.0000
     71 C24        6.0923    7.4039    5.6365 C.2       3 RES3    0.0000
     72 C25        6.4491    7.0376    4.2075 C.ar      3 RES3    0.0000
     73 C26        5.7093    6.2610    3.3682 C.ar      3 RES3    0.0000
     74 C27        6.0792    5.9905    2.0669 C.ar      3 RES3    0.0000
     75 H33        5.5593    5.4383    1.5288 H         3 RES3    0.0000
     76 C28        7.2218    6.5530    1.5961 C.ar      3 RES3    0.0000
     77 H34        7.4776    6.4009    0.7151 H         3 RES3    0.0000
     78 C29        7.9966    7.3353    2.3919 C.ar      3 RES3    0.0000
     79 H35        8.7828    7.7034    2.0601 H         3 RES3    0.0000
     80 C30        7.6107    7.5814    3.6986 C.ar      3 RES3    0.0000
     81 H36        8.1401    8.1204    4.2413 H         3 RES3    0.0000
@<TRIPOS>BOND
     1    1   17 2
     2    2    6 2
     3    3    6 2
     4    4    5 1
     5    6   27 1
     6    7    8 1
     7    9    7 1
     8   10    7 1
     9   11    7 1
    10   12   11 1
    11   13   11 1
    12   14    4 1
    13   15   14 1
    14   16   14 1
    15   17    4 1
    16   18   17 1
    17   19   18 ar
    18   20   19 1
    19   21   19 ar
    20   22   21 1
    21   23   21 ar
    22   24   23 1
    23   25   23 ar
    24   26   25 1
    25   27   18 ar
    26   28   44 2
    27   29   33 2
    28   30   33 2
    29   31   32 1
    30   33   54 1
    31   34   35 1
    32   36   34 1
    33   37   34 1
    34   38   34 1
    35   39   38 1
    36   40   38 1
    37   41   31 1
    38   42   41 1
    39   43   41 1
    40   44   31 1
    41   45   44 1
    42   46   45 ar
    43   47   46 1
    44   48   46 ar
    45   49   48 1
    46   50   48 ar
    47   51   50 1
    48   52   50 ar
    49   53   52 1
    50   54   45 ar
    51   55   71 2
    52   56   60 2
    53   57   60 2
    54   58   59 1
    55   60   73 1
    56   61   62 1
    57   63   61 1
    58   64   61 1
    59   65   61 1
    60   66   65 1
    61   67   65 1
    62   68   58 1
    63   69   68 1
    64   70   68 1
    65   71   58 1
    66   72   71 1
    67   73   72 ar
    68   74   73 ar
    69   75   74 1
    70   76   74 ar
    71   77   76 1
    72   78   76 ar
    73   79   78 1
    74   80   72 ar
    75   81   80 1
    76   11   14 1
    77   25   27 ar
    78   38   41 1
    79   52   54 ar
    80   65   68 1
    81   78   80 ar
@<TRIPOS>SUBSTRUCTURE
     1 RES1 1
     2 RES2 28
     3 RES3 55

@<TRIPOS>CRYSIN
  15.8350    9.3910   23.6180  90.0000 108.3500  90.0000  14 1

