# MOL2 file generated by ConQuest
# Please check atom types

@<TRIPOS>MOLECULE
MOZPOH
    72    76     2
SMALL
NO_CHARGES
****
Generated from CSD

@<TRIPOS>ATOM
      1 O1         7.4876    3.6148   -0.3057 O.3       1 RES1    0.0000
      2 O2         9.5304    1.2856    1.5681 O.3       1 RES1    0.0000
      3 H1        10.2908    1.5237    1.3724 H         1 RES1    0.0000
      4 O3        10.4476    3.9288    1.1982 O.3       1 RES1    0.0000
      5 H2        10.7919    4.6334    1.4354 H         1 RES1    0.0000
      6 O4         3.0573    1.3453   -0.0495 O.3       2 RES2    0.0000
      7 O5         1.7280    4.3186   -1.5948 O.3       2 RES2    0.0000
      8 H3         1.4451    4.1020   -0.8569 H         2 RES2    0.0000
      9 O6         4.3980    3.9532   -2.1804 O.3       2 RES2    0.0000
     10 H4         5.1917    3.7824   -2.0660 H         2 RES2    0.0000
     11 N1         7.2504    3.6012   -1.6938 N.2       1 RES1    0.0000
     12 N2         3.1037    1.2740    1.3597 N.2       2 RES2    0.0000
     13 C1         8.6406    2.3943    1.4520 C.3       1 RES1    0.0000
     14 C2         7.3987    2.0603    2.2805 C.3       1 RES1    0.0000
     15 H5         6.7277    2.7450    2.1370 H         1 RES1    0.0000
     16 H6         7.0323    1.2157    1.9763 H         1 RES1    0.0000
     17 C3         7.7011    1.9653    3.7658 C.3       1 RES1    0.0000
     18 H7         6.8772    1.8143    4.2539 H         1 RES1    0.0000
     19 H8         8.2882    1.2100    3.9272 H         1 RES1    0.0000
     20 C4         8.3609    3.2334    4.2724 C.3       1 RES1    0.0000
     21 H9         8.6029    3.1213    5.2046 H         1 RES1    0.0000
     22 H10        7.7337    3.9709    4.2111 H         1 RES1    0.0000
     23 C5         9.6084    3.5592    3.4606 C.3       1 RES1    0.0000
     24 H11        9.9899    4.3937    3.7745 H         1 RES1    0.0000
     25 H12       10.2686    2.8597    3.5884 H         1 RES1    0.0000
     26 C6         9.2799    3.6784    1.9873 C.3       1 RES1    0.0000
     27 H13        8.6502    4.4197    1.8638 H         1 RES1    0.0000
     28 C7         8.2706    2.5536    0.0055 C.2       1 RES1    0.0000
     29 C8         8.5445    1.8495   -1.1045 C.2       1 RES1    0.0000
     30 H14        9.0475    1.0706   -1.1716 H         1 RES1    0.0000
     31 C9         7.8979    2.5524   -2.1486 C.2       1 RES1    0.0000
     32 C10        7.9116    2.2717   -3.5962 C.ar      1 RES1    0.0000
     33 C11        8.3409    1.0440   -4.0668 C.ar      1 RES1    0.0000
     34 H15        8.5843    0.3775   -3.4652 H         1 RES1    0.0000
     35 C12        8.4106    0.8001   -5.4295 C.ar      1 RES1    0.0000
     36 H16        8.7022   -0.0250   -5.7442 H         1 RES1    0.0000
     37 C13        8.0431    1.7919   -6.3199 C.ar      1 RES1    0.0000
     38 H17        8.0929    1.6348   -7.2344 H         1 RES1    0.0000
     39 C14        7.6039    3.0131   -5.8580 C.ar      1 RES1    0.0000
     40 H18        7.3513    3.6736   -6.4619 H         1 RES1    0.0000
     41 C15        7.5363    3.2566   -4.5123 C.ar      1 RES1    0.0000
     42 H19        7.2385    4.0835   -4.2070 H         1 RES1    0.0000
     43 C16        3.6192    2.7900   -1.9137 C.3       2 RES2    0.0000
     44 C17        2.1646    3.1524   -2.2993 C.3       2 RES2    0.0000
     45 H20        1.5807    2.4032   -2.0580 H         2 RES2    0.0000
     46 C18        2.0268    3.4138   -3.7846 C.3       2 RES2    0.0000
     47 H21        2.5363    4.2057   -4.0196 H         2 RES2    0.0000
     48 H22        1.0947    3.5836   -3.9955 H         2 RES2    0.0000
     49 C19        2.5224    2.2338   -4.6052 C.3       2 RES2    0.0000
     50 H23        2.4681    2.4522   -5.5487 H         2 RES2    0.0000
     51 H24        1.9513    1.4660   -4.4427 H         2 RES2    0.0000
     52 C20        3.9589    1.8783   -4.2504 C.3       2 RES2    0.0000
     53 H25        4.5427    2.6125   -4.4989 H         2 RES2    0.0000
     54 H26        4.2312    1.0953   -4.7533 H         2 RES2    0.0000
     55 C21        4.1009    1.5997   -2.7596 C.3       2 RES2    0.0000
     56 H27        5.0319    1.4169   -2.5548 H         2 RES2    0.0000
     57 H28        3.5835    0.8122   -2.5293 H         2 RES2    0.0000
     58 C22        3.6747    2.4867   -0.4444 C.2       2 RES2    0.0000
     59 C23        4.1247    3.1515    0.6341 C.2       2 RES2    0.0000
     60 H29        4.5851    3.9596    0.6494 H         2 RES2    0.0000
     61 C24        3.7459    2.3530    1.7452 C.2       2 RES2    0.0000
     62 C25        3.9467    2.6034    3.1883 C.ar      2 RES2    0.0000
     63 C26        4.2725    3.8691    3.6469 C.ar      2 RES2    0.0000
     64 H30        4.3761    4.5680    3.0435 H         2 RES2    0.0000
     65 C27        4.4425    4.0950    5.0059 C.ar      2 RES2    0.0000
     66 H31        4.6612    4.9467    5.3090 H         2 RES2    0.0000
     67 C28        4.2911    3.0696    5.9055 C.ar      2 RES2    0.0000
     68 H32        4.4080    3.2265    6.8153 H         2 RES2    0.0000
     69 C29        3.9669    1.8108    5.4578 C.ar      2 RES2    0.0000
     70 H33        3.8682    1.1141    6.0655 H         2 RES2    0.0000
     71 C30        3.7872    1.5772    4.1096 C.ar      2 RES2    0.0000
     72 H34        3.5583    0.7248    3.8161 H         2 RES2    0.0000
@<TRIPOS>BOND
     1    1   11 1
     2    2    3 1
     3    4    5 1
     4    6   12 1
     5    7    8 1
     6    9   10 1
     7   11   31 2
     8   12   61 2
     9   13    2 1
    10   14   13 1
    11   15   14 1
    12   16   14 1
    13   17   14 1
    14   18   17 1
    15   19   17 1
    16   20   17 1
    17   21   20 1
    18   22   20 1
    19   23   20 1
    20   24   23 1
    21   25   23 1
    22   26    4 1
    23   27   26 1
    24   28    1 1
    25   29   28 2
    26   30   29 1
    27   31   29 1
    28   32   31 1
    29   33   32 ar
    30   34   33 1
    31   35   33 ar
    32   36   35 1
    33   37   35 ar
    34   38   37 1
    35   39   37 ar
    36   40   39 1
    37   41   32 ar
    38   42   41 1
    39   43    9 1
    40   44    7 1
    41   45   44 1
    42   46   44 1
    43   47   46 1
    44   48   46 1
    45   49   46 1
    46   50   49 1
    47   51   49 1
    48   52   49 1
    49   53   52 1
    50   54   52 1
    51   55   43 1
    52   56   55 1
    53   57   55 1
    54   58    6 1
    55   59   58 2
    56   60   59 1
    57   61   59 1
    58   62   61 1
    59   63   62 ar
    60   64   63 1
    61   65   63 ar
    62   66   65 1
    63   67   65 ar
    64   68   67 1
    65   69   67 ar
    66   70   69 1
    67   71   62 ar
    68   72   71 1
    69   13   26 1
    70   13   28 1
    71   23   26 1
    72   39   41 ar
    73   43   44 1
    74   43   58 1
    75   52   55 1
    76   69   71 ar
@<TRIPOS>SUBSTRUCTURE
     1 RES1 1
     2 RES2 6

@<TRIPOS>CRYSIN
   9.4894   11.5593   14.0083  73.0200  81.6200  66.7100   2 1

