# MOL2 file generated by ConQuest
# Please check atom types

@<TRIPOS>MOLECULE
MPHFRN
    60    64     1
SMALL
NO_CHARGES
****
Generated from CSD

@<TRIPOS>ATOM
      1 O1        -1.6595    9.8344   -0.5286 O.3       1 RES1    0.0000
      2 C1        -1.2757    8.7303   -1.2258 C.2       1 RES1    0.0000
      3 C2        -0.4415    9.1385   -2.3800 C.2       1 RES1    0.0000
      4 C3        -0.1009   10.5938   -2.1272 C.3       1 RES1    0.0000
      5 C4        -1.3190   11.0238   -1.2794 C.3       1 RES1    0.0000
      6 O2        -1.5508    7.6347   -0.8044 O.2       1 RES1    0.0000
      7 C5        -0.0688    8.3740   -3.4194 C.2       1 RES1    0.0000
      8 C6         0.9740    8.8608   -4.3617 C.ar      1 RES1    0.0000
      9 C7         2.1842    9.3476   -3.8816 C.ar      1 RES1    0.0000
     10 C8         3.1426    9.8210   -4.7652 C.ar      1 RES1    0.0000
     11 C9         2.8942    9.8294   -6.1136 C.ar      1 RES1    0.0000
     12 C10        1.7139    9.3292   -6.6064 C.ar      1 RES1    0.0000
     13 C11        0.7565    8.8274   -5.7305 C.ar      1 RES1    0.0000
     14 C12       -0.6922    7.0759   -3.7616 C.ar      1 RES1    0.0000
     15 C13        0.0998    6.0254   -4.2162 C.ar      1 RES1    0.0000
     16 C14       -0.4859    4.8227   -4.5992 C.ar      1 RES1    0.0000
     17 C15       -1.8459    4.6688   -4.5532 C.ar      1 RES1    0.0000
     18 C16       -2.6368    5.7026   -4.1140 C.ar      1 RES1    0.0000
     19 C17       -2.0711    6.9053   -3.7233 C.ar      1 RES1    0.0000
     20 C18       -0.0399   11.4604   -3.3785 C.2       1 RES1    0.0000
     21 O3        -0.9063   11.3315   -4.2315 O.2       1 RES1    0.0000
     22 N1         0.9240   12.3938   -3.4730 N.am      1 RES1    0.0000
     23 C19        1.9978   12.6765   -2.5256 C.3       1 RES1    0.0000
     24 C20        2.0578   14.1603   -2.2779 C.3       1 RES1    0.0000
     25 O4         2.2530   14.8662   -3.4832 O.3       1 RES1    0.0000
     26 C21        1.1925   14.6270   -4.3796 C.3       1 RES1    0.0000
     27 C22        1.0516   13.1666   -4.7039 C.3       1 RES1    0.0000
     28 C23       -1.0072   12.1713   -0.3575 C.ar      1 RES1    0.0000
     29 C24       -0.0666   12.0358    0.6537 C.ar      1 RES1    0.0000
     30 C25        0.3228   13.1398    1.3892 C.ar      1 RES1    0.0000
     31 C26       -0.2418   14.3576    1.1083 C.ar      1 RES1    0.0000
     32 C27       -1.2180   14.5182    0.1583 C.ar      1 RES1    0.0000
     33 C28       -1.5874   13.4092   -0.5874 C.ar      1 RES1    0.0000
     34 N2         0.2208   15.5303    1.8565 N.pl3     1 RES1    0.0000
     35 O5         1.1537   15.3931    2.6329 O.2       1 RES1    0.0000
     36 O6        -0.3350   16.5858    1.6701 O.2       1 RES1    0.0000
     37 H1         0.7443   10.6674   -1.5986 H         1 RES1    0.0000
     38 H2        -2.0644   11.2763   -1.8846 H         1 RES1    0.0000
     39 H3         2.3584    9.3694   -2.9036 H         1 RES1    0.0000
     40 H4         4.0190   10.1756   -4.4026 H         1 RES1    0.0000
     41 H5         3.5986   10.1890   -6.7264 H         1 RES1    0.0000
     42 H6         1.5652    9.3493   -7.6024 H         1 RES1    0.0000
     43 H7        -0.0932    8.4175   -6.0880 H         1 RES1    0.0000
     44 H8         1.0893    6.1475   -4.2519 H         1 RES1    0.0000
     45 H9         0.1220    4.0783   -4.9235 H         1 RES1    0.0000
     46 H10       -2.2585    3.8006   -4.8265 H         1 RES1    0.0000
     47 H11       -3.6219    5.5922   -4.0910 H         1 RES1    0.0000
     48 H12       -2.6590    7.6480   -3.4092 H         1 RES1    0.0000
     49 H13        2.8786   12.3871   -2.9112 H         1 RES1    0.0000
     50 H14        1.8370   12.2081   -1.6650 H         1 RES1    0.0000
     51 H15        2.8087   14.3476   -1.6446 H         1 RES1    0.0000
     52 H16        1.1925   14.4413   -1.8642 H         1 RES1    0.0000
     53 H17        1.3312   15.1556   -5.2070 H         1 RES1    0.0000
     54 H18        0.3306   14.9398   -3.9353 H         1 RES1    0.0000
     55 H19        1.8725   12.8638   -5.2070 H         1 RES1    0.0000
     56 H20        0.2485   13.0161   -5.2836 H         1 RES1    0.0000
     57 H21        0.3328   11.1358    0.8606 H         1 RES1    0.0000
     58 H22        1.0172   13.0428    2.0940 H         1 RES1    0.0000
     59 H23       -1.6384   15.4199   -0.0153 H         1 RES1    0.0000
     60 H24       -2.3096   13.4962   -1.2845 H         1 RES1    0.0000
@<TRIPOS>BOND
     1    1    2 1
     2    2    3 1
     3    3    4 1
     4    4    5 1
     5    5    1 1
     6    6    2 2
     7    7    3 2
     8    8    7 1
     9    9    8 ar
    10   10    9 ar
    11   11   10 ar
    12   12   11 ar
    13   13    8 ar
    14   14    7 1
    15   15   14 ar
    16   16   15 ar
    17   17   16 ar
    18   18   17 ar
    19   19   14 ar
    20   20    4 1
    21   21   20 2
    22   22   20 1
    23   23   22 1
    24   24   23 1
    25   25   24 1
    26   26   25 1
    27   27   22 1
    28   28    5 1
    29   29   28 ar
    30   30   29 ar
    31   31   30 ar
    32   32   31 ar
    33   33   28 ar
    34   34   31 1
    35   35   34 2
    36   36   34 2
    37   37    4 1
    38   38    5 1
    39   39    9 1
    40   40   10 1
    41   41   11 1
    42   42   12 1
    43   43   13 1
    44   44   15 1
    45   45   16 1
    46   46   17 1
    47   47   18 1
    48   48   19 1
    49   49   23 1
    50   50   23 1
    51   51   24 1
    52   52   24 1
    53   53   26 1
    54   54   26 1
    55   55   27 1
    56   56   27 1
    57   57   29 1
    58   58   30 1
    59   59   32 1
    60   60   33 1
    61   12   13 ar
    62   18   19 ar
    63   26   27 1
    64   32   33 ar
@<TRIPOS>SUBSTRUCTURE
     1 RES1 1

@<TRIPOS>CRYSIN
  11.0930   16.7280   25.5370  90.0000  90.0000  90.0000  61 1

