# MOL2 file generated by ConQuest
# Please check atom types

@<TRIPOS>MOLECULE
MPICIN
    26    28     1
SMALL
NO_CHARGES
****
Generated from CSD

@<TRIPOS>ATOM
      1 C1         4.5459   -5.2376    2.1792 C.3       1 RES1    0.0000
      2 C2         1.9030   -2.1315    3.2607 C.ar      1 RES1    0.0000
      3 C3         1.6525   -1.7556    4.6016 C.ar      1 RES1    0.0000
      4 C4         0.9762   -0.6212    4.9892 C.ar      1 RES1    0.0000
      5 C5         0.4537    0.1755    3.9849 C.ar      1 RES1    0.0000
      6 C6         0.6144   -0.1188    2.6442 C.ar      1 RES1    0.0000
      7 C7         1.3528   -1.2458    2.3151 C.ar      1 RES1    0.0000
      8 C8         2.2689   -4.3219    2.5653 C.2       1 RES1    0.0000
      9 C9         0.8265   -4.7944    2.4614 C.3       1 RES1    0.0000
     10 C10        0.9893   -6.2323    2.0113 C.ar      1 RES1    0.0000
     11 C11        0.0714   -7.2199    1.7553 C.ar      1 RES1    0.0000
     12 C12        0.5261   -8.4879    1.3359 C.ar      1 RES1    0.0000
     13 C13        1.8862   -8.7237    1.1918 C.ar      1 RES1    0.0000
     14 C14        2.8245   -7.7358    1.4507 C.ar      1 RES1    0.0000
     15 C15        2.3510   -6.4985    1.8654 C.ar      1 RES1    0.0000
     16 N1         3.0838   -5.3472    2.1976 N.pl3     1 RES1    0.0000
     17 N2         2.7315   -3.1873    2.9501 N.2       1 RES1    0.0000
     18 N3         2.1903   -2.6377    5.6603 N.pl3     1 RES1    0.0000
     19 N4        -0.3128    1.3796    4.3557 N.pl3     1 RES1    0.0000
     20 N5         1.5728   -1.4857    0.8770 N.pl3     1 RES1    0.0000
     21 O1         0.6290   -1.3203    0.1375 O.2       1 RES1    0.0000
     22 O2         2.6759   -1.8245    0.5067 O.2       1 RES1    0.0000
     23 O3         2.9159   -2.1118    6.4910 O.2       1 RES1    0.0000
     24 O4         1.8744   -3.8145    5.6312 O.2       1 RES1    0.0000
     25 O5        -0.4777    1.6076    5.5384 O.2       1 RES1    0.0000
     26 O6        -0.7619    2.0671    3.4525 O.2       1 RES1    0.0000
@<TRIPOS>BOND
     1    1   16 1
     2    2    3 ar
     3    3    4 ar
     4    4    5 ar
     5    5    6 ar
     6    6    7 ar
     7    7    2 ar
     8    8    9 1
     9    9   10 1
    10   10   11 ar
    11   11   12 ar
    12   12   13 ar
    13   13   14 ar
    14   14   15 ar
    15   15   10 ar
    16   16    8 1
    17   17    2 1
    18   18    3 1
    19   19    5 1
    20   20    7 1
    21   21   20 2
    22   22   20 2
    23   23   18 2
    24   24   18 2
    25   25   19 2
    26   26   19 2
    27    8   17 2
    28   15   16 1
@<TRIPOS>SUBSTRUCTURE
     1 RES1 1

@<TRIPOS>CRYSIN
   8.0100   13.2000    7.7900  92.7000 107.5000  96.5000   2 1

