# MOL2 file generated by ConQuest
# Please check atom types

@<TRIPOS>MOLECULE
MPIMZR01
    68    70     2
SMALL
USER_CHARGES
****
Generated from CSD

@<TRIPOS>ATOM
      1 O1         5.6527    0.2598    0.8496 O.2       1 RES1    0.0000
      2 N1         6.5972    0.7359    1.5358 N.3       1 RES1    0.0000
      3 O2         8.6813    1.0191    4.2642 O.2       1 RES1   -1.0000
      4 N2         8.0335    1.1053    3.1712 N.pl3     1 RES1    1.0000
      5 C1         7.0620    0.2680    2.7076 C.2       1 RES1    0.0000
      6 C2         7.1636    2.1031    1.2286 C.3       1 RES1    0.0000
      7 C3         8.4327    2.1061    2.0736 C.3       1 RES1    0.0000
      8 C4         5.9994   -1.9874    2.6612 C.ar      1 RES1    0.0000
      9 C5         5.5196   -3.1292    3.2894 C.ar      1 RES1    0.0000
     10 C6         5.6364   -3.2551    4.6490 C.ar      1 RES1    0.0000
     11 C7         6.2391   -2.2431    5.4012 C.ar      1 RES1    0.0000
     12 C8         6.7352   -1.0840    4.7811 C.ar      1 RES1    0.0000
     13 C9         6.5932   -0.9612    3.4019 C.ar      1 RES1    0.0000
     14 H1         5.9065   -1.8727    1.5149 H         1 RES1    0.0000
     15 H2         5.0695   -3.9473    2.6716 H         1 RES1    0.0000
     16 H3         5.2272   -4.1321    5.1636 H         1 RES1    0.0000
     17 H4         6.3580   -2.3203    6.4769 H         1 RES1    0.0000
     18 H5         7.2182   -0.3278    5.3329 H         1 RES1    0.0000
     19 C10        7.3588    2.2655   -0.2492 C.3       1 RES1    0.0000
     20 C11        6.0805    3.1018    1.7154 C.3       1 RES1    0.0000
     21 C12        9.6543    1.5337    1.3886 C.3       1 RES1    0.0000
     22 C13        8.7732    3.4348    2.7423 C.3       1 RES1    0.0000
     23 H6         7.8362    3.2125   -0.4706 H         1 RES1    0.0000
     24 H7         8.0264    1.4423   -0.6676 H         1 RES1    0.0000
     25 H8         6.4175    2.2249   -0.7766 H         1 RES1    0.0000
     26 H9         5.9018    3.0014    2.7678 H         1 RES1    0.0000
     27 H10        5.1524    2.9141    1.1857 H         1 RES1    0.0000
     28 H11        6.3787    4.1351    1.4929 H         1 RES1    0.0000
     29 H12       10.4611    1.4088    2.1489 H         1 RES1    0.0000
     30 H13        9.9867    2.2137    0.6699 H         1 RES1    0.0000
     31 H14        9.4365    0.5440    0.9446 H         1 RES1    0.0000
     32 H15        9.6449    3.3119    3.4343 H         1 RES1    0.0000
     33 H16        8.9875    4.1788    2.0411 H         1 RES1    0.0000
     34 H17        7.9516    3.8296    3.3555 H         1 RES1    0.0000
     35 O3        -2.4531    1.7032   10.6680 O.2       2 RES2    0.0000
     36 N3        -1.5650    1.0241   10.0491 N.3       2 RES2    0.0000
     37 O4         1.4251    0.5248    8.4484 O.2       2 RES2   -1.0000
     38 N4         0.2553    0.4821    8.9387 N.pl3     2 RES2    1.0000
     39 C14       -0.3833    1.4829    9.6284 C.2       2 RES2    0.0000
     40 C15       -1.6936   -0.4578    9.8370 C.3       2 RES2    0.0000
     41 C16       -0.6733   -0.6597    8.7220 C.3       2 RES2    0.0000
     42 C17       -0.1661    3.5901   10.9335 C.ar      2 RES2    0.0000
     43 C18        0.3906    4.8405   11.1108 C.ar      2 RES2    0.0000
     44 C19        1.2800    5.3541   10.1766 C.ar      2 RES2    0.0000
     45 C20        1.5768    4.6345    9.0187 C.ar      2 RES2    0.0000
     46 C21        1.0249    3.3708    8.8460 C.ar      2 RES2    0.0000
     47 C22        0.1614    2.8298    9.7976 C.ar      2 RES2    0.0000
     48 H18       -0.8716    3.1698   11.6301 H         2 RES2    0.0000
     49 H19        0.1778    5.3988   12.0102 H         2 RES2    0.0000
     50 H20        1.7524    6.3366   10.3365 H         2 RES2    0.0000
     51 H21        2.2306    5.0344    8.2595 H         2 RES2    0.0000
     52 H22        1.2687    2.7689    7.9883 H         2 RES2    0.0000
     53 C23       -1.1648   -1.1175   11.1734 C.3       2 RES2    0.0000
     54 C24       -3.0868   -0.8810    9.6307 C.3       2 RES2    0.0000
     55 C25        0.0727   -1.9579    8.6107 C.3       2 RES2    0.0000
     56 C26       -1.3465   -0.3776    7.3392 C.3       2 RES2    0.0000
     57 H23       -0.1728   -0.8161   11.4353 H         2 RES2    0.0000
     58 H24       -1.2112   -2.1782   11.0262 H         2 RES2    0.0000
     59 H25       -1.8098   -0.8059   11.9650 H         2 RES2    0.0000
     60 H26       -3.5827   -0.2436    8.7961 H         2 RES2    0.0000
     61 H27       -3.1134   -1.9305    9.3247 H         2 RES2    0.0000
     62 H28       -3.7157   -0.7947   10.4513 H         2 RES2    0.0000
     63 H29        0.7257   -2.0300    7.8677 H         2 RES2    0.0000
     64 H30       -0.6453   -2.7872    8.5771 H         2 RES2    0.0000
     65 H31        0.7013   -2.0970    9.5090 H         2 RES2    0.0000
     66 H32       -1.8467    0.5511    7.2963 H         2 RES2    0.0000
     67 H33       -2.0216   -1.1886    7.0784 H         2 RES2    0.0000
     68 H34       -0.5417   -0.3075    6.5707 H         2 RES2    0.0000
@<TRIPOS>BOND
     1    1    2 1
     2    2    5 1
     3    3    4 1
     4    4    5 2
     5    5   13 1
     6    6    2 1
     7    7    4 1
     8    8    9 ar
     9    9   10 ar
    10   10   11 ar
    11   11   12 ar
    12   12   13 ar
    13   13    8 ar
    14   14    8 1
    15   15    9 1
    16   16   10 1
    17   17   11 1
    18   18   12 1
    19   19    6 1
    20   20    6 1
    21   21    7 1
    22   22    7 1
    23   23   19 1
    24   24   19 1
    25   25   19 1
    26   26   20 1
    27   27   20 1
    28   28   20 1
    29   29   21 1
    30   30   21 1
    31   31   21 1
    32   32   22 1
    33   33   22 1
    34   34   22 1
    35   35   36 1
    36   36   39 1
    37   37   38 1
    38   38   39 2
    39   39   47 1
    40   40   36 1
    41   41   38 1
    42   42   43 ar
    43   43   44 ar
    44   44   45 ar
    45   45   46 ar
    46   46   47 ar
    47   47   42 ar
    48   48   42 1
    49   49   43 1
    50   50   44 1
    51   51   45 1
    52   52   46 1
    53   53   40 1
    54   54   40 1
    55   55   41 1
    56   56   41 1
    57   57   53 1
    58   58   53 1
    59   59   53 1
    60   60   54 1
    61   61   54 1
    62   62   54 1
    63   63   55 1
    64   64   55 1
    65   65   55 1
    66   66   56 1
    67   67   56 1
    68   68   56 1
    69    6    7 1
    70   40   41 1
@<TRIPOS>SUBSTRUCTURE
     1 RES1 1
     2 RES2 35

@<TRIPOS>CRYSIN
  20.8710   10.1500   12.1300  90.0000 107.1500  90.0000  14 1

