# MOL2 file generated by ConQuest
# Please check atom types

@<TRIPOS>MOLECULE
MPIOXN
    44    46     2
SMALL
NO_CHARGES
****
Generated from CSD

@<TRIPOS>ATOM
      1 C1         5.5823   -6.9112    1.1499 C.ar      1 RES1    0.0000
      2 C2         5.1991   -0.8369    1.1680 C.3       1 RES1    0.0000
      3 C3         1.3772    6.9068   -4.4772 C.ar      2 RES2    0.0000
      4 C4         1.3693    8.1686   -5.0641 C.ar      2 RES2    0.0000
      5 C5         1.8585    8.3423   -6.3488 C.ar      2 RES2    0.0000
      6 C6         2.3184    7.2105   -7.0410 C.ar      2 RES2    0.0000
      7 C7         2.2925    5.9640   -6.4723 C.ar      2 RES2    0.0000
      8 C8         1.8119    5.7782   -5.1525 C.ar      2 RES2    0.0000
      9 C9         1.8055    4.4563   -4.5452 C.2       2 RES2    0.0000
     10 C10        1.5609    4.1329   -3.1744 C.2       2 RES2    0.0000
     11 C11        2.0139    3.2404   -5.1649 C.2       2 RES2    0.0000
     12 C12        5.5885   -8.1664    0.5483 C.ar      1 RES1    0.0000
     13 C13        1.8193    0.8227   -4.4421 C.3       2 RES2    0.0000
     14 C14        5.1803   -8.3292   -0.7704 C.ar      1 RES1    0.0000
     15 C15        4.7437   -7.2029   -1.4830 C.ar      1 RES1    0.0000
     16 C16        4.7215   -5.9683   -0.9007 C.ar      1 RES1    0.0000
     17 C17        5.1484   -5.7739    0.4373 C.ar      1 RES1    0.0000
     18 C18        5.1257   -4.4519    1.0411 C.2       1 RES1    0.0000
     19 C19        5.2647   -4.1591    2.4278 C.2       1 RES1    0.0000
     20 C20        5.0200   -3.2524    0.4180 C.2       1 RES1    0.0000
     21 H1         5.9118   -6.7407    2.0732 H         1 RES1    0.0000
     22 H2         2.5446    5.0255   -7.0353 H         2 RES2    0.0000
     23 H3         6.3558   -0.8740    1.3595 H         1 RES1    0.0000
     24 H4         4.3184   -0.4916    1.6427 H         1 RES1    0.0000
     25 H5         4.9869   -0.7757    0.2153 H         1 RES1    0.0000
     26 H6         5.1716   -2.8296   -0.5438 H         1 RES1    0.0000
     27 H7         2.7899    0.5353   -3.8519 H         2 RES2    0.0000
     28 H8         0.7817    0.6664   -4.1578 H         2 RES2    0.0000
     29 H9         2.0198    0.7975   -5.3360 H         2 RES2    0.0000
     30 H10        2.0842    3.0262   -6.2197 H         2 RES2    0.0000
     31 H11        5.7297   -9.1115    1.1782 H         1 RES1    0.0000
     32 H12        5.2813   -9.2972   -1.0649 H         1 RES1    0.0000
     33 H13        4.5240   -7.3744   -2.5151 H         1 RES1    0.0000
     34 H14        4.5743   -5.1566   -1.3028 H         1 RES1    0.0000
     35 H15        1.0262    6.6861   -3.5460 H         2 RES2    0.0000
     36 H16        1.0518    9.1770   -4.5203 H         2 RES2    0.0000
     37 H17        1.8525    9.3300   -6.7974 H         2 RES2    0.0000
     38 H18        2.6371    7.3635   -7.9417 H         2 RES2    0.0000
     39 N1         5.0193   -2.2418    1.2791 N.3       1 RES1    0.0000
     40 N2         1.9647    2.2276   -4.2869 N.3       2 RES2    0.0000
     41 O1         5.3820   -4.8114    3.4384 O.2       1 RES1    0.0000
     42 O2         5.2007   -2.7728    2.5649 O.3       1 RES1    0.0000
     43 O3         1.3345    4.8136   -2.1842 O.2       2 RES2    0.0000
     44 O4         1.6271    2.7651   -3.0317 O.3       2 RES2    0.0000
@<TRIPOS>BOND
     1    1   12 ar
     2    2   23 1
     3    3    4 ar
     4    4    5 ar
     5    5    6 ar
     6    6    7 ar
     7    7    8 ar
     8    8    3 ar
     9    9    8 1
    10   10    9 1
    11   11    9 2
    12   12   14 ar
    13   13   27 1
    14   14   15 ar
    15   15   16 ar
    16   16   17 ar
    17   17    1 ar
    18   18   17 1
    19   19   18 1
    20   20   18 2
    21   21    1 1
    22   22    7 1
    23   24    2 1
    24   25    2 1
    25   26   20 1
    26   28   13 1
    27   29   13 1
    28   30   11 1
    29   31   12 1
    30   32   14 1
    31   33   15 1
    32   34   16 1
    33   35    3 1
    34   36    4 1
    35   37    5 1
    36   38    6 1
    37   39    2 1
    38   40   11 1
    39   41   19 2
    40   42   19 1
    41   43   10 2
    42   44   10 1
    43   13   40 1
    44   20   39 1
    45   39   42 1
    46   40   44 1
@<TRIPOS>SUBSTRUCTURE
     1 RES1 1
     2 RES2 3

@<TRIPOS>CRYSIN
  13.7160   10.9250   11.3330  90.0000  91.5100  90.0000  14 1

