# MOL2 file generated by ConQuest
# Please check atom types

@<TRIPOS>MOLECULE
MPIPXY07
    28    28     1
SMALL
NO_CHARGES
****
Generated from CSD

@<TRIPOS>ATOM
      1 O1         1.7874    8.0283    9.3904 O.2       1 RES1    0.0000
      2 O2        -1.9331   10.2206   12.6463 O.2       1 RES1    0.0000
      3 N1         0.9121    8.5376   10.1723 N.3       1 RES1    0.0000
      4 C1        -0.3629    7.7978   10.3869 C.3       1 RES1    0.0000
      5 C2        -1.4578    8.7976   10.7876 C.3       1 RES1    0.0000
      6 C3        -1.0881    9.7133   11.9287 C.2       1 RES1    0.0000
      7 C4         0.3847    9.9647   12.1275 C.3       1 RES1    0.0000
      8 C5         1.2382    9.8209   10.8570 C.3       1 RES1    0.0000
      9 C6        -0.7589    7.1161    9.0808 C.3       1 RES1    0.0000
     10 C7        -0.1334    6.7430   11.4787 C.3       1 RES1    0.0000
     11 C8         0.9657   10.9754    9.8819 C.3       1 RES1    0.0000
     12 C9         2.7150    9.8012   11.2529 C.3       1 RES1    0.0000
     13 H1        -1.6870    9.3464   10.0376 H         1 RES1    0.0000
     14 H2        -2.2634    8.3621   10.9903 H         1 RES1    0.0000
     15 H3         0.4944   10.8713   12.4391 H         1 RES1    0.0000
     16 H4         0.6959    9.3334   12.7801 H         1 RES1    0.0000
     17 H5        -0.8279    7.7708    8.3397 H         1 RES1    0.0000
     18 H6        -0.1406    6.4630    8.7981 H         1 RES1    0.0000
     19 H7        -1.5761    6.6271    9.1973 H         1 RES1    0.0000
     20 H8         0.5662    6.1373   11.1975 H         1 RES1    0.0000
     21 H9        -0.9130    6.1857   11.5722 H         1 RES1    0.0000
     22 H10        0.1234    7.1134   12.3349 H         1 RES1    0.0000
     23 H11        0.0031   10.9834    9.6313 H         1 RES1    0.0000
     24 H12        1.5011   10.9114    9.0963 H         1 RES1    0.0000
     25 H13        1.1637   11.8414   10.2898 H         1 RES1    0.0000
     26 H14        2.9460   10.6293   11.7223 H         1 RES1    0.0000
     27 H15        3.2608    9.6993   10.4399 H         1 RES1    0.0000
     28 H16        2.8648    9.0490   11.8142 H         1 RES1    0.0000
@<TRIPOS>BOND
     1    1    3 1
     2    2    6 2
     3    3    4 1
     4    4    5 1
     5    5    6 1
     6    6    7 1
     7    7    8 1
     8    8    3 1
     9    9    4 1
    10   10    4 1
    11   11    8 1
    12   12    8 1
    13   13    5 1
    14   14    5 1
    15   15    7 1
    16   16    7 1
    17   17    9 1
    18   18    9 1
    19   19    9 1
    20   20   10 1
    21   21   10 1
    22   22   10 1
    23   23   11 1
    24   24   11 1
    25   25   11 1
    26   26   12 1
    27   27   12 1
    28   28   12 1
@<TRIPOS>SUBSTRUCTURE
     1 RES1 1

@<TRIPOS>CRYSIN
   7.8102   11.8025   10.2102  90.0000  90.0000  90.0000  29 1

