# MOL2 file generated by ConQuest
# Please check atom types

@<TRIPOS>MOLECULE
MPIPXY05
    84    84     3
SMALL
NO_CHARGES
****
Generated from CSD

@<TRIPOS>ATOM
      1 O1        27.9624   -2.2722    1.9014 O.2       1 RES1    0.0000
      2 C1        27.3015   -1.3691    2.3906 C.2       1 RES1    0.0000
      3 C2        26.9811   -1.3098    3.8443 C.3       1 RES1    0.0000
      4 C3        26.5625    0.0478    4.3943 C.3       1 RES1    0.0000
      5 C4        27.7537    0.9958    4.5186 C.3       1 RES1    0.0000
      6 C5        25.8993   -0.1304    5.7513 C.3       1 RES1    0.0000
      7 N1        25.5658    0.6651    3.4657 N.3       1 RES1    0.0000
      8 O2        24.8820    1.6502    3.9217 O.2       1 RES1    0.0000
      9 C6        25.3902    0.2638    2.0451 C.3       1 RES1    0.0000
     10 C7        24.3086   -0.8110    1.9456 C.3       1 RES1    0.0000
     11 C8        24.9934    1.4869    1.2271 C.3       1 RES1    0.0000
     12 C9        26.7463   -0.2530    1.5421 C.3       1 RES1    0.0000
     13 H1        27.8511   -1.6759    4.4247 H         1 RES1    0.0000
     14 H2        26.2204   -2.0557    4.1013 H         1 RES1    0.0000
     15 H3        27.4604    0.5694    1.5228 H         1 RES1    0.0000
     16 H4        26.6653   -0.5927    0.5140 H         1 RES1    0.0000
     17 H5        27.4814    1.9755    4.8945 H         1 RES1    0.0000
     18 H6        28.2445    1.1400    3.5569 H         1 RES1    0.0000
     19 H7        28.4929    0.5610    5.2013 H         1 RES1    0.0000
     20 H8        25.5961    0.8266    6.1630 H         1 RES1    0.0000
     21 H9        25.0501   -0.8074    5.7070 H         1 RES1    0.0000
     22 H10       26.6081   -0.5879    6.4671 H         1 RES1    0.0000
     23 H11       24.5660   -1.6896    2.5122 H         1 RES1    0.0000
     24 H12       24.1579   -1.1143    0.9093 H         1 RES1    0.0000
     25 H13       23.3243   -0.4611    2.2856 H         1 RES1    0.0000
     26 H14       25.7644    2.2495    1.2713 H         1 RES1    0.0000
     27 H15       24.0323    1.8541    1.5560 H         1 RES1    0.0000
     28 H16       24.8654    1.2010    0.1824 H         1 RES1    0.0000
     29 O3        12.2974   -2.3523    1.7881 O.2       2 RES2    0.0000
     30 C10       13.1184   -1.4988    2.0866 C.2       2 RES2    0.0000
     31 C11       13.7876   -1.4976    3.4242 C.3       2 RES2    0.0000
     32 C12       14.2347   -0.1184    3.9189 C.3       2 RES2    0.0000
     33 C13       13.0245    0.7219    4.3141 C.3       2 RES2    0.0000
     34 C14       15.1700   -0.2973    5.1101 C.3       2 RES2    0.0000
     35 N2        14.9644    0.5766    2.8245 N.3       2 RES2    0.0000
     36 O4        15.7261    1.5598    3.1589 O.2       2 RES2    0.0000
     37 C15       14.8849    0.2069    1.3818 C.3       2 RES2    0.0000
     38 C16       15.0272    1.4600    0.5279 C.3       2 RES2    0.0000
     39 C17       16.0240   -0.7674    1.0723 C.3       2 RES2    0.0000
     40 C18       13.5114   -0.4187    1.1359 C.3       2 RES2    0.0000
     41 H17       13.1261   -1.9480    4.1732 H         2 RES2    0.0000
     42 H18       14.6535   -2.1627    3.4104 H         2 RES2    0.0000
     43 H19       12.7505    0.3517    1.1165 H         2 RES2    0.0000
     44 H20       13.4650   -0.8134    0.1133 H         2 RES2    0.0000
     45 H21       13.3152    1.6962    4.6596 H         2 RES2    0.0000
     46 H22       12.4777    0.2129    5.1211 H         2 RES2    0.0000
     47 H23       12.3497    0.8421    3.4795 H         2 RES2    0.0000
     48 H24       15.4890    0.6800    5.4776 H         2 RES2    0.0000
     49 H25       16.0404   -0.8888    4.8558 H         2 RES2    0.0000
     50 H26       14.6515   -0.8032    5.9392 H         2 RES2    0.0000
     51 H27       16.0049    1.9175    0.6965 H         2 RES2    0.0000
     52 H28       14.2330    2.1645    0.7296 H         2 RES2    0.0000
     53 H29       14.9788    1.2088   -0.5251 H         2 RES2    0.0000
     54 H30       15.9250   -1.6711    1.6665 H         2 RES2    0.0000
     55 H31       17.0012   -0.3331    1.2437 H         2 RES2    0.0000
     56 H32       15.9751   -1.0419    0.0221 H         2 RES2    0.0000
     57 O5         2.8528   -2.5252    2.3740 O.2       3 RES3    0.0000
     58 C19        2.7233   -1.6753    3.2363 C.2       3 RES3    0.0000
     59 C20        3.8135   -0.6992    3.5403 C.3       3 RES3    0.0000
     60 C21        3.7735   -0.1615    4.9747 C.3       3 RES3    0.0000
     61 C22        4.7722    0.9785    5.1239 C.3       3 RES3    0.0000
     62 C23        4.0763   -1.2578    5.9945 C.3       3 RES3    0.0000
     63 N3         2.4166    0.3714    5.2262 N.3       3 RES3    0.0000
     64 O6         2.2786    1.3613    6.0332 O.2       3 RES3    0.0000
     65 C24        1.1781   -0.1944    4.6181 C.3       3 RES3    0.0000
     66 C25        0.1069   -0.2895    5.6932 C.3       3 RES3    0.0000
     67 C26        0.7156    0.7357    3.4905 C.3       3 RES3    0.0000
     68 C27        1.4653   -1.5909    4.0461 C.3       3 RES3    0.0000
     69 H33        4.7880   -1.1681    3.3441 H         3 RES3    0.0000
     70 H34        3.7786    0.1370    2.8328 H         3 RES3    0.0000
     71 H35        1.5196   -2.3212    4.8724 H         3 RES3    0.0000
     72 H36        0.6057   -1.9229    3.4463 H         3 RES3    0.0000
     73 H37        4.7502    1.3601    6.1520 H         3 RES3    0.0000
     74 H38        4.5707    1.7602    4.4136 H         3 RES3    0.0000
     75 H39        5.7741    0.6005    4.9553 H         3 RES3    0.0000
     76 H40        3.3815   -2.0778    5.9198 H         3 RES3    0.0000
     77 H41        4.0541   -0.8977    7.0447 H         3 RES3    0.0000
     78 H42        5.0780   -1.6579    5.8480 H         3 RES3    0.0000
     79 H43        0.4428   -0.9558    6.5140 H         3 RES3    0.0000
     80 H44       -0.7872   -0.7177    5.2787 H         3 RES3    0.0000
     81 H45       -0.0773    0.6872    6.1161 H         3 RES3    0.0000
     82 H46        1.4404    0.8326    2.7029 H         3 RES3    0.0000
     83 H47        0.5037    1.7465    3.8664 H         3 RES3    0.0000
     84 H48       -0.2062    0.3415    3.0290 H         3 RES3    0.0000
@<TRIPOS>BOND
     1    1    2 2
     2    2    3 1
     3    3    4 1
     4    4    5 1
     5    5   17 1
     6    6    4 1
     7    7    4 1
     8    8    7 1
     9    9    7 1
    10   10    9 1
    11   11    9 1
    12   12    2 1
    13   13    3 1
    14   14    3 1
    15   15   12 1
    16   16   12 1
    17   18    5 1
    18   19    5 1
    19   20    6 1
    20   21    6 1
    21   22    6 1
    22   23   10 1
    23   24   10 1
    24   25   10 1
    25   26   11 1
    26   27   11 1
    27   28   11 1
    28   29   30 2
    29   30   31 1
    30   31   32 1
    31   32   33 1
    32   33   45 1
    33   34   32 1
    34   35   32 1
    35   36   35 1
    36   37   35 1
    37   38   37 1
    38   39   37 1
    39   40   30 1
    40   41   31 1
    41   42   31 1
    42   43   40 1
    43   44   40 1
    44   46   33 1
    45   47   33 1
    46   48   34 1
    47   49   34 1
    48   50   34 1
    49   51   38 1
    50   52   38 1
    51   53   38 1
    52   54   39 1
    53   55   39 1
    54   56   39 1
    55   57   58 2
    56   58   59 1
    57   59   60 1
    58   60   61 1
    59   61   73 1
    60   62   60 1
    61   63   60 1
    62   64   63 1
    63   65   63 1
    64   66   65 1
    65   67   65 1
    66   68   58 1
    67   69   59 1
    68   70   59 1
    69   71   68 1
    70   72   68 1
    71   74   61 1
    72   75   61 1
    73   76   62 1
    74   77   62 1
    75   78   62 1
    76   79   66 1
    77   80   66 1
    78   81   66 1
    79   82   67 1
    80   83   67 1
    81   84   67 1
    82    9   12 1
    83   37   40 1
    84   65   68 1
@<TRIPOS>SUBSTRUCTURE
     1 RES1 1
     2 RES2 29
     3 RES3 57

@<TRIPOS>CRYSIN
  35.5400    5.9810   28.0180  90.0000  99.4600  90.0000  15 1

