# MOL2 file generated by ConQuest
# Please check atom types

@<TRIPOS>MOLECULE
MPIPXY
    12    12     1
SMALL
NO_CHARGES
****
Generated from CSD

@<TRIPOS>ATOM
      1 C1         2.9219   -2.0776    4.9749 C.2       1 RES1    0.0000
      2 C2         2.5090   -3.0566    6.1027 C.3       1 RES1    0.0000
      3 C3         4.4226   -1.8865    4.7535 C.3       1 RES1    0.0000
      4 C4         3.5889   -3.9999    6.5137 C.3       1 RES1    0.0000
      5 C5         3.8588   -5.1223    5.4281 C.3       1 RES1    0.0000
      6 C6         3.1919   -4.7402    7.8418 C.3       1 RES1    0.0000
      7 C7         5.2007   -2.1014    6.0289 C.3       1 RES1    0.0000
      8 C8         6.7411   -2.0179    5.7021 C.3       1 RES1    0.0000
      9 C9         4.9307   -0.8716    6.9880 C.3       1 RES1    0.0000
     10 N1         4.8434   -3.3074    6.7667 N.3       1 RES1    0.0000
     11 O1         2.0644   -1.5761    4.2160 O.2       1 RES1    0.0000
     12 O2         5.7247   -3.8924    7.5256 O.2       1 RES1    0.0000
@<TRIPOS>BOND
     1    1    2 1
     2    2    4 1
     3    3    1 1
     4    4    5 1
     5    6    4 1
     6    7    3 1
     7    8    7 1
     8    9    7 1
     9   10    4 1
    10   11    1 2
    11   12   10 1
    12    7   10 1
@<TRIPOS>SUBSTRUCTURE
     1 RES1 1

@<TRIPOS>CRYSIN
   7.9400   11.9400   10.5400  90.0000  90.0000  90.0000  29 1

