# MOL2 file generated by ConQuest
# Please check atom types

@<TRIPOS>MOLECULE
MPNPZH
    59    61     1
SMALL
NO_CHARGES
****
Generated from CSD

@<TRIPOS>ATOM
      1 O1         4.0441    1.3594   -1.1812 O.2       1 RES1    0.0000
      2 O2         1.9527    1.3993   -0.6985 O.2       1 RES1    0.0000
      3 O3         3.7863    0.8953    5.1819 O.2       1 RES1    0.0000
      4 O4         1.7658    0.5440    4.7553 O.2       1 RES1    0.0000
      5 O5         5.5018   -3.2956    2.6904 O.2       1 RES1    0.0000
      6 O6         5.2291   -3.2721    0.5524 O.2       1 RES1    0.0000
      7 N1         2.5854    4.5551    2.5510 N.3       1 RES1    0.0000
      8 N2         0.2148    3.3837    2.3573 N.2       1 RES1    0.0000
      9 N3         3.1030    1.1103   -0.4606 N.pl3     1 RES1    0.0000
     10 N4         2.9165    0.5557    4.4460 N.pl3     1 RES1    0.0000
     11 N5         5.0956   -2.8033    1.6622 N.pl3     1 RES1    0.0000
     12 C1         3.3065    0.1034    3.0966 C.ar      1 RES1    0.0000
     13 C2         3.9822   -1.0974    3.0490 C.ar      1 RES1    0.0000
     14 C3         4.3597   -1.5215    1.7641 C.ar      1 RES1    0.0000
     15 C4         4.0788   -0.8060    0.6254 C.ar      1 RES1    0.0000
     16 C5         3.3807    0.3642    0.7818 C.ar      1 RES1    0.0000
     17 C6         2.9549    0.9047    2.0021 C.ar      1 RES1    0.0000
     18 C7         2.2887    2.2217    2.1652 C.2       1 RES1    0.0000
     19 C8         0.8409    2.2629    2.1686 C.2       1 RES1    0.0000
     20 C9         3.1048    3.3508    2.3573 C.2       1 RES1    0.0000
     21 C10       -1.2441    3.3814    2.5017 C.3       1 RES1    0.0000
     22 C11        3.3916    5.7688    2.7091 C.3       1 RES1    0.0000
     23 C12       -1.9107    4.6397    1.9698 C.ar      1 RES1    0.0000
     24 C13       -1.2224    5.7547    1.5551 C.ar      1 RES1    0.0000
     25 C14       -1.9155    6.8497    1.0486 C.ar      1 RES1    0.0000
     26 C15       -3.2840    6.8320    0.9755 C.ar      1 RES1    0.0000
     27 C16       -3.9825    5.7171    1.3970 C.ar      1 RES1    0.0000
     28 C17       -3.2873    4.6256    1.9052 C.ar      1 RES1    0.0000
     29 C18        2.4915    6.9871    2.7788 C.ar      1 RES1    0.0000
     30 C19        2.1585    7.5358    4.0041 C.ar      1 RES1    0.0000
     31 C20        1.3358    8.6285    4.0704 C.ar      1 RES1    0.0000
     32 C21        0.8299    9.1889    2.9300 C.ar      1 RES1    0.0000
     33 C22        1.1792    8.6755    1.7046 C.ar      1 RES1    0.0000
     34 C23        2.0190    7.5581    1.6129 C.ar      1 RES1    0.0000
     35 C24        4.6088    3.2204    2.3420 C.3       1 RES1    0.0000
     36 C25        0.1069    0.9669    1.9443 C.3       1 RES1    0.0000
     37 H1         1.5150    4.5234    2.7363 H         1 RES1    0.0000
     38 H2         3.9394    5.7453    3.6370 H         1 RES1    0.0000
     39 H3         4.1949    5.2871    2.1924 H         1 RES1    0.0000
     40 H4        -1.6014    2.5260    2.0564 H         1 RES1    0.0000
     41 H5        -1.5294    3.2310    3.3991 H         1 RES1    0.0000
     42 H6         2.5220    7.0846    4.8437 H         1 RES1    0.0000
     43 H7         1.0219    9.0467    4.8947 H         1 RES1    0.0000
     44 H8         0.1056   10.0101    2.9062 H         1 RES1    0.0000
     45 H9         0.8260    9.0232    0.7988 H         1 RES1    0.0000
     46 H10        2.2059    7.1904    0.6798 H         1 RES1    0.0000
     47 H11       -0.2313    5.7570    1.6316 H         1 RES1    0.0000
     48 H12       -1.3561    7.5899    0.6968 H         1 RES1    0.0000
     49 H13       -3.7599    7.5899    0.5948 H         1 RES1    0.0000
     50 H14       -5.0095    5.7100    1.3766 H         1 RES1    0.0000
     51 H15       -3.7811    3.8184    2.2264 H         1 RES1    0.0000
     52 H16        4.3767   -1.1044   -0.2889 H         1 RES1    0.0000
     53 H17        4.1910   -1.6919    3.8750 H         1 RES1    0.0000
     54 H18       -0.3623    0.7989    1.0707 H         1 RES1    0.0000
     55 H19        0.6916    0.2232    1.8185 H         1 RES1    0.0000
     56 H20       -0.4625    0.6579    2.5833 H         1 RES1    0.0000
     57 H21        5.0726    3.5012    3.1442 H         1 RES1    0.0000
     58 H22        5.0588    3.7597    1.5126 H         1 RES1    0.0000
     59 H23        4.8281    2.2793    2.3624 H         1 RES1    0.0000
@<TRIPOS>BOND
     1    1    9 2
     2    2    9 2
     3    3   10 2
     4    4   10 2
     5    5   11 2
     6    6   11 2
     7    7   20 1
     8    8   19 2
     9    9   16 1
    10   10   12 1
    11   11   14 1
    12   12   13 ar
    13   13   14 ar
    14   14   15 ar
    15   15   16 ar
    16   16   17 ar
    17   17   12 ar
    18   18   17 1
    19   19   18 1
    20   20   18 2
    21   21    8 1
    22   22    7 1
    23   23   21 1
    24   24   23 ar
    25   25   24 ar
    26   26   25 ar
    27   27   26 ar
    28   28   23 ar
    29   29   22 1
    30   30   29 ar
    31   31   30 ar
    32   32   31 ar
    33   33   32 ar
    34   34   29 ar
    35   35   20 1
    36   36   19 1
    37   37    7 1
    38   38   22 1
    39   39   22 1
    40   40   21 1
    41   41   21 1
    42   42   30 1
    43   43   31 1
    44   44   32 1
    45   45   33 1
    46   46   34 1
    47   47   24 1
    48   48   25 1
    49   49   26 1
    50   50   27 1
    51   51   28 1
    52   52   15 1
    53   53   13 1
    54   54   36 1
    55   55   36 1
    56   56   36 1
    57   57   35 1
    58   58   35 1
    59   59   35 1
    60   27   28 ar
    61   33   34 ar
@<TRIPOS>SUBSTRUCTURE
     1 RES1 1

@<TRIPOS>CRYSIN
  11.6720   11.7490   17.1180  90.0000  96.8600  90.0000  13 1

