# MOL2 file generated by ConQuest
# Please check atom types

@<TRIPOS>MOLECULE
MRPLNB
    61    63     2
SMALL
NO_CHARGES
****
Generated from CSD

@<TRIPOS>ATOM
      1 O1         0.0398    8.5469    4.8810 O.3       1 RES1    0.0000
      2 N1         0.9917    7.4966    4.8765 N.2       1 RES1    0.0000
      3 C1         1.8933    7.6395    3.9827 C.2       1 RES1    0.0000
      4 N2         2.7943    6.5906    3.8039 N.3       1 RES1    0.0000
      5 C2         2.5552    5.3694    4.5642 C.3       1 RES1    0.0000
      6 C3         3.4666    4.2705    4.0732 C.3       1 RES1    0.0000
      7 O2         4.8232    4.6741    4.2135 O.3       1 RES1    0.0000
      8 C4         5.0599    5.8114    3.4034 C.3       1 RES1    0.0000
      9 C5         4.2148    6.9795    3.8401 C.3       1 RES1    0.0000
     10 C6         2.0207    8.7974    3.0662 C.ar      1 RES1    0.0000
     11 C7         2.1470   10.0922    3.5165 C.ar      1 RES1    0.0000
     12 C8         2.2727   11.1455    2.6363 C.ar      1 RES1    0.0000
     13 C9         2.2604   10.8685    1.3012 C.ar      1 RES1    0.0000
     14 C10        2.1329    9.5899    0.8192 C.ar      1 RES1    0.0000
     15 C11        2.0102    8.5572    1.7062 C.ar      1 RES1    0.0000
     16 N3         2.3905   11.9822    0.3394 N.pl3     1 RES1    0.0000
     17 O3         2.2352   13.1106    0.7468 O.2       1 RES1    0.0000
     18 O4         2.6824   11.7126   -0.8079 O.2       1 RES1    0.0000
     19 O5        -0.0951    8.6854   15.7271 O.3       2 RES2    0.0000
     20 N4         0.8662    7.6395   15.6524 N.2       2 RES2    0.0000
     21 C12        1.7899    7.9164   14.8129 C.2       2 RES2    0.0000
     22 N5         2.7206    6.9309   14.5210 N.3       2 RES2    0.0000
     23 C13        2.5040    5.6007   15.0640 C.3       2 RES2    0.0000
     24 C14        3.3937    4.6329   14.3377 C.3       2 RES2    0.0000
     25 O6         4.7431    5.0100   14.3920 O.3       2 RES2    0.0000
     26 C15        4.9458    6.2901   13.8466 C.3       2 RES2    0.0000
     27 C16        4.1266    7.3213   14.5413 C.3       2 RES2    0.0000
     28 C17        1.9135    9.1936   14.0684 C.ar      2 RES2    0.0000
     29 C18        2.0472   10.4030   14.7246 C.ar      2 RES2    0.0000
     30 C19        2.1523   11.5800   14.0028 C.ar      2 RES2    0.0000
     31 C20        2.0927   11.5196   12.6428 C.ar      2 RES2    0.0000
     32 C21        1.9615   10.3367   11.9594 C.ar      2 RES2    0.0000
     33 C22        1.8747    9.1656   12.6835 C.ar      2 RES2    0.0000
     34 N6         2.1801   12.7674   11.8666 N.pl3     2 RES2    0.0000
     35 O7         2.0990   13.8236   12.4504 O.2       2 RES2    0.0000
     36 O8         2.3542   12.6849   10.6695 O.2       2 RES2    0.0000
     37 H1        -0.4366    8.2199    5.7025 H         1 RES1    0.0000
     38 H2         2.6105    5.4799    5.6120 H         1 RES1    0.0000
     39 H3         1.6582    5.1264    4.4126 H         1 RES1    0.0000
     40 H4         3.3653    3.4765    4.6389 H         1 RES1    0.0000
     41 H5         3.2710    4.1394    3.1002 H         1 RES1    0.0000
     42 H6         4.8554    5.6125    2.4439 H         1 RES1    0.0000
     43 H7         5.9554    6.0544    3.4848 H         1 RES1    0.0000
     44 H8         4.3289    7.7632    3.2359 H         1 RES1    0.0000
     45 H9         4.5170    7.2329    4.8878 H         1 RES1    0.0000
     46 H10        2.1403   10.2380    4.4126 H         1 RES1    0.0000
     47 H11        2.3812   12.0500    2.9644 H         1 RES1    0.0000
     48 H12        2.0607    9.4573   -0.0679 H         1 RES1    0.0000
     49 H13        1.9137    7.6601    1.4935 H         1 RES1    0.0000
     50 H14       -0.5801    8.3819   16.4512 H         2 RES2    0.0000
     51 H15        1.6338    5.3768   14.9351 H         2 RES2    0.0000
     52 H16        2.6676    5.5683   16.0212 H         2 RES2    0.0000
     53 H17        3.3364    3.8301   14.8898 H         2 RES2    0.0000
     54 H18        4.4814    6.3785   12.8758 H         2 RES2    0.0000
     55 H19        5.8663    6.4522   13.9168 H         2 RES2    0.0000
     56 H20        4.2284    8.2199   14.0752 H         2 RES2    0.0000
     57 H21        4.5482    7.2624   15.7044 H         2 RES2    0.0000
     58 H22        1.9556   10.4295   15.6366 H         2 RES2    0.0000
     59 H23        2.2529   12.3740   14.3920 H         2 RES2    0.0000
     60 H24        1.9358   10.3559   11.0203 H         2 RES2    0.0000
     61 H25        1.7917    8.3230   12.2875 H         2 RES2    0.0000
@<TRIPOS>BOND
     1    1    2 1
     2    2    3 2
     3    3    4 1
     4    4    5 1
     5    5    6 1
     6    6    7 1
     7    7    8 1
     8    8    9 1
     9    9    4 1
    10   10    3 1
    11   11   10 ar
    12   12   11 ar
    13   13   12 ar
    14   14   13 ar
    15   15   10 ar
    16   16   13 1
    17   17   16 2
    18   18   16 2
    19   19   20 1
    20   20   21 2
    21   21   22 1
    22   22   23 1
    23   23   24 1
    24   24   25 1
    25   25   26 1
    26   26   27 1
    27   27   22 1
    28   28   21 1
    29   29   28 ar
    30   30   29 ar
    31   31   30 ar
    32   32   31 ar
    33   33   28 ar
    34   34   31 1
    35   35   34 2
    36   36   34 2
    37   37    1 1
    38   38    5 1
    39   39    5 1
    40   40    6 1
    41   41    6 1
    42   42    8 1
    43   43    8 1
    44   44    9 1
    45   45    9 1
    46   46   11 1
    47   47   12 1
    48   48   14 1
    49   49   15 1
    50   50   19 1
    51   51   23 1
    52   52   23 1
    53   53   24 1
    54   54   26 1
    55   55   26 1
    56   56   27 1
    57   57   27 1
    58   58   29 1
    59   59   30 1
    60   60   32 1
    61   61   33 1
    62   14   15 ar
    63   32   33 ar
@<TRIPOS>SUBSTRUCTURE
     1 RES1 1
     2 RES2 19

@<TRIPOS>CRYSIN
   7.3050   14.7310   22.6300  90.0000  90.5700  90.0000 231 1

