# MOL2 file generated by ConQuest
# Please check atom types

@<TRIPOS>MOLECULE
MTNANL01
    25    25     1
SMALL
NO_CHARGES
****
Generated from CSD

@<TRIPOS>ATOM
      1 C1        10.2371    6.0958   -0.3068 C.ar      1 RES1    0.0000
      2 C2        10.4581    5.5764    0.9677 C.ar      1 RES1    0.0000
      3 C3         9.7280    4.5250    1.4973 C.ar      1 RES1    0.0000
      4 C4         8.6781    4.0533    0.7472 C.ar      1 RES1    0.0000
      5 C5         8.3441    4.5705   -0.4964 C.ar      1 RES1    0.0000
      6 C6         9.1528    5.5659   -1.0112 C.ar      1 RES1    0.0000
      7 N1        11.1579    7.0393   -0.8320 N.3       1 RES1    0.0000
      8 N2        11.4932    6.1656    1.8418 N.pl3     1 RES1    0.0000
      9 N3         7.8875    2.9204    1.2687 N.pl3     1 RES1    0.0000
     10 N4         8.8479    5.9816   -2.3972 N.pl3     1 RES1    0.0000
     11 N5        10.6642    8.2420   -1.2126 N.pl3     1 RES1    0.0000
     12 O1         9.5106    8.5064   -0.8859 O.2       1 RES1    0.0000
     13 O2        11.4164    8.9718   -1.8374 O.2       1 RES1    0.0000
     14 C7        12.5109    6.6807   -1.2451 C.3       1 RES1    0.0000
     15 O3        11.5651    7.3820    1.8927 O.2       1 RES1    0.0000
     16 O4        12.1707    5.3987    2.4938 O.2       1 RES1    0.0000
     17 O5         8.4279    2.1853    2.0712 O.2       1 RES1    0.0000
     18 O6         6.7580    2.7808    0.8571 O.2       1 RES1    0.0000
     19 O7         7.7286    5.7912   -2.7918 O.2       1 RES1    0.0000
     20 O8         9.7441    6.4649   -3.0669 O.2       1 RES1    0.0000
     21 H1         9.9132    4.1675    2.3161 H         1 RES1    0.0000
     22 H2         7.5983    4.2839   -1.0179 H         1 RES1    0.0000
     23 H3        13.0528    7.2667   -0.8851 H         1 RES1    0.0000
     24 H4        12.6736    5.8388   -0.9515 H         1 RES1    0.0000
     25 H5        12.5534    6.6955   -2.2718 H         1 RES1    0.0000
@<TRIPOS>BOND
     1    1    2 ar
     2    2    3 ar
     3    3    4 ar
     4    4    5 ar
     5    5    6 ar
     6    6    1 ar
     7    7    1 1
     8    8    2 1
     9    9    4 1
    10   10    6 1
    11   11    7 1
    12   12   11 2
    13   13   11 2
    14   14    7 1
    15   15    8 2
    16   16    8 2
    17   17    9 2
    18   18    9 2
    19   19   10 2
    20   20   10 2
    21   21    3 1
    22   22    5 1
    23   23   14 1
    24   24   14 1
    25   25   14 1
@<TRIPOS>SUBSTRUCTURE
     1 RES1 1

@<TRIPOS>CRYSIN
  14.1370   10.6210    7.3760  90.0000  90.0000  95.1900  14 3

