# MOL2 file generated by ConQuest
# Please check atom types

@<TRIPOS>MOLECULE
MTNANL
    25    25     1
SMALL
NO_CHARGES
****
Generated from CSD

@<TRIPOS>ATOM
      1 C1        -4.1164    0.3060    4.4825 C.ar      1 RES1    0.0000
      2 C2        -3.0337    1.0115    5.0122 C.ar      1 RES1    0.0000
      3 C3        -2.2242    0.4829    5.9963 C.ar      1 RES1    0.0000
      4 C4        -2.5494   -0.7370    6.5144 C.ar      1 RES1    0.0000
      5 C5        -3.6057   -1.4932    6.0563 C.ar      1 RES1    0.0000
      6 C6        -4.3373   -0.9605    4.9972 C.ar      1 RES1    0.0000
      7 C7        -6.3900    1.2408    3.9052 C.3       1 RES1    0.0000
      8 H1        -1.5532    0.9918    6.3276 H         1 RES1    0.0000
      9 H2        -3.7973   -2.5005    6.4429 H         1 RES1    0.0000
     10 H3        -6.3391    2.1820    4.2142 H         1 RES1    0.0000
     11 H4        -6.9012    1.0338    3.3187 H         1 RES1    0.0000
     12 H5        -6.6490    0.8613    4.8718 H         1 RES1    0.0000
     13 N1        -2.7318    2.4039    4.5928 N.pl3     1 RES1    0.0000
     14 N2        -1.7600   -1.2793    7.6534 N.pl3     1 RES1    0.0000
     15 N3        -5.3860   -1.8447    4.3977 N.pl3     1 RES1    0.0000
     16 N4        -5.0311    0.8333    3.5349 N.3       1 RES1    0.0000
     17 N5        -4.5462    1.2079    2.3349 N.pl3     1 RES1    0.0000
     18 O1        -3.6224    3.0708    4.1069 O.2       1 RES1    0.0000
     19 O2        -1.6101    2.7950    4.7745 O.2       1 RES1    0.0000
     20 O3        -0.6280   -0.8562    7.7856 O.2       1 RES1    0.0000
     21 O4        -2.3119   -2.0751    8.3881 O.2       1 RES1    0.0000
     22 O5        -6.0556   -2.4839    5.1863 O.2       1 RES1    0.0000
     23 O6        -5.4494   -1.8872    3.1871 O.2       1 RES1    0.0000
     24 O7        -5.3027    1.8471    1.6063 O.2       1 RES1    0.0000
     25 O8        -3.3875    0.8877    2.0643 O.2       1 RES1    0.0000
@<TRIPOS>BOND
     1    1    2 ar
     2    2    3 ar
     3    3    4 ar
     4    4    5 ar
     5    5    6 ar
     6    6    1 ar
     7    7   10 1
     8    8    3 1
     9    9    5 1
    10   11    7 1
    11   12    7 1
    12   13    2 1
    13   14    4 1
    14   15    6 1
    15   16    1 1
    16   17   16 1
    17   18   13 2
    18   19   13 2
    19   20   14 2
    20   21   14 2
    21   22   15 2
    22   23   15 2
    23   24   17 2
    24   25   17 2
    25    7   16 1
@<TRIPOS>SUBSTRUCTURE
     1 RES1 1

@<TRIPOS>CRYSIN
  14.1290    7.3740   10.6140  90.0000  95.0700  90.0000  14 1

