# MOL2 file generated by ConQuest
# Please check atom types

@<TRIPOS>MOLECULE
MUBHEX
    28    29     1
SMALL
NO_CHARGES
****
Generated from CSD

@<TRIPOS>ATOM
      1 N1         4.6787    0.2463   10.2917 N.am      1 RES1    0.0000
      2 H1         4.2296   -0.4752   10.5469 H         1 RES1    0.0000
      3 O1         5.7679    1.2185    8.5231 O.2       1 RES1    0.0000
      4 C1         5.0977    0.3026    8.9841 C.2       1 RES1    0.0000
      5 C2         4.6593   -0.8591    8.1460 C.ar      1 RES1    0.0000
      6 C3         4.6282   -0.6721    6.7618 C.ar      1 RES1    0.0000
      7 H2         4.8735    0.1678    6.3931 H         1 RES1    0.0000
      8 C4         4.2399   -1.7094    5.9216 C.ar      1 RES1    0.0000
      9 H3         4.2118   -1.5742    4.9825 H         1 RES1    0.0000
     10 C5         3.8922   -2.9453    6.4579 C.ar      1 RES1    0.0000
     11 H4         3.6283   -3.6540    5.8832 H         1 RES1    0.0000
     12 C6         3.9303   -3.1451    7.8336 C.ar      1 RES1    0.0000
     13 H5         3.6984   -3.9918    8.1965 H         1 RES1    0.0000
     14 C7         4.3080   -2.1050    8.6773 C.ar      1 RES1    0.0000
     15 H6         4.3278   -2.2410    9.6175 H         1 RES1    0.0000
     16 C8         4.9606    1.1365   11.3357 C.ar      1 RES1    0.0000
     17 C9         4.8378    0.7364   12.6829 C.ar      1 RES1    0.0000
     18 N2         4.4091   -0.6087   13.0618 N.pl3     1 RES1    0.0000
     19 O2         4.6298   -0.9922   14.2043 O.2       1 RES1    0.0000
     20 O3         3.8130   -1.3161   12.2305 O.2       1 RES1    0.0000
     21 C10        5.1089    1.6078   13.7347 C.ar      1 RES1    0.0000
     22 H7         5.0239    1.3106   14.6329 H         1 RES1    0.0000
     23 C11        5.5014    2.9038   13.4696 C.ar      1 RES1    0.0000
     24 H8         5.6838    3.5047   14.1825 H         1 RES1    0.0000
     25 C12        5.6276    3.3219   12.1507 C.ar      1 RES1    0.0000
     26 H9         5.8980    4.2139   11.9679 H         1 RES1    0.0000
     27 C13        5.3644    2.4570   11.0970 C.ar      1 RES1    0.0000
     28 H10        5.4594    2.7644   10.2035 H         1 RES1    0.0000
@<TRIPOS>BOND
     1    1    2 1
     2    3    4 2
     3    4    1 1
     4    5    4 1
     5    6    5 ar
     6    7    6 1
     7    8    6 ar
     8    9    8 1
     9   10    8 ar
    10   11   10 1
    11   12   10 ar
    12   13   12 1
    13   14    5 ar
    14   15   14 1
    15   16    1 1
    16   17   16 ar
    17   18   17 1
    18   19   18 2
    19   20   18 2
    20   21   17 ar
    21   22   21 1
    22   23   21 ar
    23   24   23 1
    24   25   23 ar
    25   26   25 1
    26   27   16 ar
    27   28   27 1
    28   12   14 ar
    29   25   27 ar
@<TRIPOS>SUBSTRUCTURE
     1 RES1 1

@<TRIPOS>CRYSIN
   7.2061    7.4253   20.6031  90.0000  93.5600  90.0000 231 1

