# MOL2 file generated by ConQuest
# Please check atom types

@<TRIPOS>MOLECULE
MUBQAC
    68    69     1
SMALL
NO_CHARGES
****
Generated from CSD

@<TRIPOS>ATOM
      1 O1         7.7080    3.1208   24.4223 O.3       1 RES1    0.0000
      2 O2         5.2018    1.5597   26.9460 O.3       1 RES1    0.0000
      3 H1         5.5584    1.9839   26.3416 H         1 RES1    0.0000
      4 N1         7.1446    2.3841   25.4834 N.2       1 RES1    0.0000
      5 C1         6.6717    3.8964   23.8004 C.3       1 RES1    0.0000
      6 H2         7.0775    4.5622   23.2239 H         1 RES1    0.0000
      7 H3         6.1715    4.3647   24.4864 H         1 RES1    0.0000
      8 C2         5.7123    3.0542   22.9808 C.3       1 RES1    0.0000
      9 H4         6.2209    2.5141   22.3552 H         1 RES1    0.0000
     10 H5         5.2342    2.4521   23.5730 H         1 RES1    0.0000
     11 C3         4.7112    3.8856   22.2123 C.3       1 RES1    0.0000
     12 H6         5.1929    4.4435   21.5799 H         1 RES1    0.0000
     13 H7         4.2562    4.4745   22.8342 H         1 RES1    0.0000
     14 C4         3.6693    3.0893   21.4536 C.3       1 RES1    0.0000
     15 H8         3.1917    2.5263   22.0832 H         1 RES1    0.0000
     16 H9         4.1221    2.5066   20.8248 H         1 RES1    0.0000
     17 C5         2.6612    3.9307   20.6941 C.3       1 RES1    0.0000
     18 H10        3.1391    4.5106   20.0819 H         1 RES1    0.0000
     19 H11        2.1888    4.4956   21.3241 H         1 RES1    0.0000
     20 C6         9.4450    1.5367   25.6722 C.3       1 RES1    0.0000
     21 H12        9.5429    0.8422   25.0182 H         1 RES1    0.0000
     22 H13        9.9885    1.3335   26.4390 H         1 RES1    0.0000
     23 H14        9.7243    2.3743   25.2942 H         1 RES1    0.0000
     24 C7         8.0049    1.6301   26.0907 C.2       1 RES1    0.0000
     25 C8         7.4987    0.8225   27.1989 C.ar      1 RES1    0.0000
     26 C9         6.1346    0.8057   27.5829 C.ar      1 RES1    0.0000
     27 C10        5.6960    0.0160   28.6201 C.ar      1 RES1    0.0000
     28 H15        4.7976    0.0267   28.8584 H         1 RES1    0.0000
     29 C11        6.5815   -0.7977   29.3151 C.ar      1 RES1    0.0000
     30 H16        6.2734   -1.3373   30.0072 H         1 RES1    0.0000
     31 C12        7.9118   -0.8028   28.9777 C.ar      1 RES1    0.0000
     32 H17        8.5079   -1.3415   29.4470 H         1 RES1    0.0000
     33 C13        8.3687   -0.0070   27.9402 C.ar      1 RES1    0.0000
     34 H18        9.2736   -0.0192   27.7258 H         1 RES1    0.0000
     35 O1F       -3.4114    3.9175   16.1719 O.3       1 RES1    0.0000
     36 O2F       -0.9051    5.4786   13.6482 O.3       1 RES1    0.0000
     37 H1F       -1.2618    5.0544   14.2526 H         1 RES1    0.0000
     38 N1F       -2.8479    4.6542   15.1108 N.2       1 RES1    0.0000
     39 C1F       -2.3750    3.1419   16.7938 C.3       1 RES1    0.0000
     40 H2F       -2.7808    2.4761   17.3702 H         1 RES1    0.0000
     41 H3F       -1.8748    2.6736   16.1078 H         1 RES1    0.0000
     42 C2F       -1.4157    3.9841   17.6134 C.3       1 RES1    0.0000
     43 H4F       -1.9243    4.5242   18.2390 H         1 RES1    0.0000
     44 H5F       -0.9375    4.5862   17.0211 H         1 RES1    0.0000
     45 C3F       -0.4146    3.1527   18.3818 C.3       1 RES1    0.0000
     46 H6F       -0.8962    2.5948   19.0143 H         1 RES1    0.0000
     47 H7F        0.0405    2.5638   17.7599 H         1 RES1    0.0000
     48 C4F        0.6274    3.9490   19.1406 C.3       1 RES1    0.0000
     49 H8F        1.1050    4.5120   18.5109 H         1 RES1    0.0000
     50 H9F        0.1745    4.5317   19.7694 H         1 RES1    0.0000
     51 C5F        1.6355    3.1076   19.9001 C.3       1 RES1    0.0000
     52 H10F       1.1575    2.5277   20.5122 H         1 RES1    0.0000
     53 H11F       2.1079    2.5427   19.2700 H         1 RES1    0.0000
     54 C6F       -5.1483    5.5016   14.9220 C.3       1 RES1    0.0000
     55 H12F      -5.2463    6.1961   15.5760 H         1 RES1    0.0000
     56 H13F      -5.6918    5.7048   14.1552 H         1 RES1    0.0000
     57 H14F      -5.4276    4.6640   15.2999 H         1 RES1    0.0000
     58 C7F       -3.7083    5.4082   14.5035 C.2       1 RES1    0.0000
     59 C8F       -3.2021    6.2158   13.3953 C.ar      1 RES1    0.0000
     60 C9F       -1.8380    6.2326   13.0112 C.ar      1 RES1    0.0000
     61 C10F      -1.3994    7.0223   11.9741 C.ar      1 RES1    0.0000
     62 H15F      -0.5009    7.0116   11.7358 H         1 RES1    0.0000
     63 C11F      -2.2848    7.8360   11.2791 C.ar      1 RES1    0.0000
     64 H16F      -1.9768    8.3756   10.5870 H         1 RES1    0.0000
     65 C12F      -3.6152    7.8411   11.6164 C.ar      1 RES1    0.0000
     66 H17F      -4.2112    8.3798   11.1472 H         1 RES1    0.0000
     67 C13F      -4.0720    7.0453   12.6540 C.ar      1 RES1    0.0000
     68 H18F      -4.9770    7.0575   12.8683 H         1 RES1    0.0000
@<TRIPOS>BOND
     1    1    4 1
     2    2    3 1
     3    4   24 2
     4    5    1 1
     5    6    5 1
     6    7    5 1
     7    8    5 1
     8    9    8 1
     9   10    8 1
    10   11    8 1
    11   12   11 1
    12   13   11 1
    13   14   11 1
    14   15   14 1
    15   16   14 1
    16   17   14 1
    17   18   17 1
    18   19   17 1
    19   20   21 1
    20   22   20 1
    21   23   20 1
    22   24   20 1
    23   25   24 1
    24   26    2 1
    25   27   26 ar
    26   28   27 1
    27   29   27 ar
    28   30   29 1
    29   31   29 ar
    30   32   31 1
    31   33   25 ar
    32   34   33 1
    33   35   38 1
    34   36   37 1
    35   38   58 2
    36   39   35 1
    37   40   39 1
    38   41   39 1
    39   42   39 1
    40   43   42 1
    41   44   42 1
    42   45   42 1
    43   46   45 1
    44   47   45 1
    45   48   45 1
    46   49   48 1
    47   50   48 1
    48   51   17 1
    49   52   51 1
    50   53   51 1
    51   54   55 1
    52   56   54 1
    53   57   54 1
    54   58   54 1
    55   59   58 1
    56   60   36 1
    57   61   60 ar
    58   62   61 1
    59   63   61 ar
    60   64   63 1
    61   65   63 ar
    62   66   65 1
    63   67   59 ar
    64   68   67 1
    65   25   26 ar
    66   31   33 ar
    67   48   51 1
    68   59   60 ar
    69   65   67 ar
@<TRIPOS>SUBSTRUCTURE
     1 RES1 1

@<TRIPOS>CRYSIN
  13.0031    4.6922   40.6540  90.0000  93.1090  90.0000  15 1

