# MOL2 file generated by ConQuest
# Please check atom types

@<TRIPOS>MOLECULE
MUBTEJ
    44    46     1
SMALL
NO_CHARGES
****
Generated from CSD

@<TRIPOS>ATOM
      1 N1        -0.6251    3.0042   -2.1868 N.pl3     1 RES1    0.0000
      2 O1        -1.6568    2.3600   -2.0382 O.2       1 RES1    0.0000
      3 O2        -0.4784    3.8620   -3.0606 O.2       1 RES1    0.0000
      4 C1         0.5078    2.7387   -1.2950 C.ar      1 RES1    0.0000
      5 C2         0.3845    1.7319   -0.3575 C.ar      1 RES1    0.0000
      6 H1        -0.4196    1.2594   -0.2589 H         1 RES1    0.0000
      7 C3         1.4714    1.4297    0.4359 C.ar      1 RES1    0.0000
      8 H2         1.3804    0.7294    1.0774 H         1 RES1    0.0000
      9 C4         2.6793    2.1259    0.3087 C.ar      1 RES1    0.0000
     10 C5         2.7467    3.1701   -0.6213 C.ar      1 RES1    0.0000
     11 H3         3.5296    3.6703   -0.7136 H         1 RES1    0.0000
     12 C6         1.6621    3.4769   -1.4294 C.ar      1 RES1    0.0000
     13 H4         1.7244    4.1853   -2.0569 H         1 RES1    0.0000
     14 C7         3.8599    1.7956    1.1145 C.2       1 RES1    0.0000
     15 H5         4.5762    2.4391    1.0145 H         1 RES1    0.0000
     16 C8         3.9919    0.7259    1.8999 C.2       1 RES1    0.0000
     17 H6         3.2859    0.0964    1.9730 H         1 RES1    0.0000
     18 C9         5.1651    0.3841    2.7060 C.ar      1 RES1    0.0000
     19 C10        6.3101    1.1846    2.7793 C.ar      1 RES1    0.0000
     20 H7         6.3685    1.9971    2.3298 H         1 RES1    0.0000
     21 C11        5.1597   -0.8093    3.4414 C.ar      1 RES1    0.0000
     22 H8         4.3774   -1.3741    3.3722 H         1 RES1    0.0000
     23 N1B       13.1779   -3.0042    9.1832 N.pl3     1 RES1    0.0000
     24 O1B       14.2095   -2.3600    9.0346 O.2       1 RES1    0.0000
     25 O2B       13.0312   -3.8620   10.0569 O.2       1 RES1    0.0000
     26 C1B       12.0450   -2.7387    8.2913 C.ar      1 RES1    0.0000
     27 C2B       12.1683   -1.7319    7.3539 C.ar      1 RES1    0.0000
     28 H1B       12.9724   -1.2594    7.2552 H         1 RES1    0.0000
     29 C3B       11.0814   -1.4297    6.5605 C.ar      1 RES1    0.0000
     30 H2B       11.1723   -0.7294    5.9189 H         1 RES1    0.0000
     31 C4B        9.8735   -2.1259    6.6877 C.ar      1 RES1    0.0000
     32 C5B        9.8060   -3.1701    7.6176 C.ar      1 RES1    0.0000
     33 H3B        9.0232   -3.6703    7.7100 H         1 RES1    0.0000
     34 C6B       10.8907   -3.4769    8.4257 C.ar      1 RES1    0.0000
     35 H4B       10.8283   -4.1853    9.0533 H         1 RES1    0.0000
     36 C7B        8.6929   -1.7956    5.8818 C.2       1 RES1    0.0000
     37 H5B        7.9766   -2.4391    5.9819 H         1 RES1    0.0000
     38 C8B        8.5609   -0.7259    5.0965 C.2       1 RES1    0.0000
     39 H6B        9.2668   -0.0964    5.0234 H         1 RES1    0.0000
     40 C9B        7.3876   -0.3841    4.2904 C.ar      1 RES1    0.0000
     41 C10B       6.2427   -1.1846    4.2170 C.ar      1 RES1    0.0000
     42 H7B        6.1843   -1.9971    4.6666 H         1 RES1    0.0000
     43 C11B       7.3930    0.8093    3.5550 C.ar      1 RES1    0.0000
     44 H8B        8.1754    1.3741    3.6241 H         1 RES1    0.0000
@<TRIPOS>BOND
     1    1    2 2
     2    3    1 2
     3    4    1 1
     4    5    4 ar
     5    6    5 1
     6    7    5 ar
     7    8    7 1
     8    9    7 ar
     9   10    9 ar
    10   11   10 1
    11   12    4 ar
    12   13   12 1
    13   14    9 1
    14   15   14 1
    15   16   14 2
    16   17   16 1
    17   18   16 1
    18   19   18 ar
    19   20   19 1
    20   21   18 ar
    21   22   21 1
    22   23   24 2
    23   25   23 2
    24   26   23 1
    25   27   26 ar
    26   28   27 1
    27   29   27 ar
    28   30   29 1
    29   31   29 ar
    30   32   31 ar
    31   33   32 1
    32   34   26 ar
    33   35   34 1
    34   36   31 1
    35   37   36 1
    36   38   36 2
    37   39   38 1
    38   40   38 1
    39   41   21 ar
    40   42   41 1
    41   43   19 ar
    42   44   43 1
    43   10   12 ar
    44   32   34 ar
    45   40   41 ar
    46   40   43 ar
@<TRIPOS>SUBSTRUCTURE
     1 RES1 1

@<TRIPOS>CRYSIN
   7.4689   16.6150    7.3917  90.0000 108.8240  90.0000  14 1

