# MOL2 file generated by ConQuest
# Please check atom types

@<TRIPOS>MOLECULE
MUCCIX
    42    45     1
SMALL
NO_CHARGES
****
Generated from CSD

@<TRIPOS>ATOM
      1 O1         1.7515    3.1036   16.1398 O.3       1 RES1    0.0000
      2 O2         0.0753    4.9941   11.0650 O.2       1 RES1    0.0000
      3 O3        -1.2329    5.3306   12.6847 O.2       1 RES1    0.0000
      4 O4        -1.2535    0.1487   12.4810 O.2       1 RES1    0.0000
      5 N1        -1.8562    1.7449   14.5916 N.pl3     1 RES1    0.0000
      6 H1        -2.0940    0.9419   14.3212 H         1 RES1    0.0000
      7 N2        -0.6192    3.5222   14.8661 N.pl3     1 RES1    0.0000
      8 N3        -0.1683    4.9628   12.2307 N.pl3     1 RES1    0.0000
      9 C1        -2.5902    2.5220   15.5817 C.3       1 RES1    0.0000
     10 H2        -2.6925    2.0178   16.4265 H         1 RES1    0.0000
     11 H3        -3.4859    2.7747   15.2440 H         1 RES1    0.0000
     12 C2        -1.7167    3.7422   15.7775 C.3       1 RES1    0.0000
     13 H4        -2.2075    4.5713   15.5493 H         1 RES1    0.0000
     14 H5        -1.3956    3.8024   16.7125 H         1 RES1    0.0000
     15 C3        -0.7796    2.3940   14.1428 C.2       1 RES1    0.0000
     16 C4         0.4251    4.4974   14.6193 C.3       1 RES1    0.0000
     17 H6         0.0465    5.4109   14.7703 H         1 RES1    0.0000
     18 C5         0.8898    4.4031   13.1647 C.3       1 RES1    0.0000
     19 H7         1.7205    4.9505   13.0633 H         1 RES1    0.0000
     20 C6         1.2120    2.9689   12.7714 C.3       1 RES1    0.0000
     21 H8         1.4154    2.9327   11.8036 H         1 RES1    0.0000
     22 H9         2.0161    2.6678   13.2633 H         1 RES1    0.0000
     23 C7         0.0567    2.0318   13.0770 C.2       1 RES1    0.0000
     24 C8         1.6138    4.3182   15.5309 C.2       1 RES1    0.0000
     25 C9         2.9038    3.1770   16.8719 C.2       1 RES1    0.0000
     26 H10        3.2436    2.4737   17.4125 H         1 RES1    0.0000
     27 C10        3.4825    4.3632   16.7263 C.2       1 RES1    0.0000
     28 H11        4.2940    4.6555   17.1247 H         1 RES1    0.0000
     29 C11        2.6392    5.1089   15.8521 C.2       1 RES1    0.0000
     30 H12        2.7811    5.9992   15.5545 H         1 RES1    0.0000
     31 C12       -0.2428    0.8842   12.3096 C.2       1 RES1    0.0000
     32 C13        0.6869    0.5036   11.1878 C.ar      1 RES1    0.0000
     33 C14        2.0251    0.2063   11.4268 C.ar      1 RES1    0.0000
     34 H13        2.3815    0.3160   12.3001 H         1 RES1    0.0000
     35 C15        2.8428   -0.2472   10.4073 C.ar      1 RES1    0.0000
     36 H14        3.7471   -0.4725   10.5896 H         1 RES1    0.0000
     37 C16        2.3458   -0.3726    9.1264 C.ar      1 RES1    0.0000
     38 H15        2.9099   -0.6756    8.4246 H         1 RES1    0.0000
     39 C17        1.0300   -0.0560    8.8676 C.ar      1 RES1    0.0000
     40 H16        0.6928   -0.1204    7.9808 H         1 RES1    0.0000
     41 C18        0.1948    0.3566    9.8973 C.ar      1 RES1    0.0000
     42 H17       -0.7203    0.5402    9.7176 H         1 RES1    0.0000
@<TRIPOS>BOND
     1    1   24 1
     2    2    8 2
     3    3    8 2
     4    4   31 2
     5    5    6 1
     6    7   12 1
     7    8   18 1
     8    9    5 1
     9   10    9 1
    10   11    9 1
    11   12    9 1
    12   13   12 1
    13   14   12 1
    14   15    5 1
    15   16    7 1
    16   17   16 1
    17   18   16 1
    18   19   18 1
    19   20   18 1
    20   21   20 1
    21   22   20 1
    22   23   15 2
    23   24   16 1
    24   25    1 1
    25   26   25 1
    26   27   25 2
    27   28   27 1
    28   29   24 2
    29   30   29 1
    30   31   23 1
    31   32   31 1
    32   33   32 ar
    33   34   33 1
    34   35   33 ar
    35   36   35 1
    36   37   35 ar
    37   38   37 1
    38   39   37 ar
    39   40   39 1
    40   41   32 ar
    41   42   41 1
    42    7   15 1
    43   20   23 1
    44   27   29 1
    45   39   41 ar
@<TRIPOS>SUBSTRUCTURE
     1 RES1 1

@<TRIPOS>CRYSIN
  11.9800   15.0470   17.9320  90.0000 101.9400  90.0000  15 1

