# MOL2 file generated by ConQuest
# Please check atom types

@<TRIPOS>MOLECULE
MUCGUN
    34    35     1
SMALL
NO_CHARGES
****
Generated from CSD

@<TRIPOS>ATOM
      1 O1         1.7993   -0.1442    5.9131 O.2       1 RES1    0.0000
      2 O2         4.0045    1.3687   -0.4093 O.2       1 RES1    0.0000
      3 O3         5.7939    2.2861    0.3975 O.2       1 RES1    0.0000
      4 N1         3.8549    0.1847    6.7435 N.am      1 RES1    0.0000
      5 H1         4.6753    0.4138    6.6228 H         1 RES1    0.0000
      6 N2         4.7189    1.6936    0.5271 N.pl3     1 RES1    0.0000
      7 C1         2.9724    0.1738    5.7276 C.2       1 RES1    0.0000
      8 C2         3.5090    0.6024    4.4083 C.ar      1 RES1    0.0000
      9 C3         2.9129    0.0217    3.2746 C.ar      1 RES1    0.0000
     10 H2         2.2533   -0.6251    3.3821 H         1 RES1    0.0000
     11 C4         3.2894    0.3940    2.0186 C.ar      1 RES1    0.0000
     12 H3         2.8557    0.0464    1.2736 H         1 RES1    0.0000
     13 C5         4.3152    1.2877    1.8729 C.ar      1 RES1    0.0000
     14 C6         4.9026    1.8940    2.9889 C.ar      1 RES1    0.0000
     15 H4         5.5461    2.5547    2.8741 H         1 RES1    0.0000
     16 C7         4.5364    1.5208    4.2228 C.ar      1 RES1    0.0000
     17 H5         4.9734    1.8792    4.9619 H         1 RES1    0.0000
     18 O1B        5.4449    0.1442    8.8107 O.2       1 RES1    0.0000
     19 O2B        3.2397   -1.3687   15.1331 O.2       1 RES1    0.0000
     20 O3B        1.4503   -2.2861   14.3263 O.2       1 RES1    0.0000
     21 N1B        3.3894   -0.1847    7.9803 N.am      1 RES1    0.0000
     22 H1B        2.5689   -0.4138    8.1010 H         1 RES1    0.0000
     23 N2B        2.5253   -1.6936   14.1967 N.pl3     1 RES1    0.0000
     24 C1B        4.2718   -0.1738    8.9962 C.2       1 RES1    0.0000
     25 C2B        3.7352   -0.6024   10.3155 C.ar      1 RES1    0.0000
     26 C3B        4.3313   -0.0217   11.4492 C.ar      1 RES1    0.0000
     27 H2B        4.9909    0.6251   11.3417 H         1 RES1    0.0000
     28 C4B        3.9548   -0.3940   12.7052 C.ar      1 RES1    0.0000
     29 H3B        4.3885   -0.0464   13.4502 H         1 RES1    0.0000
     30 C5B        2.9291   -1.2877   12.8509 C.ar      1 RES1    0.0000
     31 C6B        2.3416   -1.8940   11.7349 C.ar      1 RES1    0.0000
     32 H4B        1.6981   -2.5547   11.8497 H         1 RES1    0.0000
     33 C7B        2.7078   -1.5207   10.5010 C.ar      1 RES1    0.0000
     34 H5B        2.2708   -1.8792    9.7619 H         1 RES1    0.0000
@<TRIPOS>BOND
     1    1    7 2
     2    2    6 2
     3    3    6 2
     4    4    5 1
     5    6   13 1
     6    7    4 1
     7    8    7 1
     8    9    8 ar
     9   10    9 1
    10   11    9 ar
    11   12   11 1
    12   13   11 ar
    13   14   13 ar
    14   15   14 1
    15   16    8 ar
    16   17   16 1
    17   18   24 2
    18   19   23 2
    19   20   23 2
    20   21    4 1
    21   22   21 1
    22   23   30 1
    23   24   21 1
    24   25   24 1
    25   26   25 ar
    26   27   26 1
    27   28   26 ar
    28   29   28 1
    29   30   28 ar
    30   31   30 ar
    31   32   31 1
    32   33   25 ar
    33   34   33 1
    34   14   16 ar
    35   31   33 ar
@<TRIPOS>SUBSTRUCTURE
     1 RES1 1

@<TRIPOS>CRYSIN
   4.7947    9.8750   14.9094  90.0000  99.0500  90.0000 231 1

