# MOL2 file generated by ConQuest
# Please check atom types

@<TRIPOS>MOLECULE
MUCGOI
   164   174     2
SMALL
NO_CHARGES
****
Generated from CSD

@<TRIPOS>ATOM
      1 O1         6.2913   11.6850    7.7644 O.3       1 RES1    0.0000
      2 O2         1.3335   15.3046    5.8579 O.2       1 RES1    0.0000
      3 O3         3.2046   15.1961    2.7375 O.3       1 RES1    0.0000
      4 H1         3.0265   14.9837    3.5093 H         1 RES1    0.0000
      5 N1         3.1568   13.9525    6.2790 N.am      1 RES1    0.0000
      6 N2         3.5964   14.0865    5.0199 N.2       1 RES1    0.0000
      7 N3         7.8034   12.6079    0.9512 N.pl3     1 RES1    0.0000
      8 N4         4.0770   15.7552    0.2221 N.pl3     1 RES1    0.0000
      9 N5         8.9824   15.4178    8.7282 N.3       1 RES1    0.0000
     10 N6         4.1074    7.5733    7.0081 N.3       1 RES1    0.0000
     11 C1         6.3235   13.0491    7.8713 C.ar      1 RES1    0.0000
     12 C2         5.2045   13.8395    7.6953 C.ar      1 RES1    0.0000
     13 C3         3.9236   11.7562    7.2323 C.ar      1 RES1    0.0000
     14 C4         3.8370   13.2615    7.4313 C.3       1 RES1    0.0000
     15 C5         4.6512   13.5021    4.5904 C.2       1 RES1    0.0000
     16 H2         5.1406   12.9359    5.1435 H         1 RES1    0.0000
     17 C6         5.0646   13.7451    3.2118 C.ar      1 RES1    0.0000
     18 C7         5.0959   11.0650    7.4439 C.ar      1 RES1    0.0000
     19 C8         5.1664    9.6942    7.3748 C.ar      1 RES1    0.0000
     20 H3         5.9809    9.2719    7.5235 H         1 RES1    0.0000
     21 C9         4.0329    8.9275    7.0856 C.ar      1 RES1    0.0000
     22 C10        7.5624   13.5634    8.1981 C.ar      1 RES1    0.0000
     23 H4         8.2843   12.9854    8.2966 H         1 RES1    0.0000
     24 C11        4.3300   14.6015    2.3654 C.ar      1 RES1    0.0000
     25 C12        2.8132   10.9871    6.9117 C.ar      1 RES1    0.0000
     26 H5         2.0085   11.4189    6.7399 H         1 RES1    0.0000
     27 C13        5.4171   15.2031    7.8524 C.ar      1 RES1    0.0000
     28 H6         4.6987   15.7812    7.7330 H         1 RES1    0.0000
     29 O4         8.4125   11.9072    1.7326 O.2       1 RES1    0.0000
     30 C14        2.8523    9.6187    6.8363 C.ar      1 RES1    0.0000
     31 H7         2.0790    9.1469    6.6184 H         1 RES1    0.0000
     32 C15        7.7506   14.9200    8.3783 C.ar      1 RES1    0.0000
     33 C16        1.8239   14.3963    8.0682 C.ar      1 RES1    0.0000
     34 C17        6.1975   13.1199    2.7194 C.ar      1 RES1    0.0000
     35 H8         6.6797   12.5442    3.2684 H         1 RES1    0.0000
     36 C18        1.9982   14.6487    6.6289 C.2       1 RES1    0.0000
     37 C19        6.6484   15.7387    8.1814 C.ar      1 RES1    0.0000
     38 H9         6.7391   16.6588    8.2715 H         1 RES1    0.0000
     39 C20        5.9419   14.1886    0.5845 C.ar      1 RES1    0.0000
     40 H10        6.2361   14.3278   -0.2849 H         1 RES1    0.0000
     41 C21        2.9430   13.2591    9.8700 C.ar      1 RES1    0.0000
     42 H11        3.6452   12.7401   10.1885 H         1 RES1    0.0000
     43 C22        6.6140   13.3417    1.4393 C.ar      1 RES1    0.0000
     44 C23        4.8297   14.8091    1.0643 C.ar      1 RES1    0.0000
     45 O5         8.0708   12.7070   -0.2347 O.2       1 RES1    0.0000
     46 C24        2.8512   13.6248    8.5417 C.ar      1 RES1    0.0000
     47 C25       10.1782   14.5520    8.6842 C.3       1 RES1    0.0000
     48 H12       10.0935   13.9197    7.9530 H         1 RES1    0.0000
     49 H13       10.9652   15.0946    8.5208 H         1 RES1    0.0000
     50 C26        5.5196    6.8419    7.8713 C.3       1 RES1    0.0000
     51 H14        5.9967    7.4388    8.4747 H         1 RES1    0.0000
     52 H15        5.3669    5.9690    8.2652 H         1 RES1    0.0000
     53 C27        2.9310    6.7050    6.9432 C.3       1 RES1    0.0000
     54 H16        2.1359    7.2548    6.8698 H         1 RES1    0.0000
     55 H17        2.8665    6.2002    7.7686 H         1 RES1    0.0000
     56 C28        9.1209   16.7956    9.2981 C.3       1 RES1    0.0000
     57 H18        8.2704   17.1212    9.6291 H         1 RES1    0.0000
     58 H19        9.7686   16.8098   10.0188 H         1 RES1    0.0000
     59 C29        5.9376    6.8301    6.7232 C.3       1 RES1    0.0000
     60 H20        6.8180    6.4479    6.7022 H         1 RES1    0.0000
     61 H21        5.9713    7.7290    6.3859 H         1 RES1    0.0000
     62 H22        5.3468    6.3063    6.1764 H         1 RES1    0.0000
     63 C30       10.3422   13.8253    9.9371 C.3       1 RES1    0.0000
     64 H23       11.1304   13.2780    9.8868 H         1 RES1    0.0000
     65 H24        9.5745   13.2685   10.0879 H         1 RES1    0.0000
     66 H25       10.4322   14.4505   10.6599 H         1 RES1    0.0000
     67 C31        0.8208   14.8540    8.9251 C.ar      1 RES1    0.0000
     68 H26        0.1309   15.3919    8.6088 H         1 RES1    0.0000
     69 O6         4.4421   16.8381    0.1152 O.2       1 RES1    0.0000
     70 C32        2.9759    5.7519    5.7888 C.3       1 RES1    0.0000
     71 H27        2.1876    5.2045    5.7950 H         1 RES1    0.0000
     72 H28        3.7541    5.1928    5.8642 H         1 RES1    0.0000
     73 H29        3.0158    6.2473    4.9675 H         1 RES1    0.0000
     74 C33        1.9202   13.7192   10.7102 C.ar      1 RES1    0.0000
     75 H30        1.9443   13.4950   11.6110 H         1 RES1    0.0000
     76 C34        0.8785   14.4930   10.2388 C.ar      1 RES1    0.0000
     77 H31        0.2100   14.7690   10.8233 H         1 RES1    0.0000
     78 O7         3.3544   15.4768   -0.4316 O.2       1 RES1    0.0000
     79 C35        9.5249   17.4893    8.3029 C.3       1 RES1    0.0000
     80 H32        9.6328   18.4047    8.5752 H         1 RES1    0.0000
     81 H33        8.8791   17.4421    7.5947 H         1 RES1    0.0000
     82 H34       10.3656   17.1472    7.9949 H         1 RES1    0.0000
     83 O8         0.3111   23.1612    5.6469 O.3       2 RES2    0.0000
     84 N7        -3.3442   21.0501    5.8097 N.am      2 RES2    0.0000
     85 C36       -2.1029   23.1591    5.4012 C.ar      2 RES2    0.0000
     86 O9        -5.1205   19.7497    5.1120 O.2       2 RES2    0.0000
     87 N8        -3.8542   21.1221    7.0689 N.2       2 RES2    0.0000
     88 C37       -0.9063   23.8329    5.5457 C.ar      2 RES2    0.0000
     89 C38       -2.0903   21.6392    5.3090 C.3       2 RES2    0.0000
     90 C39       -3.2158   25.2985    5.3697 C.ar      2 RES2    0.0000
     91 H35       -4.0111   25.7774    5.3216 H         2 RES2    0.0000
     92 C40       -3.9256   21.7855    9.3253 C.ar      2 RES2    0.0000
     93 C41       -0.8455   25.2090    5.5876 C.ar      2 RES2    0.0000
     94 H36       -0.0202   25.6288    5.6756 H         2 RES2    0.0000
     95 N9        -1.9327   27.3576    5.5415 N.3       2 RES2    0.0000
     96 C42        1.4338   21.3939    6.6918 C.ar      2 RES2    0.0000
     97 H37        2.1813   21.9459    6.7232 H         2 RES2    0.0000
     98 C43       -0.8651   21.0921    6.0004 C.ar      2 RES2    0.0000
     99 C44       -2.1716   21.1721    3.8487 C.ar      2 RES2    0.0000
    100 C45       -2.0012   25.9826    5.5017 C.ar      2 RES2    0.0000
    101 O10       -5.7861   20.4360    8.5983 O.3       2 RES2    0.0000
    102 H38       -5.3478   20.4619    7.9069 H         2 RES2    0.0000
    103 N10        2.6186   19.6525    7.8860 N.pl3     2 RES2    0.0000
    104 C46       -3.2473   23.9301    5.3111 C.ar      2 RES2    0.0000
    105 H39       -4.0675   23.5054    5.2042 H         2 RES2    0.0000
    106 C47       -3.3297   22.4697   10.3687 C.ar      2 RES2    0.0000
    107 H40       -2.5164   22.9014   10.2388 H         2 RES2    0.0000
    108 C48        3.8126   20.5091    8.0138 C.3       2 RES2    0.0000
    109 H41        4.3330   20.2001    8.7701 H         2 RES2    0.0000
    110 H42        3.5214   21.4127    8.2128 H         2 RES2    0.0000
    111 C49        0.2689   21.8572    6.1177 C.ar      2 RES2    0.0000
    112 C50       -3.2834   21.7690    8.0179 C.2       2 RES2    0.0000
    113 H43       -2.4799   22.2149    7.8755 H         2 RES2    0.0000
    114 C51       -5.1498   21.1037    9.5495 C.ar      2 RES2    0.0000
    115 C52       -4.0676   20.3275    4.8711 C.2       2 RES2    0.0000
    116 C53       -3.9512   22.5122   11.6110 C.ar      2 RES2    0.0000
    117 C54       -5.1525   21.8869   11.8373 C.ar      2 RES2    0.0000
    118 H44       -5.5655   21.9389   12.6691 H         2 RES2    0.0000
    119 C55        1.5041   20.1010    7.2239 C.ar      2 RES2    0.0000
    120 C56       -3.3149   20.4266    3.6350 C.ar      2 RES2    0.0000
    121 C57        0.3370   19.3177    7.0898 C.ar      2 RES2    0.0000
    122 H45        0.3366   18.4471    7.4188 H         2 RES2    0.0000
    123 C58       -5.7230   21.1933   10.8212 C.ar      2 RES2    0.0000
    124 O11       -2.2023   23.6800   12.5392 O.2       2 RES2    0.0000
    125 N11       -3.3046   23.2294   12.7173 N.pl3     2 RES2    0.0000
    126 C59       -0.6683   28.0352    5.8705 C.3       2 RES2    0.0000
    127 H46        0.0417   27.6388    5.3404 H         2 RES2    0.0000
    128 H47       -0.7404   28.9671    5.6149 H         2 RES2    0.0000
    129 C60       -1.2875   21.4245    2.8305 C.ar      2 RES2    0.0000
    130 H48       -0.5247   21.9365    2.9709 H         2 RES2    0.0000
    131 N12       -7.0084   20.5115   11.0621 N.pl3     2 RES2    0.0000
    132 C61       -3.6016   19.9004    2.3884 C.ar      2 RES2    0.0000
    133 H49       -4.3766   19.4074    2.2459 H         2 RES2    0.0000
    134 O12       -7.1646   19.3885   10.7081 O.2       2 RES2    0.0000
    135 C62       -0.7852   19.7990    6.4906 C.ar      2 RES2    0.0000
    136 H50       -1.5247   19.2398    6.4068 H         2 RES2    0.0000
    137 O13       -3.9047   23.3072   13.7690 O.2       2 RES2    0.0000
    138 C63       -2.7188   20.1293    1.3786 C.ar      2 RES2    0.0000
    139 H51       -2.8854   19.7730    0.5363 H         2 RES2    0.0000
    140 C64        2.7971   18.2466    8.2296 C.3       2 RES2    0.0000
    141 H52        2.0696   17.7417    7.8315 H         2 RES2    0.0000
    142 H53        3.6212   17.9352    7.8210 H         2 RES2    0.0000
    143 C65       -1.5718   20.8890    1.5902 C.ar      2 RES2    0.0000
    144 H54       -0.9869   21.0376    0.8841 H         2 RES2    0.0000
    145 C66        2.8456   17.9305    9.6312 C.3       2 RES2    0.0000
    146 H55        2.9621   16.9844    9.7422 H         2 RES2    0.0000
    147 H56        2.0254   18.2041   10.0481 H         2 RES2    0.0000
    148 H57        3.5810   18.3952   10.0376 H         2 RES2    0.0000
    149 O14       -7.8292   21.1910   11.6844 O.2       2 RES2    0.0000
    150 C67       -0.2989   27.9644    7.2679 C.3       2 RES2    0.0000
    151 H58        0.5310   28.4245    7.4041 H         2 RES2    0.0000
    152 H59       -0.2022   27.0443    7.5277 H         2 RES2    0.0000
    153 H60       -0.9843   28.3749    7.8022 H         2 RES2    0.0000
    154 C68        4.7176   20.5610    6.8091 C.3       2 RES2    0.0000
    155 H61        5.4615   21.1414    6.9914 H         2 RES2    0.0000
    156 H62        4.2269   20.8984    6.0548 H         2 RES2    0.0000
    157 H63        5.0388   19.6787    6.6142 H         2 RES2    0.0000
    158 C69       -3.1036   28.1815    5.4263 C.3       2 RES2    0.0000
    159 H64       -3.7090   27.7686    4.7915 H         2 RES2    0.0000
    160 H65       -2.8401   29.0403    5.0618 H         2 RES2    0.0000
    161 C70       -3.8419   28.4150    6.6959 C.3       2 RES2    0.0000
    162 H66       -4.6041   28.9718    6.5241 H         2 RES2    0.0000
    163 H67       -3.2623   28.8492    7.3266 H         2 RES2    0.0000
    164 H68       -4.1339   27.5728    7.0563 H         2 RES2    0.0000
@<TRIPOS>BOND
     1    1   11 1
     2    2   36 2
     3    3    4 1
     4    5    6 1
     5    6   15 2
     6    7   29 2
     7    8   44 1
     8    9   32 1
     9   10   21 1
    10   11   12 ar
    11   12   14 1
    12   13   14 1
    13   14    5 1
    14   15   16 1
    15   17   15 1
    16   18    1 1
    17   19   18 ar
    18   20   19 1
    19   21   19 ar
    20   22   11 ar
    21   23   22 1
    22   24    3 1
    23   25   13 ar
    24   26   25 1
    25   27   12 ar
    26   28   27 1
    27   30   21 ar
    28   31   30 1
    29   32   22 ar
    30   33   36 1
    31   34   17 ar
    32   35   34 1
    33   36    5 1
    34   37   27 ar
    35   38   37 1
    36   39   40 1
    37   41   42 1
    38   43    7 1
    39   44   24 ar
    40   45    7 2
    41   46   14 1
    42   47    9 1
    43   48   47 1
    44   49   47 1
    45   50   10 1
    46   51   50 1
    47   52   50 1
    48   53   10 1
    49   54   53 1
    50   55   53 1
    51   56    9 1
    52   57   56 1
    53   58   56 1
    54   59   50 1
    55   60   59 1
    56   61   59 1
    57   62   59 1
    58   63   47 1
    59   64   63 1
    60   65   63 1
    61   66   63 1
    62   67   33 ar
    63   68   67 1
    64   69    8 2
    65   70   53 1
    66   71   70 1
    67   72   70 1
    68   73   70 1
    69   74   41 ar
    70   75   74 1
    71   76   67 ar
    72   77   76 1
    73   78    8 2
    74   79   56 1
    75   80   79 1
    76   81   79 1
    77   82   79 1
    78   83   88 1
    79   84   87 1
    80   85   88 ar
    81   86  115 2
    82   87  112 2
    83   88   93 ar
    84   89   84 1
    85   90   91 1
    86   92  106 ar
    87   93   94 1
    88   95  100 1
    89   96   97 1
    90   98   89 1
    91   99   89 1
    92  100   90 ar
    93  101  102 1
    94  103  108 1
    95  104   85 ar
    96  105  104 1
    97  106  107 1
    98  108  109 1
    99  110  108 1
   100  111   83 1
   101  112   92 1
   102  113  112 1
   103  114   92 ar
   104  115   84 1
   105  116  106 ar
   106  117  116 ar
   107  118  117 1
   108  119   96 ar
   109  120   99 ar
   110  121  119 ar
   111  122  121 1
   112  123  114 ar
   113  124  125 2
   114  125  116 1
   115  126   95 1
   116  127  126 1
   117  128  126 1
   118  129   99 ar
   119  130  129 1
   120  131  123 1
   121  132  120 ar
   122  133  132 1
   123  134  131 2
   124  135   98 ar
   125  136  135 1
   126  137  125 2
   127  138  132 ar
   128  139  138 1
   129  140  103 1
   130  141  140 1
   131  142  140 1
   132  143  129 ar
   133  144  143 1
   134  145  140 1
   135  146  145 1
   136  147  145 1
   137  148  145 1
   138  149  131 2
   139  150  126 1
   140  151  150 1
   141  152  150 1
   142  153  150 1
   143  154  108 1
   144  155  154 1
   145  156  154 1
   146  157  154 1
   147  158   95 1
   148  159  158 1
   149  160  158 1
   150  161  158 1
   151  162  161 1
   152  163  161 1
   153  164  161 1
   154   13   18 ar
   155   17   24 ar
   156   25   30 ar
   157   32   37 ar
   158   33   46 ar
   159   34   43 ar
   160   39   43 ar
   161   39   44 ar
   162   41   46 ar
   163   74   76 ar
   164   85   89 1
   165   90  104 ar
   166   93  100 ar
   167   96  111 ar
   168   98  111 ar
   169  101  114 1
   170  103  119 1
   171  115  120 1
   172  117  123 ar
   173  121  135 ar
   174  138  143 ar
@<TRIPOS>SUBSTRUCTURE
     1 RES1 1
     2 RES2 83

@<TRIPOS>CRYSIN
  13.2871   23.5927   23.2585  90.0000 115.7380  90.0000  14 1

