# MOL2 file generated by ConQuest
# Please check atom types

@<TRIPOS>MOLECULE
MUCJAW
    52    56     1
SMALL
NO_CHARGES
****
Generated from CSD

@<TRIPOS>ATOM
      1 N1         1.3791    7.7546    4.0579 N.pl3     1 RES1    0.0000
      2 H1         1.6027    6.9399    4.2196 H         1 RES1    0.0000
      3 N2        -1.7572    7.9236   -0.7202 N.pl3     1 RES1    0.0000
      4 O1         2.4877   11.8140    2.0304 O.2       1 RES1    0.0000
      5 O2        -1.4411    6.8888   -0.1991 O.2       1 RES1    0.0000
      6 O3        -2.3857    7.9838   -1.7414 O.2       1 RES1    0.0000
      7 C1         2.2466    8.5405    3.3751 C.2       1 RES1    0.0000
      8 C2         3.6414    8.0402    3.2433 C.3       1 RES1    0.0000
      9 H2         3.6137    7.0852    3.0696 H         1 RES1    0.0000
     10 H3         4.0998    8.1712    4.0878 H         1 RES1    0.0000
     11 C3         4.4510    8.7108    2.1397 C.3       1 RES1    0.0000
     12 C4         4.2357   10.2120    2.2296 C.3       1 RES1    0.0000
     13 H4         4.7365   10.5473    2.9902 H         1 RES1    0.0000
     14 H5         4.6069   10.6220    1.4345 H         1 RES1    0.0000
     15 C5         2.8032   10.6639    2.3718 C.2       1 RES1    0.0000
     16 C6         1.8391    9.7627    2.9348 C.2       1 RES1    0.0000
     17 C7         0.4182   10.2618    3.0996 C.3       1 RES1    0.0000
     18 H6         0.4614   11.1774    3.4454 H         1 RES1    0.0000
     19 C8        -0.3561    9.4274    4.1043 C.ar      1 RES1    0.0000
     20 C9        -1.6035    9.8832    4.6284 C.ar      1 RES1    0.0000
     21 C10       -2.1599   11.1355    4.2840 C.ar      1 RES1    0.0000
     22 H7        -1.6996   11.6987    3.7045 H         1 RES1    0.0000
     23 C11       -3.3703   11.5310    4.7931 C.ar      1 RES1    0.0000
     24 H8        -3.7119   12.3681    4.5775 H         1 RES1    0.0000
     25 C12       -4.0963   10.6809    5.6376 C.ar      1 RES1    0.0000
     26 H9        -4.9307   10.9416    5.9565 H         1 RES1    0.0000
     27 C13       -3.5804    9.4784    5.9895 C.ar      1 RES1    0.0000
     28 H10       -4.0612    8.9309    6.5690 H         1 RES1    0.0000
     29 C14       -2.3411    9.0383    5.5043 C.ar      1 RES1    0.0000
     30 C15       -1.7755    7.8044    5.8891 C.ar      1 RES1    0.0000
     31 H11       -2.2382    7.2621    6.4866 H         1 RES1    0.0000
     32 C16       -0.5769    7.3918    5.4130 C.ar      1 RES1    0.0000
     33 H12       -0.2247    6.5731    5.6780 H         1 RES1    0.0000
     34 C17        0.1309    8.2118    4.5116 C.ar      1 RES1    0.0000
     35 C18        5.9343    8.3794    2.3104 C.3       1 RES1    0.0000
     36 H13        6.2278    8.6676    3.1774 H         1 RES1    0.0000
     37 H14        6.4432    8.8313    1.6336 H         1 RES1    0.0000
     38 H15        6.0618    7.4324    2.2281 H         1 RES1    0.0000
     39 C19        4.0039    8.1882    0.7741 C.3       1 RES1    0.0000
     40 H16        4.1648    7.2437    0.7247 H         1 RES1    0.0000
     41 H17        4.4996    8.6336    0.0824 H         1 RES1    0.0000
     42 H18        3.0667    8.3598    0.6558 H         1 RES1    0.0000
     43 C20       -0.3327   10.3024    1.7609 C.ar      1 RES1    0.0000
     44 C21       -0.7044    9.1169    1.1365 C.ar      1 RES1    0.0000
     45 H19       -0.4756    8.2969    1.5108 H         1 RES1    0.0000
     46 C22       -1.4125    9.1693   -0.0374 C.ar      1 RES1    0.0000
     47 C23       -1.7950   10.3482   -0.6289 C.ar      1 RES1    0.0000
     48 H20       -2.2973   10.3521   -1.4105 H         1 RES1    0.0000
     49 C24       -1.4074   11.5297   -0.0240 C.ar      1 RES1    0.0000
     50 H21       -1.6430   12.3458   -0.4028 H         1 RES1    0.0000
     51 C25       -0.6686   11.4957    1.1515 C.ar      1 RES1    0.0000
     52 H22       -0.3925   12.2960    1.5378 H         1 RES1    0.0000
@<TRIPOS>BOND
     1    1    2 1
     2    3    5 2
     3    4   15 2
     4    6    3 2
     5    7    1 1
     6    8    7 1
     7    9    8 1
     8   10    8 1
     9   11    8 1
    10   12   11 1
    11   13   12 1
    12   14   12 1
    13   15   12 1
    14   16    7 2
    15   17   16 1
    16   18   17 1
    17   19   17 1
    18   20   19 ar
    19   21   20 ar
    20   22   21 1
    21   23   21 ar
    22   24   23 1
    23   25   23 ar
    24   26   25 1
    25   27   25 ar
    26   28   27 1
    27   29   20 ar
    28   30   29 ar
    29   31   30 1
    30   32   30 ar
    31   33   32 1
    32   34    1 1
    33   35   11 1
    34   36   35 1
    35   37   35 1
    36   38   35 1
    37   39   11 1
    38   40   39 1
    39   41   39 1
    40   42   39 1
    41   43   17 1
    42   44   43 ar
    43   45   44 1
    44   46    3 1
    45   47   46 ar
    46   48   47 1
    47   49   47 ar
    48   50   49 1
    49   51   43 ar
    50   52   51 1
    51   15   16 1
    52   19   34 ar
    53   27   29 ar
    54   32   34 ar
    55   44   46 ar
    56   49   51 ar
@<TRIPOS>SUBSTRUCTURE
     1 RES1 1

@<TRIPOS>CRYSIN
  10.2640   13.0990   15.0180  90.0000  94.4030  90.0000 231 1

