# MOL2 file generated by ConQuest
# Please check atom types

@<TRIPOS>MOLECULE
MUCTAH
    63    64     1
SMALL
NO_CHARGES
****
Generated from CSD

@<TRIPOS>ATOM
      1 N1         3.7014    8.4184    7.8298 N.3       1 RES1    0.0000
      2 N2         7.9496    8.8098    9.4698 N.3       1 RES1    0.0000
      3 O1         6.1072    6.3903   10.7214 O.2       1 RES1    0.0000
      4 O2         4.6605    8.8090    8.8600 O.3       1 RES1    0.0000
      5 O3         6.9315    8.6281    8.4312 O.3       1 RES1    0.0000
      6 C1         5.9113    7.5255   10.3753 C.2       1 RES1    0.0000
      7 H1         5.8337    8.1939   11.0459 H         1 RES1    0.0000
      8 C2         5.7805    7.9489    8.9145 C.3       1 RES1    0.0000
      9 H2         5.6082    7.1423    8.3491 H         1 RES1    0.0000
     10 C3         3.6925    9.5123    6.7987 C.3       1 RES1    0.0000
     11 C4         2.5555    9.1760    5.8155 C.3       1 RES1    0.0000
     12 H3         2.4660    9.9181    5.1665 H         1 RES1    0.0000
     13 H4         2.8026    8.3624    5.3086 H         1 RES1    0.0000
     14 C5         1.2090    8.9451    6.4840 C.3       1 RES1    0.0000
     15 H5         0.9119    9.7700    6.9454 H         1 RES1    0.0000
     16 H6         0.5295    8.7038    5.8060 H         1 RES1    0.0000
     17 C6         1.3690    7.8163    7.4858 C.3       1 RES1    0.0000
     18 H7         1.6169    6.9898    7.0013 H         1 RES1    0.0000
     19 H8         0.5001    7.6565    7.9309 H         1 RES1    0.0000
     20 C7         2.4346    8.1074    8.5584 C.3       1 RES1    0.0000
     21 C8         3.5384   10.9267    7.3559 C.3       1 RES1    0.0000
     22 H9         2.6115   11.0657    7.6420 H         1 RES1    0.0000
     23 H10        3.7681   11.5784    6.6611 H         1 RES1    0.0000
     24 H11        4.1377   11.0424    8.1231 H         1 RES1    0.0000
     25 C9         5.0138    9.4127    6.0304 C.3       1 RES1    0.0000
     26 H12        5.7515    9.6915    6.6122 H         1 RES1    0.0000
     27 H13        4.9797    9.9966    5.2445 H         1 RES1    0.0000
     28 H14        5.1563    8.4859    5.7431 H         1 RES1    0.0000
     29 C10        1.9520    9.1818    9.5377 C.3       1 RES1    0.0000
     30 H15        2.7131    9.5201   10.0534 H         1 RES1    0.0000
     31 H16        1.2903    8.7939   10.1478 H         1 RES1    0.0000
     32 H17        1.5422    9.9196    9.0388 H         1 RES1    0.0000
     33 C11        2.6789    6.8152    9.3391 C.3       1 RES1    0.0000
     34 H18        3.0916    6.1502    8.7487 H         1 RES1    0.0000
     35 H19        1.8253    6.4697    9.6736 H         1 RES1    0.0000
     36 H20        3.2761    6.9970   10.0942 H         1 RES1    0.0000
     37 C12        8.0744   10.2871    9.7107 C.3       1 RES1    0.0000
     38 C13        9.2428   10.4727   10.6954 C.3       1 RES1    0.0000
     39 H21        9.4023   11.4419   10.8223 H         1 RES1    0.0000
     40 H22        8.9838   10.0939   11.5725 H         1 RES1    0.0000
     41 C14       10.5365    9.8173   10.2413 C.3       1 RES1    0.0000
     42 H23       10.8561   10.2435    9.4069 H         1 RES1    0.0000
     43 H24       11.2334    9.9312   10.9353 H         1 RES1    0.0000
     44 C15       10.2811    8.3415   10.0015 C.3       1 RES1    0.0000
     45 H25       10.0416    7.9151   10.8619 H         1 RES1    0.0000
     46 H26       11.1171    7.9209    9.6783 H         1 RES1    0.0000
     47 C16        9.1602    8.0676    8.9817 C.3       1 RES1    0.0000
     48 C17        6.7948   10.7558   10.4049 C.3       1 RES1    0.0000
     49 H27        6.0327   10.6328    9.8018 H         1 RES1    0.0000
     50 H28        6.8778   11.7048   10.6370 H         1 RES1    0.0000
     51 H29        6.6545   10.2305   11.2207 H         1 RES1    0.0000
     52 C18        8.2583   11.1454    8.4514 C.3       1 RES1    0.0000
     53 H30        9.1552   10.9989    8.0847 H         1 RES1    0.0000
     54 H31        8.1505   12.0912    8.6823 H         1 RES1    0.0000
     55 H32        7.5859   10.8943    7.7841 H         1 RES1    0.0000
     56 C19        9.6123    8.4252    7.5500 C.3       1 RES1    0.0000
     57 H33        8.8272    8.4961    6.9675 H         1 RES1    0.0000
     58 H34       10.2088    7.7248    7.2110 H         1 RES1    0.0000
     59 H35       10.0884    9.2819    7.5616 H         1 RES1    0.0000
     60 C20        8.8262    6.5787    9.0156 C.3       1 RES1    0.0000
     61 H36        8.5333    6.3303    9.9171 H         1 RES1    0.0000
     62 H37        9.6224    6.0601    8.7766 H         1 RES1    0.0000
     63 H38        8.1093    6.3899    8.3747 H         1 RES1    0.0000
@<TRIPOS>BOND
     1    1    4 1
     2    2    5 1
     3    3    6 2
     4    4    8 1
     5    5    8 1
     6    6    7 1
     7    8    6 1
     8    9    8 1
     9   10    1 1
    10   11   10 1
    11   12   11 1
    12   13   11 1
    13   14   11 1
    14   15   14 1
    15   16   14 1
    16   17   14 1
    17   18   17 1
    18   19   17 1
    19   20    1 1
    20   21   10 1
    21   22   21 1
    22   23   21 1
    23   24   21 1
    24   25   10 1
    25   26   25 1
    26   27   25 1
    27   28   25 1
    28   29   20 1
    29   30   29 1
    30   31   29 1
    31   32   29 1
    32   33   20 1
    33   34   33 1
    34   35   33 1
    35   36   33 1
    36   37    2 1
    37   38   37 1
    38   39   38 1
    39   40   38 1
    40   41   38 1
    41   42   41 1
    42   43   41 1
    43   44   41 1
    44   45   44 1
    45   46   44 1
    46   47    2 1
    47   48   37 1
    48   49   48 1
    49   50   48 1
    50   51   48 1
    51   52   37 1
    52   53   52 1
    53   54   52 1
    54   55   52 1
    55   56   47 1
    56   57   56 1
    57   58   56 1
    58   59   56 1
    59   60   47 1
    60   61   60 1
    61   62   60 1
    62   63   60 1
    63   17   20 1
    64   44   47 1
@<TRIPOS>SUBSTRUCTURE
     1 RES1 1

@<TRIPOS>CRYSIN
  12.2501   14.5257   12.0150  90.0000 104.1710  90.0000  14 1

