# MOL2 file generated by ConQuest
# Please check atom types

@<TRIPOS>MOLECULE
MUCTEL
    93    96     1
SMALL
NO_CHARGES
****
Generated from CSD

@<TRIPOS>ATOM
      1 N1         4.3435   -0.4994    2.5606 N.3       1 RES1    0.0000
      2 O1         0.9148    2.1923    5.2032 O.2       1 RES1    0.0000
      3 O2         0.0586    3.3299    3.4675 O.3       1 RES1    0.0000
      4 O3         2.6483    5.5987    2.4548 O.2       1 RES1    0.0000
      5 O4         1.0127    5.8139    3.9637 O.3       1 RES1    0.0000
      6 O5         5.4212    3.9271    7.0585 O.2       1 RES1    0.0000
      7 O6         6.5252    5.2331    5.6142 O.3       1 RES1    0.0000
      8 O7         4.3270    0.9623    2.5672 O.3       1 RES1    0.0000
      9 C1         2.2937    3.8130    4.0664 C.3       1 RES1    0.0000
     10 C2         3.0470    4.1047    5.4164 C.3       1 RES1    0.0000
     11 H1         3.0942    3.2385    5.9132 H         1 RES1    0.0000
     12 C3         4.4553    4.4025    4.9136 C.3       1 RES1    0.0000
     13 H2         4.4507    5.2559    4.3933 H         1 RES1    0.0000
     14 C4         4.7023    3.2300    3.9671 C.3       1 RES1    0.0000
     15 H3         4.9620    2.4209    4.4749 H         1 RES1    0.0000
     16 H4         5.4229    3.4472    3.3256 H         1 RES1    0.0000
     17 C5         3.3597    3.0023    3.2260 C.3       1 RES1    0.0000
     18 H5         3.4280    3.4216    2.3207 H         1 RES1    0.0000
     19 C6         1.0186    3.0224    4.3320 C.2       1 RES1    0.0000
     20 C7         2.0084    5.1512    3.3699 C.2       1 RES1    0.0000
     21 C8        -1.1865    2.5900    3.5834 C.3       1 RES1    0.0000
     22 H6        -1.6490    2.8191    4.4278 H         1 RES1    0.0000
     23 H7        -1.0136    1.6150    3.5705 H         1 RES1    0.0000
     24 C9        -2.0184    2.9915    2.4045 C.3       1 RES1    0.0000
     25 H8        -2.2581    3.9390    2.4808 H         1 RES1    0.0000
     26 H9        -2.8340    2.4486    2.3803 H         1 RES1    0.0000
     27 H10       -1.5068    2.8499    1.5796 H         1 RES1    0.0000
     28 C10        0.7725    7.1673    3.5005 C.3       1 RES1    0.0000
     29 H11        0.5376    7.1658    2.5374 H         1 RES1    0.0000
     30 H12        1.5824    7.7237    3.6270 H         1 RES1    0.0000
     31 C11       -0.3651    7.7066    4.3163 C.3       1 RES1    0.0000
     32 H13       -1.1639    7.1594    4.1640 H         1 RES1    0.0000
     33 H14       -0.5476    8.6318    4.0510 H         1 RES1    0.0000
     34 H15       -0.1271    7.6800    5.2663 H         1 RES1    0.0000
     35 C12        2.4447    5.1196    6.3613 C.ar      1 RES1    0.0000
     36 C13        2.8673    6.4408    6.3805 C.ar      1 RES1    0.0000
     37 H16        3.5521    6.7176    5.7813 H         1 RES1    0.0000
     38 C14        2.3176    7.3628    7.2472 C.ar      1 RES1    0.0000
     39 H17        2.6232    8.2624    7.2384 H         1 RES1    0.0000
     40 C15        1.3293    6.9838    8.1258 C.ar      1 RES1    0.0000
     41 H18        0.9440    7.6204    8.7175 H         1 RES1    0.0000
     42 C16        0.8986    5.6637    8.1400 C.ar      1 RES1    0.0000
     43 H19        0.2259    5.3922    8.7520 H         1 RES1    0.0000
     44 C17        1.4489    4.7375    7.2604 C.ar      1 RES1    0.0000
     45 H20        1.1437    3.8379    7.2729 H         1 RES1    0.0000
     46 C18        5.4898    4.4846    6.0024 C.2       1 RES1    0.0000
     47 C19        7.5782    5.4582    6.5946 C.3       1 RES1    0.0000
     48 H21        8.4435    5.5838    6.1299 H         1 RES1    0.0000
     49 H22        7.6568    4.6672    7.1850 H         1 RES1    0.0000
     50 C20        7.2726    6.6644    7.4142 C.3       1 RES1    0.0000
     51 H23        7.2090    7.4479    6.8302 H         1 RES1    0.0000
     52 H24        7.9876    6.8028    8.0706 H         1 RES1    0.0000
     53 H25        6.4214    6.5345    7.8822 H         1 RES1    0.0000
     54 C21        3.0586    1.5058    3.0389 C.3       1 RES1    0.0000
     55 H26        2.8501    1.1061    3.9317 H         1 RES1    0.0000
     56 C22        1.9165    1.2026    2.0930 C.ar      1 RES1    0.0000
     57 C23        1.1105    0.0926    2.3458 C.ar      1 RES1    0.0000
     58 H27        1.2637   -0.4269    3.1246 H         1 RES1    0.0000
     59 C24        0.0900   -0.2656    1.4800 C.ar      1 RES1    0.0000
     60 H28       -0.4458   -1.0263    1.6706 H         1 RES1    0.0000
     61 C25       -0.1505    0.4788    0.3439 C.ar      1 RES1    0.0000
     62 H29       -0.8411    0.2246   -0.2575 H         1 RES1    0.0000
     63 C26        0.6221    1.6003    0.0845 C.ar      1 RES1    0.0000
     64 H30        0.4528    2.1239   -0.6909 H         1 RES1    0.0000
     65 C27        1.6441    1.9597    0.9559 C.ar      1 RES1    0.0000
     66 H31        2.1643    2.7328    0.7725 H         1 RES1    0.0000
     67 C28        5.1191   -0.9702    3.7558 C.3       1 RES1    0.0000
     68 C29        5.2242   -2.5059    3.6349 C.3       1 RES1    0.0000
     69 H32        5.7759   -2.8489    4.3839 H         1 RES1    0.0000
     70 H33        4.3196   -2.8968    3.7244 H         1 RES1    0.0000
     71 C30        5.8284   -2.9692    2.3326 C.3       1 RES1    0.0000
     72 H34        6.7613   -2.6466    2.2579 H         1 RES1    0.0000
     73 H35        5.8384   -3.9592    2.2987 H         1 RES1    0.0000
     74 C31        5.0054   -2.4255    1.1927 C.3       1 RES1    0.0000
     75 H36        4.1017   -2.8265    1.2310 H         1 RES1    0.0000
     76 H37        5.4209   -2.7020    0.3392 H         1 RES1    0.0000
     77 C32        4.8706   -0.8935    1.2074 C.3       1 RES1    0.0000
     78 C33        6.5034   -0.3396    3.9693 C.3       1 RES1    0.0000
     79 H38        7.1395   -0.7250    3.3319 H         1 RES1    0.0000
     80 H39        6.8076   -0.5195    4.8832 H         1 RES1    0.0000
     81 H40        6.4466    0.6292    3.8280 H         1 RES1    0.0000
     82 C34        4.2923   -0.6909    5.0235 C.3       1 RES1    0.0000
     83 H41        4.2934    0.2715    5.2098 H         1 RES1    0.0000
     84 H42        4.6857   -1.1700    5.7813 H         1 RES1    0.0000
     85 H43        3.3715   -0.9965    4.8863 H         1 RES1    0.0000
     86 C35        6.1953   -0.2321    0.8027 C.3       1 RES1    0.0000
     87 H44        6.1471    0.7303    0.9798 H         1 RES1    0.0000
     88 H45        6.3568   -0.3822   -0.1539 H         1 RES1    0.0000
     89 H46        6.9277   -0.6239    1.3221 H         1 RES1    0.0000
     90 C36        3.8294   -0.5078    0.1649 C.3       1 RES1    0.0000
     91 H47        2.9611   -0.8847    0.4177 H         1 RES1    0.0000
     92 H48        4.0977   -0.8602   -0.7097 H         1 RES1    0.0000
     93 H49        3.7619    0.4684    0.1162 H         1 RES1    0.0000
@<TRIPOS>BOND
     1    1    8 1
     2    2   19 2
     3    3   19 1
     4    4   20 2
     5    5   20 1
     6    6   46 2
     7    7   46 1
     8    8   54 1
     9    9   10 1
    10   10   11 1
    11   12   10 1
    12   13   12 1
    13   14   12 1
    14   15   14 1
    15   16   14 1
    16   17    9 1
    17   18   17 1
    18   19    9 1
    19   20    9 1
    20   21    3 1
    21   22   21 1
    22   23   21 1
    23   24   21 1
    24   25   24 1
    25   26   24 1
    26   27   24 1
    27   28    5 1
    28   29   28 1
    29   30   28 1
    30   31   28 1
    31   32   31 1
    32   33   31 1
    33   34   31 1
    34   35   10 1
    35   36   35 ar
    36   37   36 1
    37   38   36 ar
    38   39   38 1
    39   40   38 ar
    40   41   40 1
    41   42   40 ar
    42   43   42 1
    43   44   35 ar
    44   45   44 1
    45   46   12 1
    46   47    7 1
    47   48   47 1
    48   49   47 1
    49   50   47 1
    50   51   50 1
    51   52   50 1
    52   53   50 1
    53   54   17 1
    54   55   54 1
    55   56   54 1
    56   57   56 ar
    57   58   57 1
    58   59   57 ar
    59   60   59 1
    60   61   59 ar
    61   62   61 1
    62   63   61 ar
    63   64   63 1
    64   65   56 ar
    65   66   65 1
    66   67    1 1
    67   68   67 1
    68   69   68 1
    69   70   68 1
    70   71   68 1
    71   72   71 1
    72   73   71 1
    73   74   71 1
    74   75   74 1
    75   76   74 1
    76   77    1 1
    77   78   67 1
    78   79   78 1
    79   80   78 1
    80   81   78 1
    81   82   67 1
    82   83   82 1
    83   84   82 1
    84   85   82 1
    85   86   77 1
    86   87   86 1
    87   88   86 1
    88   89   86 1
    89   90   77 1
    90   91   90 1
    91   92   90 1
    92   93   90 1
    93   14   17 1
    94   42   44 ar
    95   63   65 ar
    96   74   77 1
@<TRIPOS>SUBSTRUCTURE
     1 RES1 1

@<TRIPOS>CRYSIN
  10.0854   10.6460   31.4030  90.0000  90.0000  90.0000  19 1

