# MOL2 file generated by ConQuest
# Please check atom types

@<TRIPOS>MOLECULE
MUDDIZ
    93    98     1
SMALL
NO_CHARGES
****
Generated from CSD

@<TRIPOS>ATOM
      1 O1         4.6855   10.6882    5.7517 O.3       1 RES1    0.0000
      2 O2         5.3166    9.4394    4.0004 O.3       1 RES1    0.0000
      3 O3         7.5710   11.2929    5.0290 O.3       1 RES1    0.0000
      4 O4         5.6701   13.3499    7.2611 O.3       1 RES1    0.0000
      5 O5         7.5261   13.6934    8.4723 O.3       1 RES1    0.0000
      6 O6         7.3447   11.4833    1.4415 O.3       1 RES1    0.0000
      7 O7         9.3841   14.3691    4.5070 O.3       1 RES1    0.0000
      8 O8        11.0064   15.7709    3.7424 O.3       1 RES1    0.0000
      9 O9         8.0844   17.2418    2.0999 O.3       1 RES1    0.0000
     10 O10        9.5851   18.8545    1.6646 O.3       1 RES1    0.0000
     11 O11        8.6660    8.6685   -0.1350 O.2       1 RES1    0.0000
     12 O12        7.0642    8.8402    1.2193 O.3       1 RES1    0.0000
     13 O13       11.3729   13.4694    0.0846 O.2       1 RES1    0.0000
     14 N1         7.6982   11.9332    2.7731 N.3       1 RES1    0.0000
     15 N2         9.2878   13.6803    0.8726 N.am      1 RES1    0.0000
     16 C1         4.3087    9.5271    5.0020 C.3       1 RES1    0.0000
     17 C2         5.2690   11.6065    4.8488 C.3       1 RES1    0.0000
     18 H1         4.6275   12.2934    4.5707 H         1 RES1    0.0000
     19 C3         5.7449   10.7777    3.6699 C.3       1 RES1    0.0000
     20 H2         5.3774   11.0895    2.8154 H         1 RES1    0.0000
     21 C4         7.2297   10.8673    3.7202 C.3       1 RES1    0.0000
     22 H3         7.6430   10.0031    3.5107 H         1 RES1    0.0000
     23 C5         6.5331   12.2262    5.4151 C.3       1 RES1    0.0000
     24 H4         6.6949   13.0979    4.9979 H         1 RES1    0.0000
     25 C6         6.5864   12.3550    6.9125 C.3       1 RES1    0.0000
     26 H5         6.3573   11.5057    7.3417 H         1 RES1    0.0000
     27 C7         7.8815   12.8553    7.4042 C.3       1 RES1    0.0000
     28 H6         8.4453   12.1254    7.7045 H         1 RES1    0.0000
     29 H7         8.3480   13.3518    6.7130 H         1 RES1    0.0000
     30 C8         6.3143   14.2459    8.1620 C.3       1 RES1    0.0000
     31 C9         8.4359   10.7218    0.8767 C.3       1 RES1    0.0000
     32 H8         8.6660   11.1025    0.0040 H         1 RES1    0.0000
     33 C10        9.6019   10.9140    1.8097 C.3       1 RES1    0.0000
     34 H9        10.4004   11.1660    1.3180 H         1 RES1    0.0000
     35 H10        9.7824   10.1039    2.3115 H         1 RES1    0.0000
     36 C11        9.1522   12.0377    2.7327 C.3       1 RES1    0.0000
     37 H11        9.5094   11.8753    3.6296 H         1 RES1    0.0000
     38 C12        9.6421   13.4171    2.2370 C.3       1 RES1    0.0000
     39 H12       10.6211   13.4059    2.2793 H         1 RES1    0.0000
     40 C13        9.1681   14.5931    3.1036 C.3       1 RES1    0.0000
     41 H13        8.2134   14.7443    2.9464 H         1 RES1    0.0000
     42 C14        9.9180   15.8586    2.8275 C.3       1 RES1    0.0000
     43 H14       10.2593   15.8474    1.9085 H         1 RES1    0.0000
     44 C15       10.6221   14.9944    4.8831 C.3       1 RES1    0.0000
     45 C16        9.1138   17.1279    3.0592 C.3       1 RES1    0.0000
     46 H15        8.7408   17.1373    3.9641 H         1 RES1    0.0000
     47 C17        9.9432   18.4252    2.8013 C.3       1 RES1    0.0000
     48 H16        9.7618   19.0860    3.4865 H         1 RES1    0.0000
     49 H17       10.8932   18.2273    2.8033 H         1 RES1    0.0000
     50 C18        8.3845   18.3319    1.2112 C.3       1 RES1    0.0000
     51 C19        8.0582    9.2527    0.6852 C.2       1 RES1    0.0000
     52 C20        6.5023    7.5037    0.8323 C.3       1 RES1    0.0000
     53 H18        7.2064    6.9475    0.4917 H         1 RES1    0.0000
     54 H19        5.8318    7.6232    0.1572 H         1 RES1    0.0000
     55 H20        6.1096    7.0875    1.6042 H         1 RES1    0.0000
     56 C21       10.1788   13.6784   -0.1310 C.2       1 RES1    0.0000
     57 C22        9.6534   13.8912   -1.5074 C.3       1 RES1    0.0000
     58 H21       10.2780   14.4195   -2.0093 H         1 RES1    0.0000
     59 H22        8.8109   14.3504   -1.4611 H         1 RES1    0.0000
     60 H23        9.5318   13.0419   -1.9367 H         1 RES1    0.0000
     61 C23        2.9379    9.7119    4.4155 C.3       1 RES1    0.0000
     62 H24        2.9444   10.4660    3.8210 H         1 RES1    0.0000
     63 H25        2.3058    9.8650    5.1209 H         1 RES1    0.0000
     64 H26        2.6892    8.9223    3.9278 H         1 RES1    0.0000
     65 C24        4.4499    8.3120    5.9149 C.3       1 RES1    0.0000
     66 H27        3.9337    7.5840    5.5602 H         1 RES1    0.0000
     67 H28        4.1319    8.5322    6.7936 H         1 RES1    0.0000
     68 H29        5.3737    8.0544    5.9633 H         1 RES1    0.0000
     69 C25        6.4293   15.5861    7.4989 C.3       1 RES1    0.0000
     70 H30        7.0783   16.1181    7.9645 H         1 RES1    0.0000
     71 H31        5.5775   16.0285    7.5211 H         1 RES1    0.0000
     72 H32        6.7061   15.4685    6.5880 H         1 RES1    0.0000
     73 C26        5.5223   14.3392    9.4880 C.3       1 RES1    0.0000
     74 H33        5.2792   13.4582    9.7782 H         1 RES1    0.0000
     75 H34        4.7285   14.8619    9.3490 H         1 RES1    0.0000
     76 H35        6.0684   14.7592   10.1571 H         1 RES1    0.0000
     77 C27       10.3789   15.8288    6.0983 C.3       1 RES1    0.0000
     78 H36       11.1840   16.2973    6.3321 H         1 RES1    0.0000
     79 H37       10.1162   15.2613    6.8278 H         1 RES1    0.0000
     80 H38        9.6805   16.4615    5.9169 H         1 RES1    0.0000
     81 C28       11.7086   13.9416    5.0765 C.3       1 RES1    0.0000
     82 H39       11.8844   13.5049    4.2402 H         1 RES1    0.0000
     83 H40       11.4150   13.2921    5.7194 H         1 RES1    0.0000
     84 H41       12.5118   14.3635    5.3909 H         1 RES1    0.0000
     85 C29        8.6669   17.7775   -0.1572 C.3       1 RES1    0.0000
     86 H42        8.8146   18.4999   -0.7719 H         1 RES1    0.0000
     87 H43        7.9170   17.2549   -0.4534 H         1 RES1    0.0000
     88 H44        9.4495   17.2213   -0.1229 H         1 RES1    0.0000
     89 C30        7.2653   19.2782    1.2918 C.3       1 RES1    0.0000
     90 H45        7.1278   19.5340    2.2068 H         1 RES1    0.0000
     91 H46        6.4695   18.8620    0.9532 H         1 RES1    0.0000
     92 H47        7.4672   20.0566    0.7678 H         1 RES1    0.0000
     93 H48        8.4995   13.8128    0.7054 H         1 RES1    0.0000
@<TRIPOS>BOND
     1    1   16 1
     2    2   16 1
     3    3   21 1
     4    4   25 1
     5    5   27 1
     6    6   14 1
     7    7   40 1
     8    8   42 1
     9    9   45 1
    10   10   47 1
    11   11   51 2
    12   12   51 1
    13   13   56 2
    14   14   21 1
    15   15   38 1
    16   16   61 1
    17   17    1 1
    18   18   17 1
    19   19    2 1
    20   20   19 1
    21   21   19 1
    22   22   21 1
    23   23    3 1
    24   24   23 1
    25   25   23 1
    26   26   25 1
    27   27   25 1
    28   28   27 1
    29   29   27 1
    30   30    4 1
    31   31    6 1
    32   32   31 1
    33   33   31 1
    34   34   33 1
    35   35   33 1
    36   36   14 1
    37   37   36 1
    38   38   36 1
    39   39   38 1
    40   40   38 1
    41   41   40 1
    42   42   40 1
    43   43   42 1
    44   44    7 1
    45   45   42 1
    46   46   45 1
    47   47   45 1
    48   48   47 1
    49   49   47 1
    50   50    9 1
    51   51   31 1
    52   52   12 1
    53   53   52 1
    54   54   52 1
    55   55   52 1
    56   56   15 1
    57   57   56 1
    58   58   57 1
    59   59   57 1
    60   60   57 1
    61   61   62 1
    62   63   61 1
    63   64   61 1
    64   65   16 1
    65   66   65 1
    66   67   65 1
    67   68   65 1
    68   69   30 1
    69   70   69 1
    70   71   69 1
    71   72   69 1
    72   73   30 1
    73   74   73 1
    74   75   73 1
    75   76   73 1
    76   77   44 1
    77   78   77 1
    78   79   77 1
    79   80   77 1
    80   81   44 1
    81   82   81 1
    82   83   81 1
    83   84   81 1
    84   85   50 1
    85   86   85 1
    86   87   85 1
    87   88   85 1
    88   89   50 1
    89   90   89 1
    90   91   89 1
    91   92   89 1
    92   93   15 1
    93    5   30 1
    94    8   44 1
    95   10   50 1
    96   17   19 1
    97   17   23 1
    98   33   36 1
@<TRIPOS>SUBSTRUCTURE
     1 RES1 1

@<TRIPOS>CRYSIN
   9.3504   18.6660   20.1530  90.0000  90.0000  90.0000  19 1

