# MOL2 file generated by ConQuest
# Please check atom types

@<TRIPOS>MOLECULE
MUDHAU
    24    25     1
SMALL
NO_CHARGES
****
Generated from CSD

@<TRIPOS>ATOM
      1 O1         7.6460   -0.7529    9.2025 O.2       1 RES1    0.0000
      2 O2         9.1025    1.5074   10.2674 O.3       1 RES1    0.0000
      3 O3        10.6945   -0.0769   10.3545 O.2       1 RES1    0.0000
      4 O4         8.9659    4.4798    6.3944 O.2       1 RES1    0.0000
      5 O5         5.7871   -1.1724   10.3199 O.3       1 RES1    0.0000
      6 O6        10.7727    4.9009    5.3520 O.2       1 RES1    0.0000
      7 O7        14.1423   -0.0290    6.9630 O.2       1 RES1    0.0000
      8 O8        14.3439    1.6134    5.5880 O.2       1 RES1    0.0000
      9 N1        10.1201    4.2674    6.1678 N.pl3     1 RES1    0.0000
     10 N2        13.7768    1.0347    6.4872 N.pl3     1 RES1    0.0000
     11 C1         6.8969   -0.4534   10.0764 C.2       1 RES1    0.0000
     12 C2         8.4327    0.9793   11.4626 C.3       1 RES1    0.0000
     13 C3         7.0000    0.7056   11.0533 C.3       1 RES1    0.0000
     14 C4         8.5580    2.0517   12.5247 C.3       1 RES1    0.0000
     15 C5        10.1986    0.8970    9.8506 C.2       1 RES1    0.0000
     16 C6         6.0402    0.2673   12.1679 C.3       1 RES1    0.0000
     17 C7        10.7877    1.5660    8.6470 C.ar      1 RES1    0.0000
     18 C8         5.0105   -0.5373   11.3773 C.3       1 RES1    0.0000
     19 C9         5.3455    1.3493   12.9631 C.3       1 RES1    0.0000
     20 C10       10.1689    2.6314    8.0101 C.ar      1 RES1    0.0000
     21 C11       10.7912    3.1762    6.8890 C.ar      1 RES1    0.0000
     22 C12       11.9955    2.7110    6.3944 C.ar      1 RES1    0.0000
     23 C13       12.5549    1.6327    7.0426 C.ar      1 RES1    0.0000
     24 C14       11.9910    1.0525    8.1572 C.ar      1 RES1    0.0000
@<TRIPOS>BOND
     1    1   11 2
     2    2   12 1
     3    3   15 2
     4    4    9 2
     5    5   11 1
     6    6    9 2
     7    7   10 2
     8    8   10 2
     9    9   21 1
    10   10   23 1
    11   11   13 1
    12   12   13 1
    13   13   16 1
    14   14   12 1
    15   15    2 1
    16   16   18 1
    17   17   15 1
    18   18    5 1
    19   19   16 1
    20   20   17 ar
    21   21   20 ar
    22   22   21 ar
    23   23   22 ar
    24   24   17 ar
    25   23   24 ar
@<TRIPOS>SUBSTRUCTURE
     1 RES1 1

@<TRIPOS>CRYSIN
  14.9980    5.3779    9.5810  90.0000 102.1500  90.0000   4 1

