# MOL2 file generated by ConQuest
# Please check atom types

@<TRIPOS>MOLECULE
MUDPAE
    95    99     1
SMALL
NO_CHARGES
****
Generated from CSD

@<TRIPOS>ATOM
      1 N1        11.8775    2.1273    1.1729 N.3       1 RES1    0.0000
      2 O1        10.5847    2.6805    1.5853 O.3       1 RES1    0.0000
      3 O2         6.9615   -1.3689    2.4600 O.2       1 RES1    0.0000
      4 O3         4.8606   -0.7091    3.0340 O.3       1 RES1    0.0000
      5 O4         6.0445    3.8379    1.1183 O.2       1 RES1    0.0000
      6 O5         9.2481    2.9469    4.4054 O.2       1 RES1    0.0000
      7 C1         7.6463    2.9160    2.6382 C.3       1 RES1    0.0000
      8 C2         7.0586    1.6345    3.3394 C.3       1 RES1    0.0000
      9 C3         6.3073    0.9325    2.1855 C.3       1 RES1    0.0000
     10 C4         7.1854    1.1611    0.9567 C.3       1 RES1    0.0000
     11 C5         8.1999    2.2775    1.3084 C.3       1 RES1    0.0000
     12 C6         9.5921    1.6577    1.4178 C.3       1 RES1    0.0000
     13 C7        12.3242    2.9343    0.0048 C.3       1 RES1    0.0000
     14 C8        13.6789    2.3624   -0.4219 C.3       1 RES1    0.0000
     15 C9        14.6799    2.2963    0.7178 C.3       1 RES1    0.0000
     16 C10       14.0857    1.4677    1.8527 C.3       1 RES1    0.0000
     17 C11       12.7562    2.0406    2.3685 C.3       1 RES1    0.0000
     18 C12       12.1228    0.9989    3.3132 C.3       1 RES1    0.0000
     19 C13       12.9544    3.3320    3.1694 C.3       1 RES1    0.0000
     20 C14       11.3104    2.7062   -1.1076 C.3       1 RES1    0.0000
     21 C15       12.4126    4.4569    0.2603 C.3       1 RES1    0.0000
     22 C16        6.0870   -0.5184    2.5539 C.2       1 RES1    0.0000
     23 C17        4.4531   -2.0073    3.6472 C.3       1 RES1    0.0000
     24 C18        4.3991   -3.0622    2.5622 C.3       1 RES1    0.0000
     25 C19        3.0602   -1.6918    4.1511 C.3       1 RES1    0.0000
     26 C20        5.3749   -2.3606    4.7952 C.3       1 RES1    0.0000
     27 C21        6.2955    1.7295    4.6419 C.ar      1 RES1    0.0000
     28 C22        6.9416    1.3969    5.8421 C.ar      1 RES1    0.0000
     29 C23        6.2546    1.3775    7.0472 C.ar      1 RES1    0.0000
     30 C24        4.9091    1.6861    7.0769 C.ar      1 RES1    0.0000
     31 C25        4.2521    2.0163    5.9051 C.ar      1 RES1    0.0000
     32 C26        4.9362    2.0394    4.6965 C.ar      1 RES1    0.0000
     33 C27        6.4859    3.8888    2.2686 C.2       1 RES1    0.0000
     34 C28        5.8368    4.8151    3.2503 C.ar      1 RES1    0.0000
     35 C29        6.2416    4.9784    4.5682 C.ar      1 RES1    0.0000
     36 C30        5.5606    5.8243    5.4250 C.ar      1 RES1    0.0000
     37 C31        4.4437    6.5083    4.9877 C.ar      1 RES1    0.0000
     38 C32        4.0243    6.3464    3.6650 C.ar      1 RES1    0.0000
     39 C33        4.7143    5.5235    2.8070 C.ar      1 RES1    0.0000
     40 C34        8.7513    3.5778    3.4701 C.2       1 RES1    0.0000
     41 C35        9.2495    4.9383    3.1469 C.ar      1 RES1    0.0000
     42 C36        9.9163    5.6387    4.1451 C.ar      1 RES1    0.0000
     43 C37       10.3943    6.9211    3.9181 C.ar      1 RES1    0.0000
     44 C38       10.2233    7.5133    2.6798 C.ar      1 RES1    0.0000
     45 C39        9.5662    6.8214    1.6804 C.ar      1 RES1    0.0000
     46 C40        9.0592    5.5499    1.9074 C.ar      1 RES1    0.0000
     47 H1         2.6656   -2.5015    4.5028 H         1 RES1    0.0000
     48 H2         3.1025   -1.0241    4.8498 H         1 RES1    0.0000
     49 H3         2.5111   -1.3646    3.4309 H         1 RES1    0.0000
     50 H4         4.9938   -3.0982    5.2955 H         1 RES1    0.0000
     51 H5         6.2446   -2.6246    4.4672 H         1 RES1    0.0000
     52 H6         5.4640   -1.5923    5.3787 H         1 RES1    0.0000
     53 H7         4.0993   -3.9066    2.9306 H         1 RES1    0.0000
     54 H8         5.2820   -3.1826    2.1629 H         1 RES1    0.0000
     55 H9         3.7790   -2.7741    1.8765 H         1 RES1    0.0000
     56 H10        5.4226    1.3823    2.0595 H         1 RES1    0.0000
     57 H11        7.8510    1.0605    3.5355 H         1 RES1    0.0000
     58 H12        6.9911    4.5020    4.8843 H         1 RES1    0.0000
     59 H13        5.8579    5.9512    6.3080 H         1 RES1    0.0000
     60 H14        3.9724    7.0595    5.5807 H         1 RES1    0.0000
     61 H15        3.2658    6.8031    3.3548 H         1 RES1    0.0000
     62 H16        4.4267    5.4322    1.9145 H         1 RES1    0.0000
     63 H17        8.2205    2.9673    0.6013 H         1 RES1    0.0000
     64 H18        7.6638    0.3391    0.7641 H         1 RES1    0.0000
     65 H19        6.6418    1.4201    0.1640 H         1 RES1    0.0000
     66 H20        9.6145    1.0344    2.1795 H         1 RES1    0.0000
     67 H21        9.7457    1.1456    0.5954 H         1 RES1    0.0000
     68 H22       14.0375    2.9148   -1.1420 H         1 RES1    0.0000
     69 H23       13.5356    1.4574   -0.7641 H         1 RES1    0.0000
     70 H24       15.5084    1.8842    0.4005 H         1 RES1    0.0000
     71 H25       14.8707    3.1892    1.0315 H         1 RES1    0.0000
     72 H26       14.7169    1.4563    2.6050 H         1 RES1    0.0000
     73 H27       13.9246    0.5580    1.5378 H         1 RES1    0.0000
     74 H28       12.7472    0.7965    4.0310 H         1 RES1    0.0000
     75 H29       11.9049    0.1927    2.8177 H         1 RES1    0.0000
     76 H30       11.3086    1.3682    3.6959 H         1 RES1    0.0000
     77 H31       13.3652    3.1142    4.0180 H         1 RES1    0.0000
     78 H32       13.5113    3.9518    2.6774 H         1 RES1    0.0000
     79 H33       12.0892    3.7336    3.3156 H         1 RES1    0.0000
     80 H34       11.6618    3.0588   -1.9371 H         1 RES1    0.0000
     81 H35       11.1753    1.7480   -1.2038 H         1 RES1    0.0000
     82 H36       10.4627    3.1255   -0.8972 H         1 RES1    0.0000
     83 H37       12.4414    4.9181   -0.5883 H         1 RES1    0.0000
     84 H38       13.2025    4.6859    0.7748 H         1 RES1    0.0000
     85 H39       11.6284    4.7698    0.7404 H         1 RES1    0.0000
     86 H40       10.0413    5.2336    4.9841 H         1 RES1    0.0000
     87 H41       10.8362    7.3982    4.6015 H         1 RES1    0.0000
     88 H42       10.5514    8.3894    2.5253 H         1 RES1    0.0000
     89 H43        9.4582    7.2181    0.8402 H         1 RES1    0.0000
     90 H44        8.6088    5.0946    1.2252 H         1 RES1    0.0000
     91 H45        4.4721    2.2585    3.9039 H         1 RES1    0.0000
     92 H46        3.3327    2.2214    5.9218 H         1 RES1    0.0000
     93 H47        4.4407    1.6746    7.8850 H         1 RES1    0.0000
     94 H48        6.7110    1.1569    7.8493 H         1 RES1    0.0000
     95 H49        7.8687    1.1908    5.8207 H         1 RES1    0.0000
@<TRIPOS>BOND
     1    1    2 1
     2    2   12 1
     3    3   22 2
     4    4   22 1
     5    5   33 2
     6    6   40 2
     7    7    8 1
     8    8    9 1
     9    9   10 1
    10   10   11 1
    11   11    7 1
    12   12   11 1
    13   13    1 1
    14   14   13 1
    15   15   14 1
    16   16   15 1
    17   17    1 1
    18   18   17 1
    19   19   17 1
    20   20   13 1
    21   21   13 1
    22   22    9 1
    23   23    4 1
    24   24   23 1
    25   25   23 1
    26   26   23 1
    27   27    8 1
    28   28   27 ar
    29   29   28 ar
    30   30   29 ar
    31   31   30 ar
    32   32   27 ar
    33   33    7 1
    34   34   33 1
    35   35   34 ar
    36   36   35 ar
    37   37   36 ar
    38   38   37 ar
    39   39   34 ar
    40   40    7 1
    41   41   40 1
    42   42   41 ar
    43   43   42 ar
    44   44   43 ar
    45   45   44 ar
    46   46   41 ar
    47   47   25 1
    48   48   25 1
    49   49   25 1
    50   50   26 1
    51   51   26 1
    52   52   26 1
    53   53   24 1
    54   54   24 1
    55   55   24 1
    56   56    9 1
    57   57    8 1
    58   58   35 1
    59   59   36 1
    60   60   37 1
    61   61   38 1
    62   62   39 1
    63   63   11 1
    64   64   10 1
    65   65   10 1
    66   66   12 1
    67   67   12 1
    68   68   14 1
    69   69   14 1
    70   70   15 1
    71   71   15 1
    72   72   16 1
    73   73   16 1
    74   74   18 1
    75   75   18 1
    76   76   18 1
    77   77   19 1
    78   78   19 1
    79   79   19 1
    80   80   20 1
    81   81   20 1
    82   82   20 1
    83   83   21 1
    84   84   21 1
    85   85   21 1
    86   86   42 1
    87   87   43 1
    88   88   44 1
    89   89   45 1
    90   90   46 1
    91   91   32 1
    92   92   31 1
    93   93   30 1
    94   94   29 1
    95   95   28 1
    96   16   17 1
    97   31   32 ar
    98   38   39 ar
    99   45   46 ar
@<TRIPOS>SUBSTRUCTURE
     1 RES1 1

@<TRIPOS>CRYSIN
  11.9691   12.3420   12.5636  88.7610  71.2310  78.7800   2 1

