# MOL2 file generated by ConQuest
# Please check atom types

@<TRIPOS>MOLECULE
MUDQAE
    47    48     1
SMALL
NO_CHARGES
****
Generated from CSD

@<TRIPOS>ATOM
      1 N1         8.4605    2.0996    8.6523 N.am      1 RES1    0.0000
      2 C1         9.1170    2.3841    7.3549 C.3       1 RES1    0.0000
      3 O1         8.1935    3.2538    6.7069 O.3       1 RES1    0.0000
      4 C2         7.5855    4.0404    7.7110 C.3       1 RES1    0.0000
      5 H1         6.7048    4.3757    7.4073 H         1 RES1    0.0000
      6 H2         8.1575    4.8138    7.9427 H         1 RES1    0.0000
      7 C3         7.4227    3.1130    8.9154 C.3       1 RES1    0.0000
      8 H3         7.6623    3.6145    9.7468 H         1 RES1    0.0000
      9 C4         6.0694    2.5405    9.0738 C.2       1 RES1    0.0000
     10 H4         5.9048    1.6229    8.8893 H         1 RES1    0.0000
     11 N2         5.1201    3.3132    9.4666 N.pl3     1 RES1    0.0000
     12 O2         5.3143    4.5950    9.6198 O.2       1 RES1    0.0000
     13 C5         3.7849    2.8319    9.7363 C.ar      1 RES1    0.0000
     14 C6         3.5793    1.5946   10.3215 C.ar      1 RES1    0.0000
     15 H5         4.3210    1.0365   10.5270 H         1 RES1    0.0000
     16 C7         2.2958    1.1727   10.6069 C.ar      1 RES1    0.0000
     17 H6         2.1451    0.3255   11.0101 H         1 RES1    0.0000
     18 C8         1.2306    1.9991   10.3005 C.ar      1 RES1    0.0000
     19 H7         0.3452    1.7181   10.5008 H         1 RES1    0.0000
     20 C9         1.4384    3.2192    9.7101 C.ar      1 RES1    0.0000
     21 H8         0.6998    3.7744    9.4902 H         1 RES1    0.0000
     22 C10        2.7245    3.6370    9.4378 C.ar      1 RES1    0.0000
     23 H9         2.8719    4.4877    9.0411 H         1 RES1    0.0000
     24 C11        9.0118    1.3562    9.6250 C.2       1 RES1    0.0000
     25 O3         9.9525    0.6146    9.4875 O.2       1 RES1    0.0000
     26 O4         8.3340    1.5565   10.7745 O.3       1 RES1    0.0000
     27 C12        8.7248    0.9396   12.0404 C.3       1 RES1    0.0000
     28 C13        7.7053    1.4797   13.0158 C.3       1 RES1    0.0000
     29 H10        6.8104    1.1814   12.7526 H         1 RES1    0.0000
     30 H11        7.7402    2.4597   13.0105 H         1 RES1    0.0000
     31 H12        7.9093    1.1502   13.9152 H         1 RES1    0.0000
     32 C14        8.5947   -0.5587   11.9265 C.3       1 RES1    0.0000
     33 H13        7.6756   -0.7889   11.6752 H         1 RES1    0.0000
     34 H14        8.8094   -0.9713   12.7893 H         1 RES1    0.0000
     35 H15        9.2132   -0.8888   11.2418 H         1 RES1    0.0000
     36 C15       10.1179    1.3741   12.4319 C.3       1 RES1    0.0000
     37 H16       10.7642    1.0192   11.7851 H         1 RES1    0.0000
     38 H17       10.3298    1.0313   13.3247 H         1 RES1    0.0000
     39 H18       10.1670    2.3529   12.4371 H         1 RES1    0.0000
     40 C16       10.4469    3.1009    7.5604 C.3       1 RES1    0.0000
     41 H19       10.3136    3.8765    8.1430 H         1 RES1    0.0000
     42 H20       10.7958    3.3992    6.6938 H         1 RES1    0.0000
     43 H21       11.0890    2.4868    7.9755 H         1 RES1    0.0000
     44 C17        9.2614    1.1687    6.4791 C.3       1 RES1    0.0000
     45 H22        8.3879    0.7393    6.3691 H         1 RES1    0.0000
     46 H23        9.8860    0.5385    6.8954 H         1 RES1    0.0000
     47 H24        9.6054    1.4382    5.6019 H         1 RES1    0.0000
@<TRIPOS>BOND
     1    1    2 1
     2    2    3 1
     3    3    4 1
     4    4    5 1
     5    6    4 1
     6    7    1 1
     7    8    7 1
     8    9    7 1
     9   10    9 1
    10   11    9 2
    11   12   11 1
    12   13   11 1
    13   14   13 ar
    14   15   14 1
    15   16   14 ar
    16   17   16 1
    17   18   16 ar
    18   19   18 1
    19   20   18 ar
    20   21   20 1
    21   22   13 ar
    22   23   22 1
    23   24    1 1
    24   25   24 2
    25   26   24 1
    26   27   26 1
    27   28   27 1
    28   29   28 1
    29   30   28 1
    30   31   28 1
    31   32   27 1
    32   33   32 1
    33   34   32 1
    34   35   32 1
    35   36   27 1
    36   37   36 1
    37   38   36 1
    38   39   36 1
    39   40    2 1
    40   41   40 1
    41   42   40 1
    42   43   40 1
    43   44    2 1
    44   45   44 1
    45   46   44 1
    46   47   44 1
    47    4    7 1
    48   20   22 ar
@<TRIPOS>SUBSTRUCTURE
     1 RES1 1

@<TRIPOS>CRYSIN
  23.3420    5.7712   17.3170  90.0000 130.8870  90.0000   5 1

