# MOL2 file generated by ConQuest
# Please check atom types

@<TRIPOS>MOLECULE
MUDVOX
    48    50     1
SMALL
NO_CHARGES
****
Generated from CSD

@<TRIPOS>ATOM
      1 C1        12.9336   13.5220    1.8983 C.ar      1 RES1    0.0000
      2 C2        14.1675   13.1278    2.3736 C.ar      1 RES1    0.0000
      3 H1        14.2523   12.3393    2.8598 H         1 RES1    0.0000
      4 C3        15.2765   13.9101    2.1227 C.ar      1 RES1    0.0000
      5 H2        16.1060   13.6516    2.4554 H         1 RES1    0.0000
      6 C4        15.1704   15.0582    1.3908 C.ar      1 RES1    0.0000
      7 H3        15.9268   15.5736    1.2251 H         1 RES1    0.0000
      8 C5        13.9371   15.4559    0.8944 C.ar      1 RES1    0.0000
      9 H4        13.8700   16.2251    0.3771 H         1 RES1    0.0000
     10 C6        12.8079   14.7077    1.1681 C.ar      1 RES1    0.0000
     11 O1        11.7718   12.8303    2.0608 O.3       1 RES1    0.0000
     12 C7        11.8016   11.5966    2.7796 C.3       1 RES1    0.0000
     13 H5        12.4125   10.9922    2.3524 H         1 RES1    0.0000
     14 H6        10.9232   11.2101    2.7886 H         1 RES1    0.0000
     15 H7        12.0900   11.7573    3.6813 H         1 RES1    0.0000
     16 N1        11.5261   14.9815    0.6516 N.pl3     1 RES1    0.0000
     17 H8        11.0207   14.2938    0.5559 H         1 RES1    0.0000
     18 C8        10.9640   16.1572    0.2810 C.ar      1 RES1    0.0000
     19 C9         9.7528   16.1901   -0.4704 C.ar      1 RES1    0.0000
     20 C10        9.1863   17.3891   -0.8264 C.ar      1 RES1    0.0000
     21 H9         8.3985   17.3891   -1.3216 H         1 RES1    0.0000
     22 C11       11.5191   17.3891    0.6321 C.ar      1 RES1    0.0000
     23 H10       12.3050   17.3891    1.1298 H         1 RES1    0.0000
     24 N2         9.0460   15.0051   -0.8883 N.pl3     1 RES1    0.0000
     25 O2         8.1559   15.1090   -1.7248 O.2       1 RES1    0.0000
     26 O3         9.3385   13.9180   -0.3865 O.2       1 RES1    0.0000
     27 C1G       12.9336   21.2561    1.8983 C.ar      1 RES1    0.0000
     28 C2G       14.1675   21.6503    2.3736 C.ar      1 RES1    0.0000
     29 H1G       14.2523   22.4388    2.8598 H         1 RES1    0.0000
     30 C3G       15.2765   20.8680    2.1227 C.ar      1 RES1    0.0000
     31 H2G       16.1060   21.1265    2.4554 H         1 RES1    0.0000
     32 C4G       15.1704   19.7199    1.3908 C.ar      1 RES1    0.0000
     33 H3G       15.9268   19.2045    1.2251 H         1 RES1    0.0000
     34 C5G       13.9371   19.3222    0.8944 C.ar      1 RES1    0.0000
     35 H4G       13.8700   18.5530    0.3771 H         1 RES1    0.0000
     36 C6G       12.8079   20.0704    1.1681 C.ar      1 RES1    0.0000
     37 O1G       11.7718   21.9478    2.0608 O.3       1 RES1    0.0000
     38 C7G       11.8016   23.1815    2.7796 C.3       1 RES1    0.0000
     39 H5G       12.4125   23.7859    2.3524 H         1 RES1    0.0000
     40 H6G       10.9232   23.5680    2.7886 H         1 RES1    0.0000
     41 H7G       12.0900   23.0208    3.6813 H         1 RES1    0.0000
     42 N1G       11.5261   19.7966    0.6516 N.pl3     1 RES1    0.0000
     43 H8G       11.0207   20.4843    0.5559 H         1 RES1    0.0000
     44 C8G       10.9640   18.6209    0.2810 C.ar      1 RES1    0.0000
     45 C9G        9.7528   18.5880   -0.4704 C.ar      1 RES1    0.0000
     46 N2G        9.0460   19.7730   -0.8883 N.pl3     1 RES1    0.0000
     47 O2G        8.1559   19.6691   -1.7248 O.2       1 RES1    0.0000
     48 O3G        9.3385   20.8601   -0.3865 O.2       1 RES1    0.0000
@<TRIPOS>BOND
     1    1    2 ar
     2    2    3 1
     3    4    2 ar
     4    5    4 1
     5    6    4 ar
     6    7    6 1
     7    8    6 ar
     8    9    8 1
     9   10    1 ar
    10   11    1 1
    11   12   11 1
    12   13   12 1
    13   14   12 1
    14   15   12 1
    15   16   10 1
    16   17   16 1
    17   18   16 1
    18   19   18 ar
    19   20   19 ar
    20   21   20 1
    21   22   18 ar
    22   23   22 1
    23   24   19 1
    24   25   24 2
    25   26   24 2
    26   27   28 ar
    27   28   29 1
    28   30   28 ar
    29   31   30 1
    30   32   30 ar
    31   33   32 1
    32   34   32 ar
    33   35   34 1
    34   36   27 ar
    35   37   27 1
    36   38   37 1
    37   39   38 1
    38   40   38 1
    39   41   38 1
    40   42   36 1
    41   43   42 1
    42   44   22 ar
    43   45   20 ar
    44   46   45 1
    45   47   46 2
    46   48   46 2
    47    8   10 ar
    48   34   36 ar
    49   42   44 1
    50   44   45 ar
@<TRIPOS>SUBSTRUCTURE
     1 RES1 1

@<TRIPOS>CRYSIN
  19.9110   23.1854    4.0727  90.0000  90.0000  90.0000  62 1

