# MOL2 file generated by ConQuest
# Please check atom types

@<TRIPOS>MOLECULE
MUDWIR
    41    41     1
SMALL
NO_CHARGES
****
Generated from CSD

@<TRIPOS>ATOM
      1 O1         8.5602    0.2277    4.6966 O.3       1 RES1    0.0000
      2 O2         8.2553    1.7783    2.9820 O.3       1 RES1    0.0000
      3 O3        10.2728   -1.1482    4.6975 O.2       1 RES1    0.0000
      4 O4         9.6915    2.0155    1.3491 O.2       1 RES1    0.0000
      5 O5        14.1147   -0.5857    2.3185 O.2       1 RES1    0.0000
      6 O6        14.6411    1.1583    1.1604 O.2       1 RES1    0.0000
      7 N1        13.8102    0.4839    1.7842 N.pl3     1 RES1    0.0000
      8 N2        12.2650    3.3768    1.7323 N.3       1 RES1    0.0000
      9 N3        12.2353    2.1304   -0.2050 N.3       1 RES1    0.0000
     10 C1        10.3421    0.6556    3.1608 C.2       1 RES1    0.0000
     11 C2         9.7800   -0.1572    4.2222 C.2       1 RES1    0.0000
     12 C3         8.1031    1.5462    4.3792 C.3       1 RES1    0.0000
     13 C4         9.4721    1.5331    2.4309 C.2       1 RES1    0.0000
     14 C5         6.6211    1.5614    4.6315 C.3       1 RES1    0.0000
     15 H1         6.4537    1.4123    5.5653 H         1 RES1    0.0000
     16 H2         6.2013    0.8688    4.1157 H         1 RES1    0.0000
     17 H3         6.2620    2.4134    4.3731 H         1 RES1    0.0000
     18 C6         8.8576    2.5706    5.1736 C.3       1 RES1    0.0000
     19 H4         8.6148    2.5008    6.0994 H         1 RES1    0.0000
     20 H5         8.6412    3.4488    4.8504 H         1 RES1    0.0000
     21 H6         9.8011    2.4185    5.0770 H         1 RES1    0.0000
     22 C7        11.6573    0.4038    2.8007 C.2       1 RES1    0.0000
     23 H7        12.0421   -0.3078    3.2593 H         1 RES1    0.0000
     24 C8        12.4979    0.9990    1.9025 C.2       1 RES1    0.0000
     25 C9        12.3087    2.2235    1.1078 C.2       1 RES1    0.0000
     26 C10       12.7165    3.5361    3.1089 C.3       1 RES1    0.0000
     27 H8        11.9557    3.5711    3.6931 H         1 RES1    0.0000
     28 H9        13.2181    4.3503    3.1896 H         1 RES1    0.0000
     29 H10       13.2718    2.7925    3.3524 H         1 RES1    0.0000
     30 C11       11.5890    4.5526    1.1865 C.3       1 RES1    0.0000
     31 H11       12.2433    5.1791    0.8689 H         1 RES1    0.0000
     32 H12       11.0590    4.9644    1.8720 H         1 RES1    0.0000
     33 H13       11.0211    4.2870    0.4597 H         1 RES1    0.0000
     34 C12       11.7770    0.9088   -0.8432 C.3       1 RES1    0.0000
     35 H14       12.5267    0.4475   -1.2275 H         1 RES1    0.0000
     36 H15       11.1472    1.1256   -1.5332 H         1 RES1    0.0000
     37 H16       11.3548    0.3456   -0.1914 H         1 RES1    0.0000
     38 C13       12.7330    3.1505   -1.1111 C.3       1 RES1    0.0000
     39 H17       11.9921    3.6234   -1.4980 H         1 RES1    0.0000
     40 H18       13.2463    2.7365   -1.8082 H         1 RES1    0.0000
     41 H19       13.2875    3.7653   -0.6269 H         1 RES1    0.0000
@<TRIPOS>BOND
     1    1   11 1
     2    2   12 1
     3    3   11 2
     4    4   13 2
     5    5    7 2
     6    6    7 2
     7    7   24 1
     8    8   25 1
     9    9   25 1
    10   10   11 1
    11   12    1 1
    12   13    2 1
    13   14   12 1
    14   15   14 1
    15   16   14 1
    16   17   14 1
    17   18   12 1
    18   19   18 1
    19   20   18 1
    20   21   18 1
    21   22   10 2
    22   23   22 1
    23   24   22 1
    24   25   24 2
    25   26    8 1
    26   27   26 1
    27   28   26 1
    28   29   26 1
    29   30    8 1
    30   31   30 1
    31   32   30 1
    32   33   30 1
    33   34    9 1
    34   35   34 1
    35   36   34 1
    36   37   34 1
    37   38    9 1
    38   39   38 1
    39   40   38 1
    40   41   38 1
    41   10   13 1
@<TRIPOS>SUBSTRUCTURE
     1 RES1 1

@<TRIPOS>CRYSIN
   9.6950    7.2760   22.2510  90.0000  98.6600  90.0000 231 1

