# MOL2 file generated by ConQuest
# Please check atom types

@<TRIPOS>MOLECULE
MUDWEN
   124   126     2
SMALL
NO_CHARGES
****
Generated from CSD

@<TRIPOS>ATOM
      1 O1         3.8364    4.5558   15.4143 O.2       1 RES1    0.0000
      2 O2         3.6364    3.9327   13.3658 O.2       1 RES1    0.0000
      3 O3         4.9852    0.4510   15.4238 O.2       1 RES1    0.0000
      4 O4         3.0643    1.5785   15.0858 O.3       1 RES1    0.0000
      5 O5         5.3420    2.5960   11.1239 O.2       1 RES1    0.0000
      6 O6         4.3552    1.0736   12.4266 O.3       1 RES1    0.0000
      7 O7         8.6062    2.2656   12.8456 O.2       1 RES1    0.0000
      8 O8         4.4290    2.5680   17.5691 O.2       1 RES1    0.0000
      9 O9         5.9731    4.1133   17.9939 O.3       1 RES1    0.0000
     10 O10        8.7003    3.9198   16.1469 O.2       1 RES1    0.0000
     11 N1         4.1124    3.8292   14.4787 N.pl3     1 RES1    0.0000
     12 N2         6.8151    3.5980   13.1512 N.am      1 RES1    0.0000
     13 H1         6.5532    4.5060   12.9786 H         1 RES1    0.0000
     14 N3         7.1802    2.2635   15.9977 N.am      1 RES1    0.0000
     15 H2         7.1198    1.2716   16.1891 H         1 RES1    0.0000
     16 C1         5.1238    2.7123   14.7193 C.3       1 RES1    0.0000
     17 C2         4.3736    1.4299   15.1141 C.2       1 RES1    0.0000
     18 C3         2.2474    0.4572   15.5583 C.3       1 RES1    0.0000
     19 H3         2.7484   -0.0496   16.2151 H         1 RES1    0.0000
     20 H4         1.4504    0.8023   15.9938 H         1 RES1    0.0000
     21 C4         1.8610   -0.4098   14.4801 C.3       1 RES1    0.0000
     22 H5         1.2704   -1.0913   14.8120 H         1 RES1    0.0000
     23 H6         2.6422   -0.8217   14.1061 H         1 RES1    0.0000
     24 H7         1.4127    0.1014   13.8023 H         1 RES1    0.0000
     25 C5         5.9489    2.4811   13.4379 C.3       1 RES1    0.0000
     26 H8         6.5414    1.7239   13.6309 H         1 RES1    0.0000
     27 C6         5.1647    2.0926   12.1920 C.2       1 RES1    0.0000
     28 C7         3.6872    0.5111   11.2684 C.3       1 RES1    0.0000
     29 H9         3.1377   -0.2286   11.5441 H         1 RES1    0.0000
     30 H10        4.3425    0.2049   10.6380 H         1 RES1    0.0000
     31 H11        3.1374    1.1819   10.8592 H         1 RES1    0.0000
     32 C8         8.0985    3.3690   12.7296 C.2       1 RES1    0.0000
     33 C9         8.8230    4.5176   12.1267 C.ar      1 RES1    0.0000
     34 C10        8.4795    5.8412   12.3395 C.ar      1 RES1    0.0000
     35 H12        7.7736    6.0467   12.9085 H         1 RES1    0.0000
     36 C11        9.1734    6.8626   11.7144 C.ar      1 RES1    0.0000
     37 H13        8.9373    7.7490   11.8602 H         1 RES1    0.0000
     38 C12       10.2182    6.5521   10.8733 C.ar      1 RES1    0.0000
     39 H14       10.6831    7.2336   10.4430 H         1 RES1    0.0000
     40 C13       10.5798    5.2537   10.6625 C.ar      1 RES1    0.0000
     41 H15       11.2934    5.0553   10.1006 H         1 RES1    0.0000
     42 C14        9.8854    4.2336   11.2842 C.ar      1 RES1    0.0000
     43 H16       10.1326    3.3515   11.1367 H         1 RES1    0.0000
     44 C15        6.0474    3.1622   15.8746 C.3       1 RES1    0.0000
     45 H17        6.3909    4.0535   15.6563 H         1 RES1    0.0000
     46 C16        5.3484    3.2469   17.2248 C.2       1 RES1    0.0000
     47 C17        5.5002    4.2207   19.3548 C.3       1 RES1    0.0000
     48 H18        4.6260    4.6175   19.3601 H         1 RES1    0.0000
     49 H19        6.1040    4.7685   19.8623 H         1 RES1    0.0000
     50 H20        5.4558    3.3450   19.7482 H         1 RES1    0.0000
     51 C18        8.4477    2.7295   16.1434 C.2       1 RES1    0.0000
     52 C19        9.5150    1.7047   16.3117 C.ar      1 RES1    0.0000
     53 C20       10.6510    2.0653   17.0141 C.ar      1 RES1    0.0000
     54 H21       10.7082    2.9152   17.3881 H         1 RES1    0.0000
     55 C21       11.6972    1.1819   17.1704 C.ar      1 RES1    0.0000
     56 H22       12.4512    1.4320   17.6550 H         1 RES1    0.0000
     57 C22       11.6208   -0.0518   16.6119 C.ar      1 RES1    0.0000
     58 H23       12.3371   -0.6384   16.6962 H         1 RES1    0.0000
     59 C23       10.5050   -0.4423   15.9253 C.ar      1 RES1    0.0000
     60 H24       10.4603   -1.2942   15.5548 H         1 RES1    0.0000
     61 C24        9.4382    0.4363   15.7833 C.ar      1 RES1    0.0000
     62 H25        8.6714    0.1671   15.3304 H         1 RES1    0.0000
     63 O11       -5.7920   -1.6412   13.6367 O.2       2 RES2    0.0000
     64 O12       -6.1750   -0.2456   12.0565 O.2       2 RES2    0.0000
     65 O13       -4.6240   -3.6136    9.9960 O.2       2 RES2    0.0000
     66 O14       -6.5653   -2.9627   10.9221 O.3       2 RES2    0.0000
     67 O15       -5.6310   -0.8230    9.1339 O.2       2 RES2    0.0000
     68 O16       -4.6842    1.1079    9.7347 O.3       2 RES2    0.0000
     69 O17       -1.2116   -0.4548   10.3342 O.2       2 RES2    0.0000
     70 O18       -4.9642   -4.5066   13.0167 O.2       2 RES2    0.0000
     71 O19       -3.7350   -3.6733   14.6835 O.3       2 RES2    0.0000
     72 O20       -0.9410   -2.1770   13.2140 O.2       2 RES2    0.0000
     73 N4        -5.6016   -1.2049   12.5181 N.pl3     2 RES2    0.0000
     74 N5        -3.0634    0.0632   11.5200 N.am      2 RES2    0.0000
     75 H26       -3.5742    0.7887   11.9457 H         2 RES2    0.0000
     76 N6        -2.4619   -3.1833   11.8991 N.am      2 RES2    0.0000
     77 H27       -2.6607   -3.8374   11.2598 H         2 RES2    0.0000
     78 C25       -4.5632   -1.9089   11.6419 C.3       2 RES2    0.0000
     79 C26       -5.2675   -2.9394   10.7468 C.2       2 RES2    0.0000
     80 C27       -7.3335   -3.7936   10.0040 C.3       2 RES2    0.0000
     81 H28       -6.7684   -4.0546    9.2595 H         2 RES2    0.0000
     82 H29       -7.6185   -4.5981   10.4606 H         2 RES2    0.0000
     83 C28       -8.4292   -3.1315    9.5264 C.3       2 RES2    0.0000
     84 H30       -9.0154   -3.7548    9.0909 H         2 RES2    0.0000
     85 H31       -8.1517   -2.4630    8.8977 H         2 RES2    0.0000
     86 H32       -8.8927   -2.7131   10.2569 H         2 RES2    0.0000
     87 C29       -3.8661   -0.8577   10.7533 C.3       2 RES2    0.0000
     88 H33       -3.2365   -1.3576   10.1928 H         2 RES2    0.0000
     89 C30       -4.8461   -0.1932    9.7877 C.2       2 RES2    0.0000
     90 C31       -5.5361    1.7942    8.7977 C.3       2 RES2    0.0000
     91 H34       -5.4363    2.7425    8.9100 H         2 RES2    0.0000
     92 H35       -6.4505    1.5485    8.9575 H         2 RES2    0.0000
     93 H36       -5.2904    1.5485    7.9021 H         2 RES2    0.0000
     94 C32       -1.7530    0.2387   11.1704 C.2       2 RES2    0.0000
     95 C33       -1.0325    1.3201   11.8942 C.ar      2 RES2    0.0000
     96 C34        0.0416    1.9249   11.2736 C.ar      2 RES2    0.0000
     97 H37        0.2939    1.6611   10.4185 H         2 RES2    0.0000
     98 C35        0.7450    2.9223   11.9234 C.ar      2 RES2    0.0000
     99 H38        1.4646    3.3299   11.5002 H         2 RES2    0.0000
    100 C36        0.3961    3.3127   13.1684 C.ar      2 RES2    0.0000
    101 H39        0.8683    3.9899   13.5969 H         2 RES2    0.0000
    102 C37       -0.6496    2.7131   13.7865 C.ar      2 RES2    0.0000
    103 H40       -0.8845    2.9741   14.6470 H         2 RES2    0.0000
    104 C38       -1.3663    1.7193   13.1596 C.ar      2 RES2    0.0000
    105 H41       -2.0803    1.3175   13.5986 H         2 RES2    0.0000
    106 C39       -3.5698   -2.5883   12.6073 C.3       2 RES2    0.0000
    107 H42       -3.2132   -1.9035   13.2116 H         2 RES2    0.0000
    108 C40       -4.2076   -3.6826   13.4522 C.2       2 RES2    0.0000
    109 C41       -4.1899   -4.7361   15.5478 C.3       2 RES2    0.0000
    110 H43       -3.8015   -4.6283   16.4188 H         2 RES2    0.0000
    111 H44       -3.9236   -5.5837   15.1825 H         2 RES2    0.0000
    112 H45       -5.1457   -4.7038   15.6180 H         2 RES2    0.0000
    113 C42       -1.1827   -2.9640   12.3197 C.2       2 RES2    0.0000
    114 C43       -0.1225   -3.7611   11.6565 C.ar      2 RES2    0.0000
    115 C44        1.1241   -3.7721   12.2500 C.ar      2 RES2    0.0000
    116 H46        1.2686   -3.2739   13.0226 H         2 RES2    0.0000
    117 C45        2.1510   -4.5097   11.7179 C.ar      2 RES2    0.0000
    118 H47        2.9774   -4.5269   12.1429 H         2 RES2    0.0000
    119 C46        1.9658   -5.2106   10.5747 C.ar      2 RES2    0.0000
    120 H48        2.6739   -5.6829   10.2007 H         2 RES2    0.0000
    121 C47        0.7448   -5.2257    9.9742 C.ar      2 RES2    0.0000
    122 H49        0.6162   -5.7202    9.1963 H         2 RES2    0.0000
    123 C48       -0.3067   -4.5064   10.5150 C.ar      2 RES2    0.0000
    124 H50       -1.1408   -4.5273   10.1059 H         2 RES2    0.0000
@<TRIPOS>BOND
     1    1   11 2
     2    2   11 2
     3    3   17 2
     4    4   17 1
     5    5   27 2
     6    6   27 1
     7    7   32 2
     8    8   46 2
     9    9   46 1
    10   10   51 2
    11   11   16 1
    12   12   13 1
    13   14   15 1
    14   16   17 1
    15   18    4 1
    16   19   18 1
    17   20   18 1
    18   21   18 1
    19   22   21 1
    20   23   21 1
    21   24   21 1
    22   25   12 1
    23   26   25 1
    24   27   25 1
    25   28    6 1
    26   29   28 1
    27   30   28 1
    28   31   28 1
    29   32   12 1
    30   33   32 1
    31   34   33 ar
    32   35   34 1
    33   36   34 ar
    34   37   36 1
    35   38   36 ar
    36   39   38 1
    37   40   38 ar
    38   41   40 1
    39   42   33 ar
    40   43   42 1
    41   44   14 1
    42   45   44 1
    43   46   44 1
    44   47    9 1
    45   48   47 1
    46   49   47 1
    47   50   47 1
    48   51   14 1
    49   52   51 1
    50   53   52 ar
    51   54   53 1
    52   55   53 ar
    53   56   55 1
    54   57   55 ar
    55   58   57 1
    56   59   57 ar
    57   60   59 1
    58   61   52 ar
    59   62   61 1
    60   63   73 2
    61   64   73 2
    62   65   79 2
    63   66   79 1
    64   67   89 2
    65   68   89 1
    66   69   94 2
    67   70  108 2
    68   71  108 1
    69   72  113 2
    70   73   78 1
    71   74   75 1
    72   76   77 1
    73   78   79 1
    74   80   66 1
    75   81   80 1
    76   82   80 1
    77   83   80 1
    78   84   83 1
    79   85   83 1
    80   86   83 1
    81   87   74 1
    82   88   87 1
    83   89   87 1
    84   90   68 1
    85   91   90 1
    86   92   90 1
    87   93   90 1
    88   94   74 1
    89   95   94 1
    90   96   95 ar
    91   97   96 1
    92   98   96 ar
    93   99   98 1
    94  100   98 ar
    95  101  100 1
    96  102  100 ar
    97  103  102 1
    98  104   95 ar
    99  105  104 1
   100  106   76 1
   101  107  106 1
   102  108  106 1
   103  109   71 1
   104  110  109 1
   105  111  109 1
   106  112  109 1
   107  113   76 1
   108  114  113 1
   109  115  114 ar
   110  116  115 1
   111  117  115 ar
   112  118  117 1
   113  119  117 ar
   114  120  119 1
   115  121  119 ar
   116  122  121 1
   117  123  114 ar
   118  124  123 1
   119   16   25 1
   120   16   44 1
   121   40   42 ar
   122   59   61 ar
   123   78   87 1
   124   78  106 1
   125  102  104 ar
   126  121  123 ar
@<TRIPOS>SUBSTRUCTURE
     1 RES1 1
     2 RES2 63

@<TRIPOS>CRYSIN
  13.2860   21.5670   18.0360  90.0000 103.1900  90.0000 231 1

