# MOL2 file generated by ConQuest
# Please check atom types

@<TRIPOS>MOLECULE
MUDWEO03
    80    84     2
SMALL
NO_CHARGES
****
Generated from CSD

@<TRIPOS>ATOM
      1 H1         3.5141    1.3240   13.9976 H         1 RES1    0.0000
      2 H2         6.1501    3.1738   -1.0018 H         2 RES2    0.0000
      3 H3         6.6847   -2.9535   -0.9692 H         2 RES2    0.0000
      4 H4         0.4620   -3.4248   11.7330 H         1 RES1    0.0000
      5 N1         3.2153    1.8738   11.5229 N.pl3     1 RES1    0.0000
      6 N2         3.2619    0.5502   14.1481 N.pl3     1 RES1    0.0000
      7 C1         2.6098    0.6036   11.7927 C.ar      1 RES1    0.0000
      8 C2         2.6571   -0.0221   13.0776 C.ar      1 RES1    0.0000
      9 C3         1.4049   -1.9124   12.1408 C.ar      1 RES1    0.0000
     10 N3         0.8587   -3.1316   12.3439 N.pl3     1 RES1    0.0000
     11 C4         1.3717   -1.2415   10.8885 C.ar      1 RES1    0.0000
     12 O1         3.0444    2.4001   10.4286 O.2       1 RES1    0.0000
     13 C5         2.0293   -1.2510   13.1957 C.ar      1 RES1    0.0000
     14 H5         2.0250   -1.6596   14.0303 H         1 RES1    0.0000
     15 N4         0.7466   -1.8022    9.7203 N.pl3     1 RES1    0.0000
     16 C6         1.0148   -3.9037   13.5210 C.ar      1 RES1    0.0000
     17 O2         3.9290    2.3977   12.3814 O.2       1 RES1    0.0000
     18 O3         0.9035   -1.2454    8.6423 O.2       1 RES1    0.0000
     19 C7         1.9659   -0.0125   10.7452 C.ar      1 RES1    0.0000
     20 H6         1.9324    0.4136    9.9204 H         1 RES1    0.0000
     21 C8         3.3355   -0.0078   15.4524 C.ar      1 RES1    0.0000
     22 O4         0.0558   -2.8152    9.8321 O.2       1 RES1    0.0000
     23 C9         2.2706   -4.2975   13.9371 C.ar      1 RES1    0.0000
     24 H7         3.0261   -4.0308   13.4641 H         1 RES1    0.0000
     25 C10       -0.1001   -4.3163   14.2097 C.ar      1 RES1    0.0000
     26 H8        -0.9470   -4.0480   13.9347 H         1 RES1    0.0000
     27 C11        2.3940   -5.0848   15.0524 C.ar      1 RES1    0.0000
     28 H9         3.2391   -5.3350   15.3466 H         1 RES1    0.0000
     29 C12        1.2866   -5.5074   15.7359 C.ar      1 RES1    0.0000
     30 H10        1.3783   -6.0487   16.4859 H         1 RES1    0.0000
     31 C13        4.2034   -1.5851   17.0003 C.ar      1 RES1    0.0000
     32 H11        4.7119   -2.3427   17.1848 H         1 RES1    0.0000
     33 C14        2.6732    0.6055   16.4815 C.ar      1 RES1    0.0000
     34 H12        2.1291    1.3394   16.3042 H         1 RES1    0.0000
     35 C15        2.7995    0.1559   17.7582 C.ar      1 RES1    0.0000
     36 H13        2.3648    0.5955   18.4523 H         1 RES1    0.0000
     37 C16        0.0424   -5.1290   15.3068 C.ar      1 RES1    0.0000
     38 H14       -0.7125   -5.4247   15.7636 H         1 RES1    0.0000
     39 C17        4.0985   -1.1199   15.7019 C.ar      1 RES1    0.0000
     40 H15        4.5395   -1.5549   15.0088 H         1 RES1    0.0000
     41 C18        3.5585   -0.9316   18.0138 C.ar      1 RES1    0.0000
     42 H16        3.6442   -1.2378   18.8880 H         1 RES1    0.0000
     43 O5         5.1038    3.4570    0.6843 O.2       2 RES2    0.0000
     44 C19        5.4823    1.1991    0.4688 C.ar      2 RES2    0.0000
     45 N5         4.9190    2.3303    1.1495 N.pl3     2 RES2    0.0000
     46 O6         4.2660    2.1545    2.1684 O.2       2 RES2    0.0000
     47 N6         6.7721   -2.2935   -1.4331 N.pl3     2 RES2    0.0000
     48 N7         6.2998    2.4698   -1.4487 N.pl3     2 RES2    0.0000
     49 C20        6.1185    1.2937   -0.8098 C.ar      2 RES2    0.0000
     50 C21        6.5608    0.0959   -1.3681 C.ar      2 RES2    0.0000
     51 H17        7.0177    0.1387   -2.1761 H         2 RES2    0.0000
     52 C22        5.7420   -1.1853    0.4820 C.ar      2 RES2    0.0000
     53 O7         5.8175   -3.4797    0.7360 O.2       2 RES2    0.0000
     54 C23        5.3289   -0.0215    1.0768 C.ar      2 RES2    0.0000
     55 H18        4.9324   -0.0598    1.9175 H         2 RES2    0.0000
     56 C24        6.3657   -1.1627   -0.8017 C.ar      2 RES2    0.0000
     57 N8         5.4637   -2.4021    1.2103 N.pl3     2 RES2    0.0000
     58 C25        6.6705    2.6395   -2.8184 C.ar      2 RES2    0.0000
     59 C26        7.2291   -2.4245   -2.7597 C.ar      2 RES2    0.0000
     60 O8         4.8864   -2.3334    2.2795 O.2       2 RES2    0.0000
     61 C27        6.4295    2.1299   -5.1387 C.ar      2 RES2    0.0000
     62 H19        6.0305    1.6348   -5.8176 H         2 RES2    0.0000
     63 C28        6.6763   -1.7322   -3.8088 C.ar      2 RES2    0.0000
     64 H20        5.9683   -1.1486   -3.6555 H         2 RES2    0.0000
     65 C29        7.6128    3.5908   -3.1308 C.ar      2 RES2    0.0000
     66 H21        8.0106    4.0942   -2.4580 H         2 RES2    0.0000
     67 C30        6.0556    1.9268   -3.8195 C.ar      2 RES2    0.0000
     68 H22        5.3904    1.3102   -3.6136 H         2 RES2    0.0000
     69 C31        7.3862    3.0584   -5.4430 C.ar      2 RES2    0.0000
     70 H23        7.6436    3.1889   -6.3278 H         2 RES2    0.0000
     71 C32        8.1788   -2.7698   -5.3365 C.ar      2 RES2    0.0000
     72 H24        8.5208   -2.8597   -6.1974 H         2 RES2    0.0000
     73 C33        8.2314   -3.3499   -3.0174 C.ar      2 RES2    0.0000
     74 H25        8.5902   -3.8563   -2.3252 H         2 RES2    0.0000
     75 C34        7.1660   -1.8990   -5.0886 C.ar      2 RES2    0.0000
     76 H26        6.7978   -1.4098   -5.7896 H         2 RES2    0.0000
     77 C35        7.9618    3.7921   -4.4504 C.ar      2 RES2    0.0000
     78 H27        8.5982    4.4351   -4.6643 H         2 RES2    0.0000
     79 C36        8.6918   -3.5121   -4.3065 C.ar      2 RES2    0.0000
     80 H28        9.3595   -4.1356   -4.4803 H         2 RES2    0.0000
@<TRIPOS>BOND
     1    1    6 1
     2    2   48 1
     3    3   47 1
     4    4   10 1
     5    5    7 1
     6    6    8 1
     7    7    8 ar
     8    8   13 ar
     9    9   10 1
    10   10   16 1
    11   11    9 ar
    12   12    5 2
    13   13    9 ar
    14   14   13 1
    15   15   11 1
    16   16   23 ar
    17   17    5 2
    18   18   15 2
    19   19    7 ar
    20   20   19 1
    21   21    6 1
    22   22   15 2
    23   23   24 1
    24   25   16 ar
    25   26   25 1
    26   27   23 ar
    27   28   27 1
    28   29   27 ar
    29   30   29 1
    30   31   32 1
    31   33   21 ar
    32   34   33 1
    33   35   33 ar
    34   36   35 1
    35   37   25 ar
    36   38   37 1
    37   39   21 ar
    38   40   39 1
    39   41   31 ar
    40   42   41 1
    41   43   45 2
    42   44   45 1
    43   45   46 2
    44   47   56 1
    45   48   49 1
    46   49   44 ar
    47   50   49 ar
    48   51   50 1
    49   52   54 ar
    50   53   57 2
    51   54   44 ar
    52   55   54 1
    53   56   50 ar
    54   57   52 1
    55   58   48 1
    56   59   47 1
    57   60   57 2
    58   61   62 1
    59   63   59 ar
    60   64   63 1
    61   65   58 ar
    62   66   65 1
    63   67   58 ar
    64   68   67 1
    65   69   61 ar
    66   70   69 1
    67   71   72 1
    68   73   59 ar
    69   74   73 1
    70   75   63 ar
    71   76   75 1
    72   77   65 ar
    73   78   77 1
    74   79   71 ar
    75   80   79 1
    76   11   19 ar
    77   29   37 ar
    78   31   39 ar
    79   35   41 ar
    80   52   56 ar
    81   61   67 ar
    82   69   77 ar
    83   71   75 ar
    84   73   79 ar
@<TRIPOS>SUBSTRUCTURE
     1 RES1 1
     2 RES2 2

@<TRIPOS>CRYSIN
   7.8650    9.6359   23.3040  89.9010  88.7770  70.8770   2 1

