# MOL2 file generated by ConQuest
# Please check atom types

@<TRIPOS>MOLECULE
MUDWEO01
    40    42     1
SMALL
NO_CHARGES
****
Generated from CSD

@<TRIPOS>ATOM
      1 H1         6.0700    9.6940    1.1524 H         1 RES1    0.0000
      2 H2         4.6228    3.9461    3.0088 H         1 RES1    0.0000
      3 C1         4.6887    7.7166    0.4104 C.ar      1 RES1    0.0000
      4 N1         4.5418    8.6798   -0.6488 N.pl3     1 RES1    0.0000
      5 N2         6.2641    9.0452    1.6982 N.pl3     1 RES1    0.0000
      6 O1         5.0978    9.7746   -0.5504 O.2       1 RES1    0.0000
      7 C2         5.5489    7.9093    1.5372 C.ar      1 RES1    0.0000
      8 N3         5.0009    4.6731    3.2565 N.pl3     1 RES1    0.0000
      9 O2         3.8708    8.3851   -1.6286 O.2       1 RES1    0.0000
     10 C3         4.8999    5.6713    2.3415 C.ar      1 RES1    0.0000
     11 N4         3.2768    4.3611    0.9114 N.pl3     1 RES1    0.0000
     12 C4         3.9720    6.5566    0.2757 C.ar      1 RES1    0.0000
     13 H3         3.4134    6.4531   -0.4607 H         1 RES1    0.0000
     14 C5         5.6051    6.8679    2.4657 C.ar      1 RES1    0.0000
     15 H4         6.1463    6.9793    3.2136 H         1 RES1    0.0000
     16 C6         4.0534    5.5452    1.1941 C.ar      1 RES1    0.0000
     17 O3         2.4638    4.3906   -0.0028 O.2       1 RES1    0.0000
     18 C7         7.2475    9.3054    2.6868 C.ar      1 RES1    0.0000
     19 C8         5.7372    4.6691    4.4660 C.ar      1 RES1    0.0000
     20 O4         3.4656    3.3485    1.5833 O.2       1 RES1    0.0000
     21 C9         6.5036    3.5611    4.7625 C.ar      1 RES1    0.0000
     22 H5         6.5765    2.8662    4.1487 H         1 RES1    0.0000
     23 C10        5.6389    5.6822    5.3888 C.ar      1 RES1    0.0000
     24 H6         5.1121    6.4257    5.2056 H         1 RES1    0.0000
     25 C11        8.2771    8.4273    2.9372 C.ar      1 RES1    0.0000
     26 H7         8.3244    7.6176    2.4818 H         1 RES1    0.0000
     27 C12        7.1947   10.5148    3.3381 C.ar      1 RES1    0.0000
     28 H8         6.5064   11.1133    3.1569 H         1 RES1    0.0000
     29 C13        7.1616    3.4880    5.9712 C.ar      1 RES1    0.0000
     30 H9         7.6720    2.7366    6.1726 H         1 RES1    0.0000
     31 C14        9.2370    8.7580    3.8693 C.ar      1 RES1    0.0000
     32 H10        9.9323    8.1669    4.0478 H         1 RES1    0.0000
     33 C15        9.1730    9.9499    4.5330 C.ar      1 RES1    0.0000
     34 H11        9.8148   10.1609    5.1724 H         1 RES1    0.0000
     35 C16        6.3166    5.5995    6.5793 C.ar      1 RES1    0.0000
     36 H12        6.2597    6.2982    7.1908 H         1 RES1    0.0000
     37 C17        7.0737    4.5020    6.8745 C.ar      1 RES1    0.0000
     38 H13        7.5256    4.4482    7.6860 H         1 RES1    0.0000
     39 C18        8.1660   10.8332    4.2586 C.ar      1 RES1    0.0000
     40 H14        8.1368   11.6538    4.6966 H         1 RES1    0.0000
@<TRIPOS>BOND
     1    1    5 1
     2    2    8 1
     3    3    4 1
     4    4    6 2
     5    5    7 1
     6    7    3 ar
     7    8   10 1
     8    9    4 2
     9   10   14 ar
    10   11   16 1
    11   12    3 ar
    12   13   12 1
    13   14    7 ar
    14   15   14 1
    15   16   10 ar
    16   17   11 2
    17   18    5 1
    18   19    8 1
    19   20   11 2
    20   21   19 ar
    21   22   21 1
    22   23   19 ar
    23   24   23 1
    24   25   18 ar
    25   26   25 1
    26   27   18 ar
    27   28   27 1
    28   29   21 ar
    29   30   29 1
    30   31   25 ar
    31   32   31 1
    32   33   31 ar
    33   34   33 1
    34   35   23 ar
    35   36   35 1
    36   37   29 ar
    37   38   37 1
    38   39   27 ar
    39   40   39 1
    40   12   16 ar
    41   33   39 ar
    42   35   37 ar
@<TRIPOS>SUBSTRUCTURE
     1 RES1 1

@<TRIPOS>CRYSIN
  10.9187   10.9859   14.7065  90.0000 109.8380  90.0000  14 1

