# MOL2 file generated by ConQuest
# Please check atom types

@<TRIPOS>MOLECULE
MUDWAK
   170   162     2
SMALL
NO_CHARGES
****
Generated from CSD

@<TRIPOS>ATOM
      1 C1        15.0992    8.5348    9.5797 C.3       1 RES1    0.0000
      2 H1        15.7942    7.8439    9.5797 H         1 RES1    0.0000
      3 H2        14.7002    8.5958   10.4723 H         1 RES1    0.0000
      4 H3        15.4960    9.3951    9.3368 H         1 RES1    0.0000
      5 O1        14.0751    8.1870    8.6175 O.3       1 RES1    0.0000
      6 C2        13.4626    6.9715    8.7405 C.ar      1 RES1    0.0000
      7 C3        13.7772    5.9781    9.6602 C.ar      1 RES1    0.0000
      8 H4        14.5203    6.0895   10.2415 H         1 RES1    0.0000
      9 C4        13.0069    4.8242    9.7289 C.ar      1 RES1    0.0000
     10 H5        13.2220    4.1455   10.3569 H         1 RES1    0.0000
     11 C5        11.9201    4.6630    8.8773 C.ar      1 RES1    0.0000
     12 H6        11.3921    3.8745    8.9239 H         1 RES1    0.0000
     13 C6        11.6042    5.6564    7.9578 C.ar      1 RES1    0.0000
     14 H7        10.8606    5.5476    7.3755 H         1 RES1    0.0000
     15 C7        12.3758    6.8106    7.8892 C.ar      1 RES1    0.0000
     16 N1        12.0668    7.9045    7.0549 N.pl3     1 RES1    0.0000
     17 H8        12.3974    8.6737    7.3209 H         1 RES1    0.0000
     18 C8        11.3245    7.9665    5.8806 C.ar      1 RES1    0.0000
     19 C9        11.0509    6.8059    5.1665 C.ar      1 RES1    0.0000
     20 H9        11.3684    5.9676    5.4810 H         1 RES1    0.0000
     21 C10       10.3121    6.8709    3.9910 C.ar      1 RES1    0.0000
     22 C11        9.8473    8.0969    3.5293 C.ar      1 RES1    0.0000
     23 C12       10.1211    9.2576    4.2432 C.ar      1 RES1    0.0000
     24 H10        9.8035   10.0962    3.9286 H         1 RES1    0.0000
     25 C13       10.8597    9.1926    5.4189 C.ar      1 RES1    0.0000
     26 N2         9.0662    8.3011    2.3153 N.pl3     1 RES1    0.0000
     27 O2         8.8676    7.3112    1.5607 O.2       1 RES1    0.0000
     28 O3         8.6067    9.4036    2.0829 O.2       1 RES1    0.0000
     29 N3        11.0883   10.4623    6.0700 N.pl3     1 RES1    0.0000
     30 O4        11.9124   10.5409    6.9928 O.2       1 RES1    0.0000
     31 O5        10.4520   11.4394    5.7045 O.2       1 RES1    0.0000
     32 N4        10.0333    5.7288    3.2763 N.pl3     1 RES1    0.0000
     33 H11        9.6334    5.8694    2.5057 H         1 RES1    0.0000
     34 C14       10.2788    4.3582    3.5700 C.ar      1 RES1    0.0000
     35 C15       10.4057    3.5203    2.4681 C.ar      1 RES1    0.0000
     36 C16       10.5528    2.1503    2.6500 C.ar      1 RES1    0.0000
     37 H12       10.6401    1.5783    1.8965 H         1 RES1    0.0000
     38 C17       10.5734    1.6179    3.9339 C.ar      1 RES1    0.0000
     39 C18       10.4467    2.4558    5.0358 C.ar      1 RES1    0.0000
     40 C19       10.2994    3.8258    4.8538 C.ar      1 RES1    0.0000
     41 H13       10.2136    4.3995    5.6065 H         1 RES1    0.0000
     42 O6        10.3283    4.0991    1.2608 O.3       1 RES1    0.0000
     43 C20       10.4940    3.3001    0.0810 C.3       1 RES1    0.0000
     44 H14        9.8198    2.5774    0.0587 H         1 RES1    0.0000
     45 H15       11.3951    2.8924    0.0648 H         1 RES1    0.0000
     46 C21       10.3111    4.2295   -1.1112 C.3       1 RES1    0.0000
     47 H16       10.9771    4.9753   -1.0667 H         1 RES1    0.0000
     48 C22       10.6051    3.3123   -2.3722 C.3       1 RES1    0.0000
     49 H17       11.5407    3.0244   -2.3560 H         1 RES1    0.0000
     50 H18       10.4334    3.8204   -3.1919 H         1 RES1    0.0000
     51 H19       10.0204    2.5266   -2.3458 H         1 RES1    0.0000
     52 C23        8.8757    4.8025   -1.1051 C.3       1 RES1    0.0000
     53 H20        8.2306    4.0676   -1.0565 H         1 RES1    0.0000
     54 H21        8.7239    5.3140   -1.9269 H         1 RES1    0.0000
     55 H22        8.7615    5.3918   -0.3299 H         1 RES1    0.0000
     56 O7        10.7672    0.2750    4.2126 O.3       1 RES1    0.0000
     57 C24       11.2301   -0.5466    3.1231 C.3       1 RES1    0.0000
     58 H23       12.0537   -0.1626    2.7284 H         1 RES1    0.0000
     59 H24       10.5398   -0.5995    2.4147 H         1 RES1    0.0000
     60 C25       11.5165   -1.9373    3.6898 C.3       1 RES1    0.0000
     61 H25       12.2615   -1.8052    4.3435 H         1 RES1    0.0000
     62 C26       12.1286   -2.7853    2.5543 C.3       1 RES1    0.0000
     63 H26       11.4361   -2.9906    1.8925 H         1 RES1    0.0000
     64 H27       12.4855   -3.6205    2.9247 H         1 RES1    0.0000
     65 H28       12.8512   -2.2827    2.1252 H         1 RES1    0.0000
     66 C27       10.4499   -2.5164    4.4589 C.3       1 RES1    0.0000
     67 H29       10.0757   -1.8424    5.0600 H         1 RES1    0.0000
     68 H30       10.7959   -3.2683    4.9852 H         1 RES1    0.0000
     69 H31        9.7476   -2.8382    3.8537 H         1 RES1    0.0000
     70 N5        10.5949    1.9149    6.3514 N.pl3     1 RES1    0.0000
     71 H32        9.8873    1.8153    6.8655 H         1 RES1    0.0000
     72 C28       11.8508    1.5488    6.8213 C.ar      1 RES1    0.0000
     73 C29       12.0595    0.9910    8.0773 C.ar      1 RES1    0.0000
     74 C30       13.3476    0.6699    8.4897 C.ar      1 RES1    0.0000
     75 H33       13.4895    0.2879    9.3489 H         1 RES1    0.0000
     76 C31       14.4267    0.9073    7.6467 C.ar      1 RES1    0.0000
     77 C32       14.2181    1.4655    6.3908 C.ar      1 RES1    0.0000
     78 C33       12.9301    1.7862    5.9781 C.ar      1 RES1    0.0000
     79 H34       12.7882    2.1676    5.1208 H         1 RES1    0.0000
     80 N6        11.0264    0.6401    9.0028 N.pl3     1 RES1    0.0000
     81 O8         9.8532    0.9649    8.7209 O.2       1 RES1    0.0000
     82 O9        11.2682    0.0349   10.0274 O.2       1 RES1    0.0000
     83 N7        15.6917    0.5554    8.1750 N.pl3     1 RES1    0.0000
     84 O10       16.6914    0.7817    7.4854 O.2       1 RES1    0.0000
     85 O11       15.8289    0.0545    9.2660 O.2       1 RES1    0.0000
     86 N8        15.2302    1.6829    5.5007 N.pl3     1 RES1    0.0000
     87 H35       16.0512    1.5004    5.7604 H         1 RES1    0.0000
     88 C34       15.0490    2.1886    4.1751 C.ar      1 RES1    0.0000
     89 C35       15.3581    1.3896    3.0806 C.ar      1 RES1    0.0000
     90 C36       15.1863    1.8800    1.7915 C.ar      1 RES1    0.0000
     91 H36       15.3984    1.3344    1.0424 H         1 RES1    0.0000
     92 C37       14.7054    3.1697    1.5970 C.ar      1 RES1    0.0000
     93 C38       14.3963    3.9687    2.6915 C.ar      1 RES1    0.0000
     94 C39       14.5681    3.4783    3.9806 C.ar      1 RES1    0.0000
     95 H37       14.3572    4.0236    4.7281 H         1 RES1    0.0000
     96 O12       15.7986    0.1304    3.3633 O.3       1 RES1    0.0000
     97 C40       16.0248   -0.7647    2.2586 C.3       1 RES1    0.0000
     98 H38       16.7248   -0.3996    1.6617 H         1 RES1    0.0000
     99 H39       15.1926   -0.8738    1.7346 H         1 RES1    0.0000
    100 C41       16.4649   -2.0998    2.8134 C.3       1 RES1    0.0000
    101 H40       17.3705   -2.0389    3.2324 H         1 RES1    0.0000
    102 C42       15.4305   -2.4284    3.8153 C.3       1 RES1    0.0000
    103 H41       14.5584   -2.4893    3.3740 H         1 RES1    0.0000
    104 H42       15.4052   -1.7273    4.4994 H         1 RES1    0.0000
    105 H43       15.6465   -3.2886    4.2342 H         1 RES1    0.0000
    106 C43       16.4463   -3.1227    1.6880 C.3       1 RES1    0.0000
    107 H44       16.5854   -4.0168    2.0584 H         1 RES1    0.0000
    108 H45       17.1608   -2.9195    1.0505 H         1 RES1    0.0000
    109 H46       15.5803   -3.0888    1.2306 H         1 RES1    0.0000
    110 O13       14.5083    3.7462    0.3789 O.3       1 RES1    0.0000
    111 C44       14.7595    2.9581   -0.7847 C.3       1 RES1    0.0000
    112 H47       14.1189    2.2048   -0.8319 H         1 RES1    0.0000
    113 H48       15.6783    2.5875   -0.7570 H         1 RES1    0.0000
    114 C45       14.5968    3.8583   -1.9850 C.3       1 RES1    0.0000
    115 H49       13.6709    4.2369   -1.9775 H         1 RES1    0.0000
    116 C46       15.5869    4.9980   -1.9795 C.3       1 RES1    0.0000
    117 H50       16.4961    4.6400   -1.9006 H         1 RES1    0.0000
    118 H51       15.3996    5.5883   -1.2205 H         1 RES1    0.0000
    119 H52       15.5059    5.5036   -2.8154 H         1 RES1    0.0000
    120 C47       14.7438    2.9364   -3.2222 C.3       1 RES1    0.0000
    121 H53       14.5411    3.4478   -4.0359 H         1 RES1    0.0000
    122 H54       14.1225    2.1845   -3.1453 H         1 RES1    0.0000
    123 H55       15.6626    2.6011   -3.2708 H         1 RES1    0.0000
    124 N9        13.8762    5.2648    2.4096 N.pl3     1 RES1    0.0000
    125 H56       13.3464    5.3072    1.7083 H         1 RES1    0.0000
    126 C48       14.0747    6.4546    3.0627 C.ar      1 RES1    0.0000
    127 C49       13.4513    7.6136    2.6152 C.ar      1 RES1    0.0000
    128 C50       13.6615    8.8166    3.2789 C.ar      1 RES1    0.0000
    129 H57       13.2359    9.6085    2.9733 H         1 RES1    0.0000
    130 C51       14.4951    8.8607    4.3903 C.ar      1 RES1    0.0000
    131 C52       15.1185    7.7017    4.8380 C.ar      1 RES1    0.0000
    132 C53       14.9084    6.4987    4.1741 C.ar      1 RES1    0.0000
    133 H58       15.3342    5.7068    4.4792 H         1 RES1    0.0000
    134 N10       12.5954    7.7007    1.4458 N.pl3     1 RES1    0.0000
    135 O14       12.4903    6.7144    0.7210 O.2       1 RES1    0.0000
    136 O15       12.0490    8.7455    1.1770 O.2       1 RES1    0.0000
    137 N11       14.6548   10.1731    4.9831 N.pl3     1 RES1    0.0000
    138 O16       13.9477   11.0919    4.5919 O.2       1 RES1    0.0000
    139 O17       15.4987   10.3492    5.8682 O.2       1 RES1    0.0000
    140 N12       15.9518    7.7508    5.9577 N.pl3     1 RES1    0.0000
    141 H59       16.2068    8.5585    6.1996 H         1 RES1    0.0000
    142 C54       16.4519    6.6921    6.7641 C.ar      1 RES1    0.0000
    143 C55       15.8942    5.4210    6.8406 C.ar      1 RES1    0.0000
    144 H60       15.1412    5.1988    6.3048 H         1 RES1    0.0000
    145 C56       16.4380    4.4744    7.7008 C.ar      1 RES1    0.0000
    146 H61       16.0574    3.6070    7.7540 H         1 RES1    0.0000
    147 C57       17.5388    4.7988    8.4847 C.ar      1 RES1    0.0000
    148 H62       17.9106    4.1523    9.0737 H         1 RES1    0.0000
    149 C58       18.0962    6.0699    8.4084 C.ar      1 RES1    0.0000
    150 H63       18.8495    6.2927    8.9441 H         1 RES1    0.0000
    151 C59       17.5527    7.0165    7.5480 C.ar      1 RES1    0.0000
    152 O18       17.9799    8.3039    7.4620 O.3       1 RES1    0.0000
    153 C60       18.8128    8.8149    8.5029 C.3       1 RES1    0.0000
    154 H64       18.5071    8.4671    9.3672 H         1 RES1    0.0000
    155 H65       18.7657    9.7947    8.5090 H         1 RES1    0.0000
    156 H66       19.7385    8.5348    8.3491 H         1 RES1    0.0000
    157 C61       12.4910   -1.8221    4.8192 Du        2 SUP2    0.0000
    158 C62       16.3485   -2.1642    2.7608 Du        2 SUP2    0.0000
    159 C63       17.6268   -2.1811    3.6756 Du        2 SUP2    0.0000
    160 C64       16.7260   -3.0177    1.5605 Du        2 SUP2    0.0000
    161 H67       12.1120   -1.2497    5.5195 Du        2 SUP2    0.0000
    162 H68       13.3260   -1.4259    4.4893 Du        2 SUP2    0.0000
    163 H69       12.6734   -2.7095    5.1876 Du        2 SUP2    0.0000
    164 H70       15.5658   -2.5571    3.2425 Du        2 SUP2    0.0000
    165 H71       17.8789   -3.1091    3.8639 Du        2 SUP2    0.0000
    166 H72       17.4337   -1.7171    4.5176 Du        2 SUP2    0.0000
    167 H73       18.3652   -1.7307    3.2162 Du        2 SUP2    0.0000
    168 H74       15.9510   -3.1091    0.9695 Du        2 SUP2    0.0000
    169 H75       17.0103   -3.9050    1.8682 Du        2 SUP2    0.0000
    170 H76       17.4605   -2.5909    1.0727 Du        2 SUP2    0.0000
@<TRIPOS>BOND
     1    1    2 1
     2    3    1 1
     3    4    1 1
     4    5    1 1
     5    6    5 1
     6    7    6 ar
     7    8    7 1
     8    9    7 ar
     9   10    9 1
    10   11    9 ar
    11   12   11 1
    12   13   11 ar
    13   14   13 1
    14   15    6 ar
    15   16   15 1
    16   17   16 1
    17   18   16 1
    18   19   18 ar
    19   20   19 1
    20   21   19 ar
    21   22   21 ar
    22   23   22 ar
    23   24   23 1
    24   25   18 ar
    25   26   22 1
    26   27   26 2
    27   28   26 2
    28   29   25 1
    29   30   29 2
    30   31   29 2
    31   32   21 1
    32   33   32 1
    33   34   32 1
    34   35   34 ar
    35   36   35 ar
    36   37   36 1
    37   38   36 ar
    38   39   38 ar
    39   40   34 ar
    40   41   40 1
    41   42   35 1
    42   43   42 1
    43   44   43 1
    44   45   43 1
    45   46   43 1
    46   47   46 1
    47   48   46 1
    48   49   48 1
    49   50   48 1
    50   51   48 1
    51   52   46 1
    52   53   52 1
    53   54   52 1
    54   55   52 1
    55   56   38 1
    56   57   56 1
    57   58   57 1
    58   59   57 1
    59   60   57 1
    60   61   60 1
    61   62   60 1
    62   63   62 1
    63   64   62 1
    64   65   62 1
    65   66   60 1
    66   67   66 1
    67   68   66 1
    68   69   66 1
    69   70   39 1
    70   71   70 1
    71   72   70 1
    72   73   72 ar
    73   74   73 ar
    74   75   74 1
    75   76   74 ar
    76   77   76 ar
    77   78   72 ar
    78   79   78 1
    79   80   73 1
    80   81   80 2
    81   82   80 2
    82   83   76 1
    83   84   83 2
    84   85   83 2
    85   86   77 1
    86   87   86 1
    87   88   86 1
    88   89   88 ar
    89   90   89 ar
    90   91   90 1
    91   92   90 ar
    92   93   92 ar
    93   94   88 ar
    94   95   94 1
    95   96   89 1
    96   97   96 1
    97   98   97 1
    98   99   97 1
    99  100   97 1
   100  101  100 1
   101  102  100 1
   102  103  102 1
   103  104  102 1
   104  105  102 1
   105  106  100 1
   106  107  106 1
   107  108  106 1
   108  109  106 1
   109  110   92 1
   110  111  110 1
   111  112  111 1
   112  113  111 1
   113  114  111 1
   114  115  114 1
   115  116  114 1
   116  117  116 1
   117  118  116 1
   118  119  116 1
   119  120  114 1
   120  121  120 1
   121  122  120 1
   122  123  120 1
   123  124   93 1
   124  125  124 1
   125  126  124 1
   126  127  126 ar
   127  128  127 ar
   128  129  128 1
   129  130  128 ar
   130  131  130 ar
   131  132  126 ar
   132  133  132 1
   133  134  127 1
   134  135  134 2
   135  136  134 2
   136  137  130 1
   137  138  137 2
   138  139  137 2
   139  140  131 1
   140  141  140 1
   141  142  140 1
   142  143  142 ar
   143  144  143 1
   144  145  143 ar
   145  146  145 1
   146  147  145 ar
   147  148  147 1
   148  149  147 ar
   149  150  149 1
   150  151  142 ar
   151  152  151 1
   152  153  152 1
   153  154  153 1
   154  155  153 1
   155  156  153 1
   156   13   15 ar
   157   23   25 ar
   158   39   40 ar
   159   77   78 ar
   160   93   94 ar
   161  131  132 ar
   162  149  151 ar
@<TRIPOS>SUBSTRUCTURE
     1 RES1 1
     2 SUP2 157

@<TRIPOS>CRYSIN
  18.0066   33.8684   20.2630  90.0000  92.7190  90.0000  15 1

