# MOL2 file generated by ConQuest
# Please check atom types

@<TRIPOS>MOLECULE
MUDZIV
    35    36     1
SMALL
USER_CHARGES
****
Generated from CSD

@<TRIPOS>ATOM
      1 C1        18.0219    0.9332    2.9978 C.3       1 RES1    0.0000
      2 C2        18.9390    0.5842    4.2006 C.3       1 RES1    0.0000
      3 H1        19.6230   -0.0673    3.9047 H         1 RES1    0.0000
      4 H2        19.4095    1.4037    4.4947 H         1 RES1    0.0000
      5 C3        18.1742   -0.0037    5.3914 C.3       1 RES1    0.0000
      6 H3        17.8125   -0.8909    5.1415 H         1 RES1    0.0000
      7 H4        18.7978   -0.1320    6.1497 H         1 RES1    0.0000
      8 C4        17.0287    0.9043    5.8286 C.3       1 RES1    0.0000
      9 H5        16.5153    0.4632    6.5499 H         1 RES1    0.0000
     10 H6        17.3959    1.7502    6.1876 H         1 RES1    0.0000
     11 C5        16.1007    1.2105    4.6574 C.3       1 RES1    0.0000
     12 H7        15.3843    1.8263    4.9546 H         1 RES1    0.0000
     13 H8        15.6758    0.3731    4.3439 H         1 RES1    0.0000
     14 C6        16.8776    1.8497    3.5077 C.3       1 RES1    0.0000
     15 H9        17.2604    2.7097    3.8127 H         1 RES1    0.0000
     16 H10       16.2567    2.0408    2.7609 H         1 RES1    0.0000
     17 C7        18.8444    1.7221    1.9958 C.2       1 RES1    0.0000
     18 C8        18.5427    0.0963    0.1729 C.3       1 RES1    0.0000
     19 H11       19.2124   -0.2462   -0.4714 H         1 RES1    0.0000
     20 H12       17.6997    0.2640   -0.3187 H         1 RES1    0.0000
     21 C9        18.3013   -0.9450    1.2557 C.3       1 RES1    0.0000
     22 C10       17.4291   -0.3310    2.3395 C.3       1 RES1    0.0000
     23 H13       17.2727   -1.0102    3.0426 H         1 RES1    0.0000
     24 H14       16.5502   -0.1003    1.9462 H         1 RES1    0.0000
     25 C11       17.6385   -2.1744    0.6434 C.3       1 RES1    0.0000
     26 H15       18.2128   -2.5370   -0.0635 H         1 RES1    0.0000
     27 H16       16.7698   -1.9228    0.2637 H         1 RES1    0.0000
     28 H17       17.5067   -2.8543    1.3373 H         1 RES1    0.0000
     29 N1        19.0211    1.3410    0.7551 N.pl3     1 RES1    1.0000
     30 N2        19.4107    2.8666    2.3536 N.3       1 RES1    0.0000
     31 H18       19.8775    3.3290    1.7679 H         1 RES1    0.0000
     32 H19       19.3192    3.1640    3.1773 H         1 RES1    0.0000
     33 O1        19.7673    2.1408   -0.0539 O.2       1 RES1   -1.0000
     34 O2        19.5386   -1.2970    1.8604 O.3       1 RES1    0.0000
     35 H20       20.0889   -1.5154    1.2652 H         1 RES1    0.0000
@<TRIPOS>BOND
     1    1    2 1
     2    2    3 1
     3    4    2 1
     4    5    2 1
     5    6    5 1
     6    7    5 1
     7    8    5 1
     8    9    8 1
     9   10    8 1
    10   11    8 1
    11   12   11 1
    12   13   11 1
    13   14    1 1
    14   15   14 1
    15   16   14 1
    16   17    1 1
    17   18   19 1
    18   20   18 1
    19   21   18 1
    20   22    1 1
    21   23   22 1
    22   24   22 1
    23   25   21 1
    24   26   25 1
    25   27   25 1
    26   28   25 1
    27   29   17 2
    28   30   17 1
    29   31   30 1
    30   32   30 1
    31   33   29 1
    32   34   21 1
    33   35   34 1
    34   11   14 1
    35   18   29 1
    36   21   22 1
@<TRIPOS>SUBSTRUCTURE
     1 RES1 1

@<TRIPOS>CRYSIN
  20.5261   12.6916    9.4844  90.0000  90.0000  90.0000  56 1

