# MOL2 file generated by ConQuest
# Please check atom types

@<TRIPOS>MOLECULE
MUFWER
    41    44     1
SMALL
NO_CHARGES
****
Generated from CSD

@<TRIPOS>ATOM
      1 N1         2.9807    6.2731    3.8280 N.3       1 RES1    0.0000
      2 C1         3.8682    5.7805    4.7627 C.ar      1 RES1    0.0000
      3 C2         4.9463    4.9881    4.3096 C.ar      1 RES1    0.0000
      4 C3         5.2134    4.7120    2.8379 C.3       1 RES1    0.0000
      5 H1         5.4622    5.5435    2.4043 H         1 RES1    0.0000
      6 H2         5.9677    4.1061    2.7660 H         1 RES1    0.0000
      7 C4         4.0332    4.1114    2.0990 C.ar      1 RES1    0.0000
      8 C5         2.9930    4.8353    1.5186 C.ar      1 RES1    0.0000
      9 C6         2.9375    6.3544    1.5476 C.3       1 RES1    0.0000
     10 H3         3.4063    6.6782    0.7506 H         1 RES1    0.0000
     11 N2         1.5918    6.8895    1.5026 N.3       1 RES1    0.0000
     12 C7         0.8813    6.6707    2.7825 C.3       1 RES1    0.0000
     13 H4         0.5740    5.7515    2.8078 H         1 RES1    0.0000
     14 H5         0.0967    7.2404    2.7987 H         1 RES1    0.0000
     15 C8         1.7050    6.9428    4.0524 C.3       1 RES1    0.0000
     16 H6         1.2600    6.4755    4.7905 H         1 RES1    0.0000
     17 O1         3.6474    6.8623    2.6969 O.3       1 RES1    0.0000
     18 C9         3.6379    5.9362    6.1140 C.ar      1 RES1    0.0000
     19 H7         2.9416    6.4776    6.4079 H         1 RES1    0.0000
     20 C10        4.4467    5.2861    7.0319 C.ar      1 RES1    0.0000
     21 H8         4.2795    5.3796    7.9417 H         1 RES1    0.0000
     22 C11        5.4849    4.5086    6.6103 C.ar      1 RES1    0.0000
     23 H9         6.0311    4.0809    7.2311 H         1 RES1    0.0000
     24 C12        5.7220    4.3604    5.2641 C.ar      1 RES1    0.0000
     25 H10        6.4265    3.8193    4.9867 H         1 RES1    0.0000
     26 C13        4.0032    2.7192    2.0100 C.ar      1 RES1    0.0000
     27 H11        4.6758    2.2201    2.4134 H         1 RES1    0.0000
     28 C14        2.9870    2.0720    1.3297 C.ar      1 RES1    0.0000
     29 H12        2.9853    1.1432    1.2830 H         1 RES1    0.0000
     30 C15        1.9883    2.7802    0.7273 C.ar      1 RES1    0.0000
     31 H13        1.3190    2.3410    0.2544 H         1 RES1    0.0000
     32 C16        1.9830    4.1629    0.8307 C.ar      1 RES1    0.0000
     33 H14        1.2963    4.6483    0.4343 H         1 RES1    0.0000
     34 C17        1.5702    8.2774    1.0304 C.3       1 RES1    0.0000
     35 H15        0.6652    8.5958    1.0159 H         1 RES1    0.0000
     36 H16        1.9392    8.3194    0.1454 H         1 RES1    0.0000
     37 H17        2.0927    8.8238    1.6211 H         1 RES1    0.0000
     38 C18        1.8150    8.4103    4.4517 C.3       1 RES1    0.0000
     39 H18        2.3502    8.4865    5.2448 H         1 RES1    0.0000
     40 H19        0.9384    8.7618    4.6233 H         1 RES1    0.0000
     41 H20        2.2252    8.9057    3.7400 H         1 RES1    0.0000
@<TRIPOS>BOND
     1    1    2 1
     2    2    3 ar
     3    3    4 1
     4    4    5 1
     5    6    4 1
     6    7    4 1
     7    8    7 ar
     8    9    8 1
     9   10    9 1
    10   11    9 1
    11   12   11 1
    12   13   12 1
    13   14   12 1
    14   15    1 1
    15   16   15 1
    16   17    1 1
    17   18    2 ar
    18   19   18 1
    19   20   18 ar
    20   21   20 1
    21   22   20 ar
    22   23   22 1
    23   24    3 ar
    24   25   24 1
    25   26    7 ar
    26   27   26 1
    27   28   26 ar
    28   29   28 1
    29   30   28 ar
    30   31   30 1
    31   32    8 ar
    32   33   32 1
    33   34   11 1
    34   35   34 1
    35   36   34 1
    36   37   34 1
    37   38   15 1
    38   39   38 1
    39   40   38 1
    40   41   38 1
    41    9   17 1
    42   12   15 1
    43   22   24 ar
    44   30   32 ar
@<TRIPOS>SUBSTRUCTURE
     1 RES1 1

@<TRIPOS>CRYSIN
   7.9280   10.5070   18.2340  90.0000  94.6800  90.0000 231 1

