# MOL2 file generated by ConQuest
# Please check atom types

@<TRIPOS>MOLECULE
MUGNUX01
    24    27     1
SMALL
NO_CHARGES
****
Generated from CSD

@<TRIPOS>ATOM
      1 C1         3.2227    2.8267    4.3669 C.3       1 RES1    0.0000
      2 O1         4.4476    2.1332    4.2428 O.3       1 RES1    0.0000
      3 C2         4.8790    2.3714    2.9118 C.3       1 RES1    0.0000
      4 N1         4.4397    1.3429    1.9871 N.pl3     1 RES1    0.0000
      5 C3         3.0108    1.1260    1.9166 C.3       1 RES1    0.0000
      6 O2         2.4529    0.7979    3.1745 O.3       1 RES1    0.0000
      7 C4         2.0229    2.0252    3.7278 C.3       1 RES1    0.0000
      8 O3         1.4591    2.7280    2.6305 O.3       1 RES1    0.0000
      9 C5         2.3116    2.4597    1.5384 C.3       1 RES1    0.0000
     10 N2         3.3278    3.4997    1.3777 N.3       1 RES1    0.0000
     11 C6         4.1874    3.7105    2.5353 C.3       1 RES1    0.0000
     12 O4         3.4518    4.0572    3.6980 O.3       1 RES1    0.0000
     13 N3         5.2595    0.2315    1.8248 N.pl3     1 RES1    0.0000
     14 O5         4.7836   -0.7277    1.2409 O.2       1 RES1    0.0000
     15 O6         6.4060    0.3178    2.2225 O.2       1 RES1    0.0000
     16 N4         2.8303    4.6904    0.7938 N.pl3     1 RES1    0.0000
     17 O7         1.9764    4.5560   -0.0612 O.2       1 RES1    0.0000
     18 O8         3.3509    5.7269    1.1219 O.2       1 RES1    0.0000
     19 H1         3.0093    3.0104    5.2780 H         1 RES1    0.0000
     20 H2         5.8318    2.4221    2.8812 H         1 RES1    0.0000
     21 H3         2.8505    0.4522    1.2834 H         1 RES1    0.0000
     22 H4         1.3517    1.8690    4.3686 H         1 RES1    0.0000
     23 H5         1.8087    2.4124    0.7309 H         1 RES1    0.0000
     24 H6         4.8215    4.3695    2.3543 H         1 RES1    0.0000
@<TRIPOS>BOND
     1    1    2 1
     2    2    3 1
     3    3    4 1
     4    4    5 1
     5    5    6 1
     6    6    7 1
     7    7    1 1
     8    8    7 1
     9    9    5 1
    10   10    9 1
    11   11    3 1
    12   12    1 1
    13   13    4 1
    14   14   13 2
    15   15   13 2
    16   16   10 1
    17   17   16 2
    18   18   16 2
    19   19    1 1
    20   20    3 1
    21   21    5 1
    22   22    7 1
    23   23    9 1
    24   24   11 1
    25    8    9 1
    26   10   11 1
    27   11   12 1
@<TRIPOS>SUBSTRUCTURE
     1 RES1 1

@<TRIPOS>CRYSIN
   6.8519    7.6550    8.8380  82.4400  74.8900  79.4100   2 1

