# MOL2 file generated by ConQuest
# Please check atom types

@<TRIPOS>MOLECULE
MUGNUX
    24    27     1
SMALL
NO_CHARGES
****
Generated from CSD

@<TRIPOS>ATOM
      1 N1         3.3142    3.4923    1.3623 N.3       1 RES1    0.0000
      2 N2         2.8150    4.6762    0.7664 N.pl3     1 RES1    0.0000
      3 O1         1.9725    4.5404   -0.1032 O.2       1 RES1    0.0000
      4 O2         3.3181    5.7255    1.1114 O.2       1 RES1    0.0000
      5 C1         4.1644    3.7102    2.5168 C.3       1 RES1    0.0000
      6 H1         4.7745    4.4256    2.3392 H         1 RES1    0.0000
      7 C2         4.8625    2.3658    2.9007 C.3       1 RES1    0.0000
      8 H2         5.8067    2.4464    2.8797 H         1 RES1    0.0000
      9 N3         4.4211    1.3356    1.9841 N.3       1 RES1    0.0000
     10 N4         5.2485    0.2244    1.8103 N.pl3     1 RES1    0.0000
     11 O3         6.3906    0.3113    2.2090 O.2       1 RES1    0.0000
     12 O4         4.7725   -0.7384    1.2218 O.2       1 RES1    0.0000
     13 C3         2.9928    1.1136    1.9042 C.3       1 RES1    0.0000
     14 H3         2.8160    0.4293    1.2583 H         1 RES1    0.0000
     15 C4         2.2931    2.4501    1.5169 C.3       1 RES1    0.0000
     16 H4         1.7742    2.3912    0.6925 H         1 RES1    0.0000
     17 O5         3.4269    4.0619    3.6810 O.3       1 RES1    0.0000
     18 O6         4.4237    2.1347    4.2357 O.3       1 RES1    0.0000
     19 O7         2.4279    0.7936    3.1685 O.3       1 RES1    0.0000
     20 O8         1.4349    2.7259    2.6133 O.3       1 RES1    0.0000
     21 C5         3.1938    2.8299    4.3522 C.3       1 RES1    0.0000
     22 H5         3.0194    3.0014    5.2781 H         1 RES1    0.0000
     23 C6         1.9957    2.0260    3.7162 C.3       1 RES1    0.0000
     24 H6         1.3150    1.8440    4.3576 H         1 RES1    0.0000
@<TRIPOS>BOND
     1    1    2 1
     2    2    3 2
     3    4    2 2
     4    5    1 1
     5    6    5 1
     6    7    5 1
     7    8    7 1
     8    9    7 1
     9   10    9 1
    10   11   10 2
    11   12   10 2
    12   13    9 1
    13   14   13 1
    14   15    1 1
    15   16   15 1
    16   17    5 1
    17   18    7 1
    18   19   13 1
    19   20   15 1
    20   21   17 1
    21   22   21 1
    22   23   19 1
    23   24   23 1
    24   13   15 1
    25   18   21 1
    26   20   23 1
    27   21   23 1
@<TRIPOS>SUBSTRUCTURE
     1 RES1 1

@<TRIPOS>CRYSIN
   6.8360    7.6404    8.7765  82.3700  75.0500  79.4600   2 1

