# MOL2 file generated by ConQuest
# Please check atom types

@<TRIPOS>MOLECULE
MUGTAJ
    64    68     2
SMALL
NO_CHARGES
****
Generated from CSD

@<TRIPOS>ATOM
      1 C1         9.4307   -1.4951   13.4141 C.3       1 RES1    0.0000
      2 H1         8.9960   -2.1638   12.8803 H         1 RES1    0.0000
      3 N1         8.8693   -0.1615   13.0092 N.am      1 RES1    0.0000
      4 H2         7.7536   -0.1842   13.1291 H         1 RES1    0.0000
      5 C2         9.5714    1.0074   13.0997 C.2       1 RES1    0.0000
      6 O1         9.0049    2.0834   12.9927 O.2       1 RES1    0.0000
      7 C3        11.0183    0.8942   13.4050 C.3       1 RES1    0.0000
      8 H3        11.1500    1.1221   14.3278 H         1 RES1    0.0000
      9 H4        11.4668    1.5598   12.8758 H         1 RES1    0.0000
     10 C4        11.6871   -0.4534   13.1675 C.ar      1 RES1    0.0000
     11 C5        13.0416   -0.5283   12.9843 C.ar      1 RES1    0.0000
     12 H5        13.5795    0.2661   13.0070 H         1 RES1    0.0000
     13 C6        13.6421   -1.7487   12.8011 C.ar      1 RES1    0.0000
     14 H6        14.5950   -1.8087   12.7016 H         1 RES1    0.0000
     15 C7        12.8651   -2.9082   12.7242 C.ar      1 RES1    0.0000
     16 H7        13.2826   -3.7595   12.5727 H         1 RES1    0.0000
     17 C8        11.5068   -2.8294   12.8735 C.ar      1 RES1    0.0000
     18 H8        10.9613   -3.6175   12.8147 H         1 RES1    0.0000
     19 C9        10.8914   -1.5840   13.1268 C.ar      1 RES1    0.0000
     20 C10        9.1055   -1.7728   14.8774 C.ar      1 RES1    0.0000
     21 C11        9.0867   -3.1009   15.3659 C.ar      1 RES1    0.0000
     22 H9         9.2147   -3.8453   14.7733 H         1 RES1    0.0000
     23 C12        8.9012   -3.3030   16.7071 C.ar      1 RES1    0.0000
     24 C13        8.6510   -2.3471   17.5914 C.ar      1 RES1    0.0000
     25 H10        8.4564   -2.5516   18.5074 H         1 RES1    0.0000
     26 C14        8.6727   -1.0269   17.1029 C.ar      1 RES1    0.0000
     27 H11        8.5512   -0.3004   17.7180 H         1 RES1    0.0000
     28 C15        8.8456   -0.7834   15.7594 C.ar      1 RES1    0.0000
     29 H12        8.8082    0.1225   15.4428 H         1 RES1    0.0000
     30 N2         8.8847   -4.7505   17.1481 N.pl3     1 RES1    0.0000
     31 O2         8.6818   -4.9401   18.3129 O.2       1 RES1    0.0000
     32 O3         9.0462   -5.5487   16.3113 O.2       1 RES1    0.0000
     33 C16        5.5868    3.4692   13.9388 C.3       2 RES2    0.0000
     34 H13        6.1779    4.1411   13.5950 H         2 RES2    0.0000
     35 N3         6.2206    2.1357   13.6696 N.am      2 RES2    0.0000
     36 H14        7.3150    2.2207   13.2015 H         2 RES2    0.0000
     37 C17        5.4588    1.0347   13.3892 C.2       2 RES2    0.0000
     38 O4         6.0440   -0.0523   13.1087 O.2       2 RES2    0.0000
     39 C18        4.0042    1.1205   13.4367 C.3       2 RES2    0.0000
     40 H15        3.7118    0.9715   14.3391 H         2 RES2    0.0000
     41 H16        3.6245    0.4370   12.8803 H         2 RES2    0.0000
     42 C19        3.5118    2.4868   12.9934 C.ar      2 RES2    0.0000
     43 C20        2.2927    2.6093   12.3579 C.ar      2 RES2    0.0000
     44 H17        1.7362    1.8384   12.2267 H         2 RES2    0.0000
     45 C21        1.8707    3.8914   11.9327 C.ar      2 RES2    0.0000
     46 H18        1.0416    3.9866   11.4577 H         2 RES2    0.0000
     47 C22        2.6722    4.9807   12.1430 C.ar      2 RES2    0.0000
     48 H19        2.3612    5.8468   11.8693 H         2 RES2    0.0000
     49 C23        3.8688    4.8535   12.7808 C.ar      2 RES2    0.0000
     50 H20        4.4282    5.6221   12.9120 H         2 RES2    0.0000
     51 C24        4.3011    3.6042   13.2060 C.ar      2 RES2    0.0000
     52 C25        5.4805    3.7017   15.4111 C.ar      2 RES2    0.0000
     53 C26        5.3425    5.0205   15.8522 C.ar      2 RES2    0.0000
     54 H21        5.3588    5.7508   15.2302 H         2 RES2    0.0000
     55 C27        5.1772    5.2233   17.2137 C.ar      2 RES2    0.0000
     56 C28        5.1421    4.2550   18.1613 C.ar      2 RES2    0.0000
     57 H22        5.0048    4.4547   19.0886 H         2 RES2    0.0000
     58 C29        5.2742    2.9425   17.7203 C.ar      2 RES2    0.0000
     59 H23        5.2730    2.2153   18.3468 H         2 RES2    0.0000
     60 C30        5.4216    2.6647   16.3669 C.ar      2 RES2    0.0000
     61 H24        5.5256    1.7572   16.0715 H         2 RES2    0.0000
     62 N4         5.1483    6.7238   17.6199 N.pl3     2 RES2    0.0000
     63 O5         5.0440    6.8378   18.8141 O.2       2 RES2    0.0000
     64 O6         4.8962    7.5346   16.8369 O.2       2 RES2    0.0000
@<TRIPOS>BOND
     1    1    2 1
     2    3    1 1
     3    4    3 1
     4    5    3 1
     5    6    5 2
     6    7    5 1
     7    8    7 1
     8    9    7 1
     9   10    7 1
    10   11   10 ar
    11   12   11 1
    12   13   11 ar
    13   14   13 1
    14   15   13 ar
    15   16   15 1
    16   17   15 ar
    17   18   17 1
    18   19    1 1
    19   20    1 1
    20   21   20 ar
    21   22   21 1
    22   23   21 ar
    23   24   23 ar
    24   25   24 1
    25   26   24 ar
    26   27   26 1
    27   28   20 ar
    28   29   28 1
    29   30   23 1
    30   31   30 2
    31   32   30 2
    32   33   34 1
    33   35   33 1
    34   36   35 1
    35   37   35 1
    36   38   37 2
    37   39   37 1
    38   40   39 1
    39   41   39 1
    40   42   39 1
    41   43   42 ar
    42   44   43 1
    43   45   43 ar
    44   46   45 1
    45   47   45 ar
    46   48   47 1
    47   49   47 ar
    48   50   49 1
    49   51   33 1
    50   52   33 1
    51   53   52 ar
    52   54   53 1
    53   55   53 ar
    54   56   55 ar
    55   57   56 1
    56   58   56 ar
    57   59   58 1
    58   60   52 ar
    59   61   60 1
    60   62   55 1
    61   63   62 2
    62   64   62 2
    63   10   19 ar
    64   17   19 ar
    65   26   28 ar
    66   42   51 ar
    67   49   51 ar
    68   58   60 ar
@<TRIPOS>SUBSTRUCTURE
     1 RES1 1
     2 RES2 33

@<TRIPOS>CRYSIN
  14.6400    7.8030   23.2240  90.0000 103.1300  90.0000  13 1

