# MOL2 file generated by ConQuest
# Please check atom types

@<TRIPOS>MOLECULE
MUHLIL
    42    46     1
SMALL
NO_CHARGES
****
Generated from CSD

@<TRIPOS>ATOM
      1 C1         6.9700    6.2930   22.5225 C.3       1 RES1    0.0000
      2 C2         7.3812    6.5525   21.0564 C.3       1 RES1    0.0000
      3 H1         7.0626    7.4403   20.7546 H         1 RES1    0.0000
      4 H2         8.3656    6.5163   20.9569 H         1 RES1    0.0000
      5 C3         6.7098    5.4298   20.2473 C.3       1 RES1    0.0000
      6 H3         5.7596    5.6574   20.0340 H         1 RES1    0.0000
      7 C4         6.7889    4.2552   21.2178 C.3       1 RES1    0.0000
      8 C5         6.8879    4.7526   22.6422 C.3       1 RES1    0.0000
      9 H4         7.6962    4.3916   23.0851 H         1 RES1    0.0000
     10 H5         6.0906    4.4839   23.1630 H         1 RES1    0.0000
     11 C6         5.5939    6.8962   22.8387 C.3       1 RES1    0.0000
     12 H6         4.9544    6.6403   22.1284 H         1 RES1    0.0000
     13 H7         5.2635    6.5239   23.6940 H         1 RES1    0.0000
     14 O1         5.6480    8.3254   22.9344 O.3       1 RES1    0.0000
     15 C7         6.5935    8.7067   23.9058 C.3       1 RES1    0.0000
     16 H8         6.5766    9.6921   24.0058 H         1 RES1    0.0000
     17 H9         6.3437    8.3068   24.7770 H         1 RES1    0.0000
     18 O2         7.8921    8.3000   23.5680 O.3       1 RES1    0.0000
     19 C8         7.9546    6.8681   23.5349 C.3       1 RES1    0.0000
     20 H10        7.7476    6.5103   24.4336 H         1 RES1    0.0000
     21 H11        8.8727    6.5844   23.2979 H         1 RES1    0.0000
     22 C9         7.7154    3.2824   20.5827 C.3       1 RES1    0.0000
     23 H12        8.3729    2.8234   21.1803 H         1 RES1    0.0000
     24 O3         8.1991    3.7701   19.3507 O.3       1 RES1    0.0000
     25 C10        7.4674    4.9525   18.9773 C.3       1 RES1    0.0000
     26 H13        8.1171    5.6619   18.7045 H         1 RES1    0.0000
     27 C11        6.2613    2.9197   20.7555 C.3       1 RES1    0.0000
     28 H14        5.6899    2.9020   19.9476 H         1 RES1    0.0000
     29 H15        6.0301    2.2487   21.4458 H         1 RES1    0.0000
     30 C12        6.5703    4.6178   17.7849 C.ar      1 RES1    0.0000
     31 C13        5.9210    5.5594   16.9655 C.ar      1 RES1    0.0000
     32 C14        5.1582    5.1905   15.8667 C.ar      1 RES1    0.0000
     33 H16        4.7298    5.8555   15.3395 H         1 RES1    0.0000
     34 C15        5.0237    3.8599   15.5422 C.ar      1 RES1    0.0000
     35 H17        4.5106    3.6007   14.7853 H         1 RES1    0.0000
     36 C16        5.6416    2.9054   16.3266 C.ar      1 RES1    0.0000
     37 H18        5.5450    1.9841   16.1149 H         1 RES1    0.0000
     38 C17        6.3999    3.2848   17.4179 C.ar      1 RES1    0.0000
     39 H19        6.8214    2.6102   17.9375 H         1 RES1    0.0000
     40 N1         6.0566    7.0060   17.1990 N.pl3     1 RES1    0.0000
     41 O4         6.7814    7.4045   18.0972 O.2       1 RES1    0.0000
     42 O5         5.4198    7.7742   16.4807 O.2       1 RES1    0.0000
@<TRIPOS>BOND
     1    1    2 1
     2    2    3 1
     3    4    2 1
     4    5    2 1
     5    6    5 1
     6    7    5 1
     7    8    1 1
     8    9    8 1
     9   10    8 1
    10   11    1 1
    11   12   11 1
    12   13   11 1
    13   14   11 1
    14   15   14 1
    15   16   15 1
    16   17   15 1
    17   18   15 1
    18   19    1 1
    19   20   19 1
    20   21   19 1
    21   22    7 1
    22   23   22 1
    23   24   22 1
    24   25    5 1
    25   26   25 1
    26   27    7 1
    27   28   27 1
    28   29   27 1
    29   30   25 1
    30   31   30 ar
    31   32   31 ar
    32   33   32 1
    33   34   32 ar
    34   35   34 1
    35   36   34 ar
    36   37   36 1
    37   38   30 ar
    38   39   38 1
    39   40   31 1
    40   41   40 2
    41   42   40 2
    42    7    8 1
    43   18   19 1
    44   22   27 1
    45   24   25 1
    46   36   38 ar
@<TRIPOS>SUBSTRUCTURE
     1 RES1 1

@<TRIPOS>CRYSIN
   9.1698   15.1226   21.0707  90.0000  90.0000  90.0000  61 1

