# MOL2 file generated by ConQuest
# Please check atom types

@<TRIPOS>MOLECULE
MUHLUX
    67    70     1
SMALL
NO_CHARGES
****
Generated from CSD

@<TRIPOS>ATOM
      1 C1        -1.0458   -3.6520    3.0053 C.3       1 RES1    0.0000
      2 C2        -0.5001   -2.4241    2.2254 C.3       1 RES1    0.0000
      3 H1         0.1618   -2.7135    1.5478 H         1 RES1    0.0000
      4 H2        -1.2388   -1.9535    1.7646 H         1 RES1    0.0000
      5 C3         0.1607   -1.4998    3.2526 C.3       1 RES1    0.0000
      6 C4         0.5536   -2.4494    4.4068 C.3       1 RES1    0.0000
      7 H3         1.3849   -2.9446    4.1518 H         1 RES1    0.0000
      8 C5        -0.6128   -3.4384    4.4792 C.3       1 RES1    0.0000
      9 H4        -1.3577   -3.0643    5.0140 H         1 RES1    0.0000
     10 H5        -0.3241   -4.2920    4.8881 H         1 RES1    0.0000
     11 C6        -0.3994   -4.9012    2.4038 C.2       1 RES1    0.0000
     12 O1         0.4781   -5.5463    2.8921 O.2       1 RES1    0.0000
     13 O2        -0.9187   -5.1414    1.1912 O.3       1 RES1    0.0000
     14 C7        -0.3050   -6.2267    0.4503 C.3       1 RES1    0.0000
     15 H6         0.6323   -6.0080    0.2658 H         1 RES1    0.0000
     16 H7        -0.7833   -6.3566   -0.3952 H         1 RES1    0.0000
     17 H8        -0.3493   -7.0505    0.9811 H         1 RES1    0.0000
     18 C8        -2.5555   -3.7936    2.9047 C.2       1 RES1    0.0000
     19 O3        -3.3135   -3.0208    2.3900 O.2       1 RES1    0.0000
     20 O4        -2.9292   -4.9333    3.5018 O.3       1 RES1    0.0000
     21 C9        -4.3388   -5.2433    3.4808 C.3       1 RES1    0.0000
     22 H9        -4.8354   -4.5347    3.9402 H         1 RES1    0.0000
     23 H10       -4.4923   -6.0967    3.9350 H         1 RES1    0.0000
     24 H11       -4.6451   -5.3079    2.5516 H         1 RES1    0.0000
     25 C10        1.3317   -0.7284    2.6835 C.2       1 RES1    0.0000
     26 H12        2.1960   -1.0561    2.9049 H         1 RES1    0.0000
     27 C11        1.2959    0.3550    1.9106 C.2       1 RES1    0.0000
     28 C12        2.5650    0.9623    1.3743 C.3       1 RES1    0.0000
     29 H13        3.3331    0.4321    1.6719 H         1 RES1    0.0000
     30 H14        2.6543    1.8802    1.7069 H         1 RES1    0.0000
     31 H15        2.5343    0.9719    0.3952 H         1 RES1    0.0000
     32 C13        0.0330    1.0722    1.4997 C.3       1 RES1    0.0000
     33 H16       -0.7375    0.4832    1.6422 H         1 RES1    0.0000
     34 H17        0.0884    1.3131    0.5509 H         1 RES1    0.0000
     35 H18       -0.0719    1.8842    2.0374 H         1 RES1    0.0000
     36 C14        0.8188   -1.6585    5.7027 C.3       1 RES1    0.0000
     37 H19        1.6278   -1.0832    5.5807 H         1 RES1    0.0000
     38 O5        -0.3219   -0.8244    5.9845 O.3       1 RES1    0.0000
     39 C15       -0.5458    0.0559    4.8883 C.3       1 RES1    0.0000
     40 H20        0.2792    0.5930    4.7115 H         1 RES1    0.0000
     41 O6        -0.9114   -0.6484    3.7326 O.3       1 RES1    0.0000
     42 C16       -1.6881    0.9789    5.2680 C.ar      1 RES1    0.0000
     43 C17       -1.5940    1.8745    6.3306 C.ar      1 RES1    0.0000
     44 C18       -2.6292    2.7141    6.7069 C.ar      1 RES1    0.0000
     45 H21       -2.5339    3.2951    7.4520 H         1 RES1    0.0000
     46 C19       -3.8028    2.6894    5.9784 C.ar      1 RES1    0.0000
     47 H22       -4.5105    3.2850    6.1945 H         1 RES1    0.0000
     48 C20       -3.9427    1.7963    4.9364 C.ar      1 RES1    0.0000
     49 H23       -4.7600    1.7626    4.4526 H         1 RES1    0.0000
     50 C21       -2.8981    0.9428    4.5859 C.ar      1 RES1    0.0000
     51 H24       -3.0144    0.3288    3.8703 H         1 RES1    0.0000
     52 N1        -0.3667    1.9290    7.1505 N.pl3     1 RES1    0.0000
     53 O7         0.7103    2.0234    6.5793 O.2       1 RES1    0.0000
     54 O8        -0.4947    1.8819    8.3619 O.2       1 RES1    0.0000
     55 C22        1.0293   -2.5769    6.8963 C.ar      1 RES1    0.0000
     56 C23        2.2252   -3.2419    7.2167 C.ar      1 RES1    0.0000
     57 C24        2.3395   -4.0923    8.3098 C.ar      1 RES1    0.0000
     58 H25        3.1640   -4.5261    8.4943 H         1 RES1    0.0000
     59 C25        1.2468   -4.3013    9.1253 C.ar      1 RES1    0.0000
     60 H26        1.3153   -4.8757    9.8794 H         1 RES1    0.0000
     61 C26        0.0556   -3.6721    8.8393 C.ar      1 RES1    0.0000
     62 H27       -0.7000   -3.8140    9.3985 H         1 RES1    0.0000
     63 C27       -0.0482   -2.8336    7.7404 C.ar      1 RES1    0.0000
     64 H28       -0.8832   -2.4191    7.5569 H         1 RES1    0.0000
     65 N2         3.4700   -3.0556    6.4315 N.pl3     1 RES1    0.0000
     66 O9         4.4697   -3.6347    6.8077 O.2       1 RES1    0.0000
     67 O10        3.4677   -2.3296    5.4607 O.2       1 RES1    0.0000
@<TRIPOS>BOND
     1    1    2 1
     2    2    3 1
     3    4    2 1
     4    5    2 1
     5    6    5 1
     6    7    6 1
     7    8    1 1
     8    9    8 1
     9   10    8 1
    10   11    1 1
    11   12   11 2
    12   13   11 1
    13   14   13 1
    14   15   14 1
    15   16   14 1
    16   17   14 1
    17   18    1 1
    18   19   18 2
    19   20   18 1
    20   21   20 1
    21   22   21 1
    22   23   21 1
    23   24   21 1
    24   25    5 1
    25   26   25 1
    26   27   25 2
    27   28   27 1
    28   29   28 1
    29   30   28 1
    30   31   28 1
    31   32   27 1
    32   33   32 1
    33   34   32 1
    34   35   32 1
    35   36    6 1
    36   37   36 1
    37   38   36 1
    38   39   38 1
    39   40   39 1
    40   41    5 1
    41   42   39 1
    42   43   42 ar
    43   44   43 ar
    44   45   44 1
    45   46   44 ar
    46   47   46 1
    47   48   46 ar
    48   49   48 1
    49   50   42 ar
    50   51   50 1
    51   52   43 1
    52   53   52 2
    53   54   52 2
    54   55   36 1
    55   56   55 ar
    56   57   56 ar
    57   58   57 1
    58   59   57 ar
    59   60   59 1
    60   61   59 ar
    61   62   61 1
    62   63   55 ar
    63   64   63 1
    64   65   56 1
    65   66   65 2
    66   67   65 2
    67    6    8 1
    68   39   41 1
    69   48   50 ar
    70   61   63 ar
@<TRIPOS>SUBSTRUCTURE
     1 RES1 1

@<TRIPOS>CRYSIN
   7.7398    9.7750   18.2970 100.9340 100.0870 103.2360   2 1

