# MOL2 file generated by ConQuest
# Please check atom types

@<TRIPOS>MOLECULE
MUHLOR
    82    90     2
SMALL
NO_CHARGES
****
Generated from CSD

@<TRIPOS>ATOM
      1 C1        11.8410    2.8022   16.7672 C.3       1 RES1    0.0000
      2 C2        11.8015    2.4263   15.2736 C.3       1 RES1    0.0000
      3 H1        12.3962    3.0176   14.7453 H         1 RES1    0.0000
      4 H2        12.0831    1.4870   15.1382 H         1 RES1    0.0000
      5 C3        10.3410    2.6195   14.8666 C.3       1 RES1    0.0000
      6 H3        10.1280    3.5821   14.7005 H         1 RES1    0.0000
      7 C4         9.6218    2.0876   16.0979 C.3       1 RES1    0.0000
      8 C5        10.4699    2.3471   17.3301 C.3       1 RES1    0.0000
      9 H4        10.5665    1.5242   17.8723 H         1 RES1    0.0000
     10 H5        10.0672    3.0560   17.8926 H         1 RES1    0.0000
     11 C6        13.0038    2.1714   17.4993 C.3       1 RES1    0.0000
     12 H6        12.9453    2.3902   18.4626 H         1 RES1    0.0000
     13 H7        12.9594    1.1867   17.4040 H         1 RES1    0.0000
     14 O1        14.2641    2.6521   16.9698 O.3       1 RES1    0.0000
     15 C7        14.3992    3.8865   16.4920 C.2       1 RES1    0.0000
     16 O2        15.4447    4.2659   16.0531 O.2       1 RES1    0.0000
     17 O3        13.3345    4.6960   16.4450 O.3       1 RES1    0.0000
     18 C8        12.0442    4.2909   16.9466 C.3       1 RES1    0.0000
     19 H8        11.3325    4.7815   16.4635 H         1 RES1    0.0000
     20 H9        11.9771    4.5197   17.9069 H         1 RES1    0.0000
     21 C9         9.0613    0.7787   15.6563 C.3       1 RES1    0.0000
     22 H10        9.1288    0.0140   16.2965 H         1 RES1    0.0000
     23 O4         9.3774    0.5162   14.3015 O.3       1 RES1    0.0000
     24 C10        9.8856    1.7238   13.6976 C.3       1 RES1    0.0000
     25 H11       10.6881    1.4881   13.1512 H         1 RES1    0.0000
     26 C11        8.1266    1.8978   16.0207 C.3       1 RES1    0.0000
     27 H12        7.6261    1.8233   16.8706 H         1 RES1    0.0000
     28 H13        7.6395    2.3518   15.2868 H         1 RES1    0.0000
     29 C12        8.8404    2.3454   12.7736 C.ar      1 RES1    0.0000
     30 C13        9.0151    3.5221   12.0399 C.ar      1 RES1    0.0000
     31 C14        8.0151    4.0791   11.2590 C.ar      1 RES1    0.0000
     32 H14        8.1666    4.8945   10.7958 H         1 RES1    0.0000
     33 C15        6.8019    3.4395   11.1610 C.ar      1 RES1    0.0000
     34 H15        6.1022    3.8137   10.6370 H         1 RES1    0.0000
     35 C16        6.6083    2.2523   11.8308 C.ar      1 RES1    0.0000
     36 H16        5.7839    1.7908   11.7425 H         1 RES1    0.0000
     37 C17        7.6058    1.7279   12.6289 C.ar      1 RES1    0.0000
     38 H17        7.4406    0.9166   13.0942 H         1 RES1    0.0000
     39 N1        10.3144    4.2223   11.9866 N.pl3     1 RES1    0.0000
     40 O5        11.3177    3.6310   12.3795 O.2       1 RES1    0.0000
     41 O6        10.3506    5.3536   11.5218 O.2       1 RES1    0.0000
     42 C18        2.5573    5.3350    7.9249 C.3       2 RES2    0.0000
     43 C19        1.4924    4.8834    8.9646 C.3       2 RES2    0.0000
     44 H18        1.9185    4.3422    9.6761 H         2 RES2    0.0000
     45 H19        1.0667    5.6737    9.3830 H         2 RES2    0.0000
     46 C20        0.4397    4.0477    8.2201 C.3       2 RES2    0.0000
     47 H20        0.4963    3.0862    8.4893 H         2 RES2    0.0000
     48 C21        0.8002    4.2182    6.7582 C.3       2 RES2    0.0000
     49 C22        2.2783    4.4935    6.6583 C.3       2 RES2    0.0000
     50 H21        2.4926    5.0015    5.8366 H         2 RES2    0.0000
     51 H22        2.7996    3.6519    6.6652 H         2 RES2    0.0000
     52 C23        2.4355    6.7911    7.5793 C.3       2 RES2    0.0000
     53 H23        3.0543    7.0041    6.8362 H         2 RES2    0.0000
     54 H24        1.5122    6.9785    7.2719 H         2 RES2    0.0000
     55 O7         2.7421    7.6373    8.7181 O.3       2 RES2    0.0000
     56 C24        3.5059    7.2206    9.7236 C.2       2 RES2    0.0000
     57 O8         3.6519    7.9219   10.6863 O.2       2 RES2    0.0000
     58 O9         4.0911    6.0270    9.6641 O.3       2 RES2    0.0000
     59 C25        3.9454    5.1878    8.4823 C.3       2 RES2    0.0000
     60 H25        4.1119    4.2415    8.7214 H         2 RES2    0.0000
     61 H26        4.6106    5.4549    7.7991 H         2 RES2    0.0000
     62 C26       -0.2878    5.0685    6.1917 C.3       2 RES2    0.0000
     63 H27       -0.0226    5.7895    5.5516 H         2 RES2    0.0000
     64 O10       -1.2384    5.3967    7.1874 O.3       2 RES2    0.0000
     65 C27       -1.0125    4.5674    8.3386 C.3       2 RES2    0.0000
     66 H28       -1.0755    5.1395    9.1570 H         2 RES2    0.0000
     67 C28       -0.1409    3.6449    5.7302 C.3       2 RES2    0.0000
     68 H29        0.2098    3.4890    4.8187 H         2 RES2    0.0000
     69 H30       -0.8160    2.9879    6.0361 H         2 RES2    0.0000
     70 C29       -2.0623    3.4738    8.4363 C.ar      2 RES2    0.0000
     71 C30       -2.0411    2.4379    9.3702 C.ar      2 RES2    0.0000
     72 C31       -2.9767    1.4241    9.3962 C.ar      2 RES2    0.0000
     73 H31       -2.9126    0.7269   10.0385 H         2 RES2    0.0000
     74 C32       -4.0128    1.4346    8.4769 C.ar      2 RES2    0.0000
     75 H32       -4.6579    0.7374    8.4709 H         2 RES2    0.0000
     76 C33       -4.0955    2.4647    7.5748 C.ar      2 RES2    0.0000
     77 H33       -4.8210    2.4926    6.9604 H         2 RES2    0.0000
     78 C34       -3.1389    3.4616    7.5479 C.ar      2 RES2    0.0000
     79 H34       -3.2162    4.1588    6.9075 H         2 RES2    0.0000
     80 N2        -1.0331    2.3902   10.4459 N.pl3     2 RES2    0.0000
     81 O11       -0.5278    3.4378   10.8198 O.2       2 RES2    0.0000
     82 O12       -0.7591    1.3031   10.9339 O.2       2 RES2    0.0000
@<TRIPOS>BOND
     1    1    2 1
     2    2    3 1
     3    4    2 1
     4    5    2 1
     5    6    5 1
     6    7    5 1
     7    8    1 1
     8    9    8 1
     9   10    8 1
    10   11    1 1
    11   12   11 1
    12   13   11 1
    13   14   11 1
    14   15   14 1
    15   16   15 2
    16   17   15 1
    17   18    1 1
    18   19   18 1
    19   20   18 1
    20   21    7 1
    21   22   21 1
    22   23   21 1
    23   24    5 1
    24   25   24 1
    25   26    7 1
    26   27   26 1
    27   28   26 1
    28   29   24 1
    29   30   29 ar
    30   31   30 ar
    31   32   31 1
    32   33   31 ar
    33   34   33 1
    34   35   33 ar
    35   36   35 1
    36   37   29 ar
    37   38   37 1
    38   39   30 1
    39   40   39 2
    40   41   39 2
    41   42   43 1
    42   43   44 1
    43   45   43 1
    44   46   43 1
    45   47   46 1
    46   48   46 1
    47   49   42 1
    48   50   49 1
    49   51   49 1
    50   52   42 1
    51   53   52 1
    52   54   52 1
    53   55   52 1
    54   56   55 1
    55   57   56 2
    56   58   56 1
    57   59   42 1
    58   60   59 1
    59   61   59 1
    60   62   48 1
    61   63   62 1
    62   64   62 1
    63   65   46 1
    64   66   65 1
    65   67   48 1
    66   68   67 1
    67   69   67 1
    68   70   65 1
    69   71   70 ar
    70   72   71 ar
    71   73   72 1
    72   74   72 ar
    73   75   74 1
    74   76   74 ar
    75   77   76 1
    76   78   70 ar
    77   79   78 1
    78   80   71 1
    79   81   80 2
    80   82   80 2
    81    7    8 1
    82   17   18 1
    83   21   26 1
    84   23   24 1
    85   35   37 ar
    86   48   49 1
    87   58   59 1
    88   62   67 1
    89   64   65 1
    90   76   78 ar
@<TRIPOS>SUBSTRUCTURE
     1 RES1 1
     2 RES2 42

@<TRIPOS>CRYSIN
  24.9680    5.8198   21.6700  90.0000 110.0400  90.0000  14 1

