# MOL2 file generated by ConQuest
# Please check atom types

@<TRIPOS>MOLECULE
MUJCEA
    49    50     1
SMALL
NO_CHARGES
****
Generated from CSD

@<TRIPOS>ATOM
      1 O1         1.1910   10.3791    8.0415 O.3       1 RES1    0.0000
      2 O2         2.3839    9.6310    5.4740 O.3       1 RES1    0.0000
      3 O3         4.3567    8.5352    5.3175 O.2       1 RES1    0.0000
      4 O4         0.4186    9.4701   10.2588 O.3       1 RES1    0.0000
      5 O5         1.4205   11.1227   11.4721 O.2       1 RES1    0.0000
      6 O6         3.9020   13.2737   -0.1474 O.2       1 RES1    0.0000
      7 O7         5.8605   12.3650   -0.2104 O.2       1 RES1    0.0000
      8 N1         1.4095   11.1791    9.1944 N.am      1 RES1    0.0000
      9 N2         4.7516   12.5176    0.2927 N.pl3     1 RES1    0.0000
     10 C1         2.6496   11.9567    9.0735 C.3       1 RES1    0.0000
     11 C2         3.7728   11.0369    8.6879 C.2       1 RES1    0.0000
     12 C3         3.5550    9.8354    8.1759 C.2       1 RES1    0.0000
     13 C4         2.1721    9.3228    7.9242 C.3       1 RES1    0.0000
     14 C5         1.1133   10.5891   10.4267 C.2       1 RES1    0.0000
     15 C6        -0.0533    8.6776   11.4270 C.3       1 RES1    0.0000
     16 C7        -1.0266    9.4954   12.2444 C.3       1 RES1    0.0000
     17 C8         1.1432    8.1952   12.2260 C.3       1 RES1    0.0000
     18 C9        -0.7559    7.5234   10.7459 C.3       1 RES1    0.0000
     19 C10        2.4805   13.0890    8.0709 C.3       1 RES1    0.0000
     20 C11        1.9514    8.7410    6.5398 C.3       1 RES1    0.0000
     21 C12        3.5811    9.3722    4.9194 C.2       1 RES1    0.0000
     22 C13        3.8404   10.2308    3.7196 C.ar      1 RES1    0.0000
     23 C14        2.9220   11.1740    3.2552 C.ar      1 RES1    0.0000
     24 C15        3.2098   11.9305    2.1220 C.ar      1 RES1    0.0000
     25 C16        4.4251   11.7192    1.4928 C.ar      1 RES1    0.0000
     26 C17        5.3535   10.7970    1.9299 C.ar      1 RES1    0.0000
     27 C18        5.0523   10.0483    3.0578 C.ar      1 RES1    0.0000
     28 H1         1.9646    8.6187    8.6034 H         1 RES1    0.0000
     29 H2         4.2982    9.2831    7.9618 H         1 RES1    0.0000
     30 H3         4.6688   11.3271    8.8153 H         1 RES1    0.0000
     31 H4         2.8602   12.3550    9.9659 H         1 RES1    0.0000
     32 H5         2.4456    7.8863    6.4668 H         1 RES1    0.0000
     33 H6         0.9880    8.5434    6.4236 H         1 RES1    0.0000
     34 H7         2.2188   12.7190    7.2018 H         1 RES1    0.0000
     35 H8         3.3273   13.5727    7.9786 H         1 RES1    0.0000
     36 H9         1.7855   13.7035    8.3872 H         1 RES1    0.0000
     37 H10        5.6760    9.4085    3.3805 H         1 RES1    0.0000
     38 H11        6.1769   10.6778    1.4713 H         1 RES1    0.0000
     39 H12        2.5915   12.5718    1.7907 H         1 RES1    0.0000
     40 H13        2.0992   11.2996    3.7125 H         1 RES1    0.0000
     41 H14        1.7670    7.7289   11.6311 H         1 RES1    0.0000
     42 H15        0.8418    7.5819   12.9281 H         1 RES1    0.0000
     43 H16        1.5940    8.9628   12.6352 H         1 RES1    0.0000
     44 H17       -1.5125    7.8631   10.2239 H         1 RES1    0.0000
     45 H18       -1.0828    6.8944   11.4233 H         1 RES1    0.0000
     46 H19       -0.1274    7.0640   10.1500 H         1 RES1    0.0000
     47 H20       -0.5496   10.2324   12.6784 H         1 RES1    0.0000
     48 H21       -1.4390    8.9257   12.9267 H         1 RES1    0.0000
     49 H22       -1.7227    9.8581   11.6576 H         1 RES1    0.0000
@<TRIPOS>BOND
     1    1    8 1
     2    2   20 1
     3    3   21 2
     4    4   14 1
     5    5   14 2
     6    6    9 2
     7    7    9 2
     8    8   10 1
     9    9   25 1
    10   10   11 1
    11   11   12 2
    12   12   13 1
    13   13    1 1
    14   14    8 1
    15   15    4 1
    16   16   15 1
    17   17   15 1
    18   18   15 1
    19   19   10 1
    20   20   13 1
    21   21    2 1
    22   22   21 1
    23   23   22 ar
    24   24   23 ar
    25   25   24 ar
    26   26   25 ar
    27   27   22 ar
    28   28   13 1
    29   29   12 1
    30   30   11 1
    31   31   10 1
    32   32   20 1
    33   33   20 1
    34   34   19 1
    35   35   19 1
    36   36   19 1
    37   37   27 1
    38   38   26 1
    39   39   24 1
    40   40   23 1
    41   41   17 1
    42   42   17 1
    43   43   17 1
    44   44   18 1
    45   45   18 1
    46   46   18 1
    47   47   16 1
    48   48   16 1
    49   49   16 1
    50   26   27 ar
@<TRIPOS>SUBSTRUCTURE
     1 RES1 1

@<TRIPOS>CRYSIN
   5.8725   10.8260   14.4590  74.6940  88.6720  85.1980   2 1

