# MOL2 file generated by ConQuest
# Please check atom types

@<TRIPOS>MOLECULE
MUJKEH
    30    31     1
SMALL
NO_CHARGES
****
Generated from CSD

@<TRIPOS>ATOM
      1 O1         1.6929   -2.2623    5.9611 O.2       1 RES1    0.0000
      2 O2        -3.4905    4.9226    6.8005 O.2       1 RES1    0.0000
      3 O3        -3.4791    5.7709    4.8310 O.2       1 RES1    0.0000
      4 N1         0.6857   -0.8000    7.3565 N.am      1 RES1    0.0000
      5 N2         0.2093   -0.0540    6.3018 N.2       1 RES1    0.0000
      6 N3         2.5187   -4.4586   10.3728 N.ar      1 RES1    0.0000
      7 N4        -3.1835    4.8923    5.6181 N.pl3     1 RES1    0.0000
      8 C1         1.4267   -1.9065    7.0911 C.2       1 RES1    0.0000
      9 C2         1.8499   -2.7194    8.2834 C.ar      1 RES1    0.0000
     10 C3         1.5655   -2.4019    9.5958 C.ar      1 RES1    0.0000
     11 C4         1.9191   -3.2875   10.5879 C.ar      1 RES1    0.0000
     12 C5         2.8372   -4.7272    9.1024 C.ar      1 RES1    0.0000
     13 C6         2.5289   -3.9031    8.0479 C.ar      1 RES1    0.0000
     14 C7        -0.5562    0.9057    6.6277 C.2       1 RES1    0.0000
     15 C8        -1.1351    1.7974    5.6231 C.ar      1 RES1    0.0000
     16 C9        -1.8708    2.8849    6.0571 C.ar      1 RES1    0.0000
     17 C10       -2.4217    3.7427    5.1268 C.ar      1 RES1    0.0000
     18 C11       -2.2802    3.5575    3.7664 C.ar      1 RES1    0.0000
     19 C12       -1.5542    2.4602    3.3423 C.ar      1 RES1    0.0000
     20 C13       -0.9739    1.5995    4.2472 C.ar      1 RES1    0.0000
     21 H1         0.4624   -0.5184    8.1850 H         1 RES1    0.0000
     22 H2         1.1220   -1.6178    9.8286 H         1 RES1    0.0000
     23 H3         1.6703   -3.0532   11.5061 H         1 RES1    0.0000
     24 H4         3.2607   -5.5933    8.9401 H         1 RES1    0.0000
     25 H5         2.7478   -4.1818    7.1769 H         1 RES1    0.0000
     26 H6        -0.8348    1.0379    7.5524 H         1 RES1    0.0000
     27 H7        -1.9334    3.0229    6.9741 H         1 RES1    0.0000
     28 H8        -2.7545    4.1569    3.1388 H         1 RES1    0.0000
     29 H9        -1.4628    2.2896    2.3646 H         1 RES1    0.0000
     30 H10       -0.5092    0.8359    3.9592 H         1 RES1    0.0000
@<TRIPOS>BOND
     1    1    8 2
     2    2    7 2
     3    3    7 2
     4    4    5 1
     5    5   14 2
     6    6   11 ar
     7    7   17 1
     8    8    4 1
     9    9    8 1
    10   10    9 ar
    11   11   10 ar
    12   12    6 ar
    13   13    9 ar
    14   14   15 1
    15   15   16 ar
    16   16   17 ar
    17   17   18 ar
    18   18   19 ar
    19   19   20 ar
    20   20   15 ar
    21   21    4 1
    22   22   10 1
    23   23   11 1
    24   24   12 1
    25   25   13 1
    26   26   14 1
    27   27   16 1
    28   28   18 1
    29   29   19 1
    30   30   20 1
    31   12   13 ar
@<TRIPOS>SUBSTRUCTURE
     1 RES1 1

@<TRIPOS>CRYSIN
   8.4460   10.8000   14.1810  90.0000 106.3800  90.0000  14 1

