# MOL2 file generated by ConQuest
# Please check atom types

@<TRIPOS>MOLECULE
MUJYUL
    84    90     2
SMALL
NO_CHARGES
****
Generated from CSD

@<TRIPOS>ATOM
      1 N1         3.6095    8.4330   13.6306 N.pl3     1 RES1    0.0000
      2 N2         5.1651    9.7379   12.7358 N.2       1 RES1    0.0000
      3 N3         6.9606    9.1275   14.2587 N.ar      1 RES1    0.0000
      4 O1         2.4131    7.7628   13.8414 O.3       1 RES1    0.0000
      5 O2        -2.7641    4.5175   14.1308 O.3       1 RES1    0.0000
      6 C1         3.9023    9.3512   12.6527 C.2       1 RES1    0.0000
      7 C2         7.2201    8.3526   15.3190 C.ar      1 RES1    0.0000
      8 C3         6.2985    7.5273   15.9529 C.ar      1 RES1    0.0000
      9 C4         4.9968    7.4404   15.4983 C.ar      1 RES1    0.0000
     10 C5         4.7332    8.2115   14.3884 C.ar      1 RES1    0.0000
     11 C6         5.6988    9.0376   13.8060 C.ar      1 RES1    0.0000
     12 C7         2.9320    9.8476   11.6683 C.ar      1 RES1    0.0000
     13 C8         3.4234   10.4635   10.5123 C.ar      1 RES1    0.0000
     14 C9         2.5365   10.9580    9.5663 C.ar      1 RES1    0.0000
     15 C10        1.1787   10.8306    9.7394 C.ar      1 RES1    0.0000
     16 C11        0.6825   10.2301   10.8844 C.ar      1 RES1    0.0000
     17 C12        1.5510    9.7580   11.8572 C.ar      1 RES1    0.0000
     18 C13        2.3990    6.5124   13.0632 C.3       1 RES1    0.0000
     19 C14        1.0707    5.9002   13.3272 C.ar      1 RES1    0.0000
     20 C15        0.8601    5.0810   14.4231 C.ar      1 RES1    0.0000
     21 C16       -0.3997    4.5767   14.7245 C.ar      1 RES1    0.0000
     22 C17       -1.4670    4.9079   13.9077 C.ar      1 RES1    0.0000
     23 C18       -1.2740    5.6981   12.7856 C.ar      1 RES1    0.0000
     24 C19       -0.0176    6.2002   12.5087 C.ar      1 RES1    0.0000
     25 C20       -3.0315    3.7838   15.3254 C.3       1 RES1    0.0000
     26 H1         8.1776    8.3928   15.6636 H         1 RES1    0.0000
     27 H2         6.5797    6.9990   16.7238 H         1 RES1    0.0000
     28 H3         4.2919    6.8438   15.8831 H         1 RES1    0.0000
     29 H4         4.4064   10.5332   10.3973 H         1 RES1    0.0000
     30 H5         2.9210   11.4088    8.8328 H         1 RES1    0.0000
     31 H6         0.5505   11.1356    9.0694 H         1 RES1    0.0000
     32 H7        -0.3133   10.1256   10.9935 H         1 RES1    0.0000
     33 H8         1.2099    9.3687   12.6981 H         1 RES1    0.0000
     34 H9         2.5099    6.7908   12.0863 H         1 RES1    0.0000
     35 H10        3.1641    5.9381   13.3986 H         1 RES1    0.0000
     36 H11        1.6314    4.8635   14.9865 H         1 RES1    0.0000
     37 H12       -0.5528    4.0345   15.5313 H         1 RES1    0.0000
     38 H13       -2.0404    5.9074   12.2046 H         1 RES1    0.0000
     39 H14        0.1081    6.7745   11.6925 H         1 RES1    0.0000
     40 H15       -2.6016    2.9160   15.2885 H         1 RES1    0.0000
     41 H16       -2.6682    4.2538   16.1151 H         1 RES1    0.0000
     42 H17       -4.0472    3.7083   15.3492 H         1 RES1    0.0000
     43 N4        -1.2579    2.5513    9.5900 N.pl3     2 RES2    0.0000
     44 N5        -2.8052    3.9794    8.8744 N.2       2 RES2    0.0000
     45 N6        -4.6281    2.3867    8.7319 N.ar      2 RES2    0.0000
     46 O3        -0.0647    2.0434   10.0855 O.3       2 RES2    0.0000
     47 O4         5.0539    0.3609   13.1600 O.3       2 RES2    0.0000
     48 C21       -1.5326    3.8505    9.2327 C.2       2 RES2    0.0000
     49 C22       -4.9062    1.0912    8.9292 C.ar      2 RES2    0.0000
     50 C23       -4.0020    0.1246    9.3619 C.ar      2 RES2    0.0000
     51 C24       -2.6984    0.4707    9.6431 C.ar      2 RES2    0.0000
     52 C25       -2.4020    1.8019    9.4587 C.ar      2 RES2    0.0000
     53 C26       -3.3589    2.7159    9.0057 C.ar      2 RES2    0.0000
     54 C27       -0.5492    4.9431    9.1971 C.ar      2 RES2    0.0000
     55 C28       -1.0263    6.2468    9.0633 C.ar      2 RES2    0.0000
     56 C29       -0.1452    7.3142    9.0073 C.ar      2 RES2    0.0000
     57 C30        1.2154    7.1059    9.0886 C.ar      2 RES2    0.0000
     58 C31        1.7017    5.8130    9.2084 C.ar      2 RES2    0.0000
     59 C32        0.8240    4.7375    9.2554 C.ar      2 RES2    0.0000
     60 C33       -0.0695    2.1067   11.5542 C.3       2 RES2    0.0000
     61 C34        1.2634    1.6076   11.9957 C.ar      2 RES2    0.0000
     62 C35        1.5029    0.2575   12.1928 C.ar      2 RES2    0.0000
     63 C36        2.7537   -0.2159   12.5765 C.ar      2 RES2    0.0000
     64 C37        3.7814    0.6940   12.7641 C.ar      2 RES2    0.0000
     65 C38        3.5686    2.0516   12.5505 C.ar      2 RES2    0.0000
     66 C39        2.3230    2.4943   12.1719 C.ar      2 RES2    0.0000
     67 C40        5.3407   -1.0286   13.3139 C.3       2 RES2    0.0000
     68 H18       -5.8201    0.7944    8.7347 H         2 RES2    0.0000
     69 H19       -4.3250   -0.8062    9.4492 H         2 RES2    0.0000
     70 H20       -2.0445   -0.1508    9.9178 H         2 RES2    0.0000
     71 H21       -2.0042    6.3976    9.0103 H         2 RES2    0.0000
     72 H22       -0.5039    8.2288    8.9371 H         2 RES2    0.0000
     73 H23        1.8717    7.8728    9.0383 H         2 RES2    0.0000
     74 H24        2.7089    5.6812    9.2656 H         2 RES2    0.0000
     75 H25        1.1731    3.8497    9.3216 H         2 RES2    0.0000
     76 H26       -0.8361    1.5463   11.8513 H         2 RES2    0.0000
     77 H27       -0.2083    3.0821   11.7983 H         2 RES2    0.0000
     78 H28        0.7843   -0.3893   12.0412 H         2 RES2    0.0000
     79 H29        2.9006   -1.1471   12.7090 H         2 RES2    0.0000
     80 H30        4.3314    2.6647   12.6841 H         2 RES2    0.0000
     81 H31        2.1796    3.4534   11.9758 H         2 RES2    0.0000
     82 H32        4.8240   -1.4341   14.1412 H         2 RES2    0.0000
     83 H33        6.3039   -1.0437   13.4843 H         2 RES2    0.0000
     84 H34        5.1265   -1.5144   12.4693 H         2 RES2    0.0000
@<TRIPOS>BOND
     1    1    4 1
     2    2    6 2
     3    3    7 ar
     4    4   18 1
     5    5   22 1
     6    6    1 1
     7    7    8 ar
     8    8    9 ar
     9    9   10 ar
    10   10    1 1
    11   11    2 1
    12   12    6 1
    13   13   12 ar
    14   14   13 ar
    15   15   14 ar
    16   16   15 ar
    17   17   12 ar
    18   18   19 1
    19   19   20 ar
    20   20   21 ar
    21   21   22 ar
    22   22   23 ar
    23   23   24 ar
    24   24   19 ar
    25   25    5 1
    26   26    7 1
    27   27    8 1
    28   28    9 1
    29   29   13 1
    30   30   14 1
    31   31   15 1
    32   32   16 1
    33   33   17 1
    34   34   18 1
    35   35   18 1
    36   36   20 1
    37   37   21 1
    38   38   23 1
    39   39   24 1
    40   40   25 1
    41   41   25 1
    42   42   25 1
    43   43   46 1
    44   44   48 2
    45   45   49 ar
    46   46   60 1
    47   47   64 1
    48   48   43 1
    49   49   50 ar
    50   50   51 ar
    51   51   52 ar
    52   52   43 1
    53   53   44 1
    54   54   48 1
    55   55   54 ar
    56   56   55 ar
    57   57   56 ar
    58   58   57 ar
    59   59   54 ar
    60   60   61 1
    61   61   62 ar
    62   62   63 ar
    63   63   64 ar
    64   64   65 ar
    65   65   66 ar
    66   66   61 ar
    67   67   47 1
    68   68   49 1
    69   69   50 1
    70   70   51 1
    71   71   55 1
    72   72   56 1
    73   73   57 1
    74   74   58 1
    75   75   59 1
    76   76   60 1
    77   77   60 1
    78   78   62 1
    79   79   63 1
    80   80   65 1
    81   81   66 1
    82   82   67 1
    83   83   67 1
    84   84   67 1
    85    3   11 ar
    86   10   11 ar
    87   16   17 ar
    88   45   53 ar
    89   52   53 ar
    90   58   59 ar
@<TRIPOS>SUBSTRUCTURE
     1 RES1 1
     2 RES2 43

@<TRIPOS>CRYSIN
   8.0026   13.6788   16.1800  78.7200  77.4790  81.4740   2 1

