# MOL2 file generated by ConQuest
# Please check atom types

@<TRIPOS>MOLECULE
MUKCAX
    18    19     1
SMALL
NO_CHARGES
****
Generated from CSD

@<TRIPOS>ATOM
      1 O1         6.6870   -2.6327    5.1142 O.3       1 RES1    0.0000
      2 C1         4.6101    1.0370    7.4053 C.ar      1 RES1    0.0000
      3 C2         4.2263    1.7553    6.2973 C.ar      1 RES1    0.0000
      4 H1         3.7736    2.5590    6.4120 H         1 RES1    0.0000
      5 C3         4.4973    1.3110    5.0136 C.ar      1 RES1    0.0000
      6 H2         4.2217    1.8162    4.2824 H         1 RES1    0.0000
      7 C4         5.1700    0.1296    4.8105 C.ar      1 RES1    0.0000
      8 H3         5.3567   -0.1661    3.9489 H         1 RES1    0.0000
      9 C5         5.5660   -0.6173    5.9167 C.ar      1 RES1    0.0000
     10 C6         6.2167   -1.8716    6.1044 C.2       1 RES1    0.0000
     11 C7         5.2854   -0.1850    7.2287 C.ar      1 RES1    0.0000
     12 N1         4.2915    1.5142    8.7270 N.pl3     1 RES1    0.0000
     13 N2         5.7406   -1.1281    8.0741 N.pl3     1 RES1    0.0000
     14 N3         6.3095   -2.1799    7.3757 N.2       1 RES1    0.0000
     15 O2         3.6415    2.5407    8.8691 O.2       1 RES1    0.0000
     16 O3         4.6827    0.8408    9.6820 O.2       1 RES1    0.0000
     17 H4         5.6555   -1.1393    8.9945 H         1 RES1    0.0000
     18 H5         7.0174   -3.4110    5.4645 H         1 RES1    0.0000
@<TRIPOS>BOND
     1    1   10 1
     2    2    3 ar
     3    3    4 1
     4    5    3 ar
     5    6    5 1
     6    7    5 ar
     7    8    7 1
     8    9    7 ar
     9   10    9 1
    10   11    2 ar
    11   12    2 1
    12   13   11 1
    13   14   10 2
    14   15   12 2
    15   16   12 2
    16   17   13 1
    17   18    1 1
    18    9   11 ar
    19   13   14 1
@<TRIPOS>SUBSTRUCTURE
     1 RES1 1

@<TRIPOS>CRYSIN
   7.5948    7.0070   13.5930  90.0000  94.2230  90.0000 231 1

