# MOL2 file generated by ConQuest
# Please check atom types

@<TRIPOS>MOLECULE
MUKHIK
    38    40     1
SMALL
NO_CHARGES
****
Generated from CSD

@<TRIPOS>ATOM
      1 O1        -2.0899    6.2215    7.7963 O.2       1 RES1    0.0000
      2 O2         0.1872    4.7496    6.0350 O.3       1 RES1    0.0000
      3 O3        -0.7070    1.0527    9.7764 O.2       1 RES1    0.0000
      4 O4        -0.2321    0.5946    6.1265 O.2       1 RES1    0.0000
      5 O5         1.1417    1.6635    7.3355 O.2       1 RES1    0.0000
      6 N1         0.0354    1.4748    6.9161 N.pl3     1 RES1    0.0000
      7 C1        -2.1178    5.0189    7.7982 C.2       1 RES1    0.0000
      8 C2        -1.7555    4.2024    8.9985 C.3       1 RES1    0.0000
      9 H1        -1.3612    4.7980    9.6685 H         1 RES1    0.0000
     10 C3        -3.0874    3.6646    9.5509 C.3       1 RES1    0.0000
     11 H2        -2.8986    3.0738   10.2961 H         1 RES1    0.0000
     12 H3        -3.6063    4.4101    9.8912 H         1 RES1    0.0000
     13 C4        -3.9207    2.9163    8.5386 C.3       1 RES1    0.0000
     14 H4        -4.8155    2.7978    8.8934 H         1 RES1    0.0000
     15 H5        -3.5368    2.0362    8.4036 H         1 RES1    0.0000
     16 C5        -4.0120    3.6257    7.1966 C.3       1 RES1    0.0000
     17 H6        -4.6468    4.3551    7.2738 H         1 RES1    0.0000
     18 H7        -4.3593    3.0026    6.5392 H         1 RES1    0.0000
     19 C6        -2.6795    4.1872    6.6847 C.3       1 RES1    0.0000
     20 H8        -2.8756    4.7856    5.9337 H         1 RES1    0.0000
     21 C7        -1.6380    3.1544    6.2046 C.3       1 RES1    0.0000
     22 H9        -2.1037    2.5351    5.6050 H         1 RES1    0.0000
     23 C8        -1.1169    2.3198    7.4010 C.3       1 RES1    0.0000
     24 H10       -1.8355    1.7147    7.6796 H         1 RES1    0.0000
     25 C9        -0.7006    3.1354    8.6138 C.3       1 RES1    0.0000
     26 H11        0.1324    3.6020    8.3911 H         1 RES1    0.0000
     27 C10       -0.5566    3.7908    5.4151 C.2       1 RES1    0.0000
     28 C11       -0.1470    3.6713    4.1580 C.2       1 RES1    0.0000
     29 H12       -0.4983    3.0918    3.5207 H         1 RES1    0.0000
     30 C12        0.9018    4.5656    3.9623 C.2       1 RES1    0.0000
     31 H13        1.3865    4.6908    3.1785 H         1 RES1    0.0000
     32 C13        1.0773    5.2067    5.1104 C.2       1 RES1    0.0000
     33 H14        1.7124    5.8687    5.2618 H         1 RES1    0.0000
     34 C14       -0.4269    2.2287    9.8044 C.2       1 RES1    0.0000
     35 C15        0.2106    2.8604   10.9931 C.3       1 RES1    0.0000
     36 H15        0.4680    2.1785   11.6178 H         1 RES1    0.0000
     37 H16       -0.4132    3.4588   11.4105 H         1 RES1    0.0000
     38 H17        0.9885    3.3507   10.7164 H         1 RES1    0.0000
@<TRIPOS>BOND
     1    1    7 2
     2    2   27 1
     3    3   34 2
     4    4    6 2
     5    5    6 2
     6    6   23 1
     7    7    8 1
     8    8    9 1
     9   10    8 1
    10   11   10 1
    11   12   10 1
    12   13   10 1
    13   14   13 1
    14   15   13 1
    15   16   13 1
    16   17   16 1
    17   18   16 1
    18   19    7 1
    19   20   19 1
    20   21   19 1
    21   22   21 1
    22   23   21 1
    23   24   23 1
    24   25    8 1
    25   26   25 1
    26   27   21 1
    27   28   27 2
    28   29   28 1
    29   30   28 1
    30   31   30 1
    31   32    2 1
    32   33   32 1
    33   34   25 1
    34   35   34 1
    35   36   35 1
    36   37   35 1
    37   38   35 1
    38   16   19 1
    39   23   25 1
    40   30   32 2
@<TRIPOS>SUBSTRUCTURE
     1 RES1 1

@<TRIPOS>CRYSIN
   7.7925    9.4840   10.2140  90.0000 109.2910  90.0000   4 1

