# MOL2 file generated by ConQuest
# Please check atom types

@<TRIPOS>MOLECULE
MUKKUY01
    36    37     1
SMALL
NO_CHARGES
****
Generated from CSD

@<TRIPOS>ATOM
      1 N1         8.6270   -0.6188    4.3768 N.pl3     1 RES1    0.0000
      2 O1         9.3500   -1.4475    5.0417 O.2       1 RES1    0.0000
      3 C1         8.4920   -0.5901    3.0381 C.2       1 RES1    0.0000
      4 N2         7.6422    0.4176    2.7375 N.3       1 RES1    0.0000
      5 C2         9.1078   -1.5061    2.0955 C.ar      1 RES1    0.0000
      6 O2         7.3178    0.8024    1.5548 O.2       1 RES1    0.0000
      7 C3        10.2232   -3.4271    0.3627 C.ar      1 RES1    0.0000
      8 C4         9.0721   -2.7321    0.0193 C.ar      1 RES1    0.0000
      9 C5        10.2705   -2.1919    2.4273 C.ar      1 RES1    0.0000
     10 C6         7.9315    0.5164    5.0501 C.3       1 RES1    0.0000
     11 C7         8.5272   -1.7912    0.8505 C.ar      1 RES1    0.0000
     12 C8        10.8197   -3.1142    1.5808 C.ar      1 RES1    0.0000
     13 C9         6.9620    0.9662    3.9472 C.3       1 RES1    0.0000
     14 N3        10.7908   -4.3687   -0.4516 N.3       1 RES1    0.0000
     15 C10        6.7892    2.4696    3.8118 C.3       1 RES1    0.0000
     16 H1         7.6491    2.8813    3.6966 H         1 RES1    0.0000
     17 H2         6.3731    2.8159    4.6043 H         1 RES1    0.0000
     18 H3         6.2380    2.6607    3.0492 H         1 RES1    0.0000
     19 C11        9.0243    1.5392    5.3625 C.3       1 RES1    0.0000
     20 C12        7.2756    0.0160    6.3268 C.3       1 RES1    0.0000
     21 H4         6.7396   -0.7554    6.1304 H         1 RES1    0.0000
     22 H5         6.7176    0.7074    6.6927 H         1 RES1    0.0000
     23 H6         7.9536   -0.2181    6.9642 H         1 RES1    0.0000
     24 C13        5.5987    0.2613    3.9777 C.3       1 RES1    0.0000
     25 H7         5.1246    0.4461    3.1632 H         1 RES1    0.0000
     26 H8         5.0888    0.5829    4.7247 H         1 RES1    0.0000
     27 H9         5.7296   -0.6852    4.0629 H         1 RES1    0.0000
     28 H10        7.7124   -1.3112    0.6426 H         1 RES1    0.0000
     29 H11       10.6337   -2.0211    3.3319 H         1 RES1    0.0000
     30 H12        8.6563   -2.9207   -0.9013 H         1 RES1    0.0000
     31 H13       11.6713   -3.5985    1.8411 H         1 RES1    0.0000
     32 H14        9.4804    1.7992    4.5304 H         1 RES1    0.0000
     33 H15        8.5709    2.2799    5.8316 H         1 RES1    0.0000
     34 H16        9.6182    1.0968    5.9923 H         1 RES1    0.0000
     35 H17       10.3485   -4.5597   -1.1246 H         1 RES1    0.0000
     36 H18       11.5473   -4.8678   -0.2137 H         1 RES1    0.0000
@<TRIPOS>BOND
     1    1    2 1
     2    3    1 2
     3    4    3 1
     4    5    3 1
     5    6    4 1
     6    7    8 ar
     7    8   11 ar
     8    9    5 ar
     9   10    1 1
    10   11    5 ar
    11   12    7 ar
    12   13    4 1
    13   14    7 1
    14   15   13 1
    15   16   15 1
    16   17   15 1
    17   18   15 1
    18   19   10 1
    19   20   10 1
    20   21   20 1
    21   22   20 1
    22   23   20 1
    23   24   13 1
    24   25   24 1
    25   26   24 1
    26   27   24 1
    27   28   11 1
    28   29    9 1
    29   30    8 1
    30   31   12 1
    31   32   19 1
    32   33   19 1
    33   34   19 1
    34   35   14 1
    35   36   14 1
    36    9   12 ar
    37   10   13 1
@<TRIPOS>SUBSTRUCTURE
     1 RES1 1

@<TRIPOS>CRYSIN
  13.7796   12.3236   16.0651  90.0000  90.0000  90.0000  61 1

