# MOL2 file generated by ConQuest
# Please check atom types

@<TRIPOS>MOLECULE
MUKKUY
    36    37     1
SMALL
USER_CHARGES
****
Generated from CSD

@<TRIPOS>ATOM
      1 O1         1.5545    6.4590   -0.8009 O.2       1 RES1    0.0000
      2 O2         5.0345    4.4237    1.4439 O.2       1 RES1   -1.0000
      3 N1         2.7322    6.1315   -0.4164 N.3       1 RES1    0.0000
      4 N2         4.3686    5.1450    0.6186 N.pl3     1 RES1    1.0000
      5 N3        -0.4508    2.9886    4.3649 N.pl3     1 RES1    0.0000
      6 H1        -0.2106    2.2686    4.7683 H         1 RES1    0.0000
      7 H2        -1.2039    3.3575    4.5555 H         1 RES1    0.0000
      8 C1         3.0308    5.2824    0.5916 C.2       1 RES1    0.0000
      9 C2         3.9419    6.8073   -0.9692 C.3       1 RES1    0.0000
     10 C3         5.0396    5.8368   -0.5178 C.3       1 RES1    0.0000
     11 C4         3.8120    6.9890   -2.4598 C.3       1 RES1    0.0000
     12 H3         4.6074    7.4061   -2.8005 H         1 RES1    0.0000
     13 H4         3.0534    7.5451   -2.6480 H         1 RES1    0.0000
     14 H5         3.6949    6.1341   -2.8780 H         1 RES1    0.0000
     15 C5         3.9788    8.1701   -0.2644 C.3       1 RES1    0.0000
     16 H6         4.0606    8.0380    0.6826 H         1 RES1    0.0000
     17 H7         3.1673    8.6492   -0.4514 H         1 RES1    0.0000
     18 H8         4.7293    8.6753   -0.5830 H         1 RES1    0.0000
     19 C6         5.3548    4.7562   -1.5361 C.3       1 RES1    0.0000
     20 H9         5.7829    5.1512   -2.2987 H         1 RES1    0.0000
     21 H10        4.5401    4.3294   -1.8116 H         1 RES1    0.0000
     22 H11        5.9401    4.1064   -1.1401 H         1 RES1    0.0000
     23 C7         6.3138    6.4920   -0.0234 C.3       1 RES1    0.0000
     24 H12        6.6794    7.0454   -0.7158 H         1 RES1    0.0000
     25 H13        6.9504    5.8134    0.2128 H         1 RES1    0.0000
     26 H14        6.1181    7.0303    0.7478 H         1 RES1    0.0000
     27 C8         2.0890    4.6661    1.5044 C.ar      1 RES1    0.0000
     28 C9         2.4206    3.5062    2.1892 C.ar      1 RES1    0.0000
     29 H15        3.2355    3.0932    2.0170 H         1 RES1    0.0000
     30 C10        1.5747    2.9611    3.1104 C.ar      1 RES1    0.0000
     31 H16        1.8200    2.1737    3.5397 H         1 RES1    0.0000
     32 C11        0.3639    3.5475    3.4216 C.ar      1 RES1    0.0000
     33 C12        0.0178    4.6983    2.7291 C.ar      1 RES1    0.0000
     34 H17       -0.7977    5.1086    2.9075 H         1 RES1    0.0000
     35 C13        0.8492    5.2476    1.7870 C.ar      1 RES1    0.0000
     36 H18        0.5857    6.0144    1.3308 H         1 RES1    0.0000
@<TRIPOS>BOND
     1    1    3 1
     2    2    4 1
     3    3    8 1
     4    4    8 2
     5    5    6 1
     6    7    5 1
     7    8   27 1
     8    9    3 1
     9   10    4 1
    10   11    9 1
    11   12   11 1
    12   13   11 1
    13   14   11 1
    14   15    9 1
    15   16   15 1
    16   17   15 1
    17   18   15 1
    18   19   10 1
    19   20   19 1
    20   21   19 1
    21   22   19 1
    22   23   10 1
    23   24   23 1
    24   25   23 1
    25   26   23 1
    26   27   28 ar
    27   28   29 1
    28   30   28 ar
    29   31   30 1
    30   32    5 1
    31   33   32 ar
    32   34   33 1
    33   35   27 ar
    34   36   35 1
    35    9   10 1
    36   30   32 ar
    37   33   35 ar
@<TRIPOS>SUBSTRUCTURE
     1 RES1 1

@<TRIPOS>CRYSIN
  16.0370   13.7660   12.2990  90.0000  90.0000  90.0000  61 1

