# MOL2 file generated by ConQuest
# Please check atom types

@<TRIPOS>MOLECULE
MUKREQ
    72    78     2
SMALL
NO_CHARGES
****
Generated from CSD

@<TRIPOS>ATOM
      1 C1        10.7505    1.1554    2.7584 C.ar      1 RES1    0.0000
      2 C2        11.9425    1.2324    2.0582 C.ar      1 RES1    0.0000
      3 C3        13.0971    0.5871    2.4845 C.ar      1 RES1    0.0000
      4 C4        13.0291   -0.2003    3.6215 C.ar      1 RES1    0.0000
      5 C5        11.8599   -0.2974    4.3714 C.ar      1 RES1    0.0000
      6 C6        10.7407    0.3895    3.9216 C.ar      1 RES1    0.0000
      7 C7         7.5415    2.1321    2.0157 C.2       1 RES1    0.0000
      8 H1         6.6110    1.9847    1.8975 H         1 RES1    0.0000
      9 C8         9.3655    3.1498    2.1791 C.2       1 RES1    0.0000
     10 H2        10.0377    3.8194    2.2261 H         1 RES1    0.0000
     11 C9        16.1461    0.2888    0.9315 C.2       1 RES1    0.0000
     12 H3        16.8540   -0.1981    0.5253 H         1 RES1    0.0000
     13 C10       15.0723    1.8937    1.7082 C.2       1 RES1    0.0000
     14 H4        14.8011    2.7526    2.0102 H         1 RES1    0.0000
     15 C11       11.6109   -0.9417    7.7166 C.2       1 RES1    0.0000
     16 H5        11.5035   -0.6726    8.6214 H         1 RES1    0.0000
     17 C12       11.8536   -2.1932    6.0520 C.2       1 RES1    0.0000
     18 H6        11.9496   -2.9433    5.4766 H         1 RES1    0.0000
     19 C13        5.2552    5.9811    2.5387 C.ar      2 RES2    0.0000
     20 C14        6.4274    6.5961    2.1199 C.ar      2 RES2    0.0000
     21 C15        7.6042    6.5123    2.8400 C.ar      2 RES2    0.0000
     22 C16        7.5888    5.7726    4.0188 C.ar      2 RES2    0.0000
     23 C17        6.4492    5.1274    4.4666 C.ar      2 RES2    0.0000
     24 C18        5.2921    5.2322    3.7053 C.ar      2 RES2    0.0000
     25 C19        2.2481    5.6431    0.9132 C.2       2 RES2    0.0000
     26 H7         1.5466    5.1465    0.5086 H         2 RES2    0.0000
     27 C20        3.3268    7.2750    1.6370 C.2       2 RES2    0.0000
     28 H8         3.6028    8.1455    1.8975 H         2 RES2    0.0000
     29 C21       10.8274    7.4197    2.0529 C.2       2 RES2    0.0000
     30 H9        11.7555    7.2533    1.9359 H         2 RES2    0.0000
     31 C22        9.0180    8.4632    2.1558 C.2       2 RES2    0.0000
     32 H10        8.3513    9.1405    2.1542 H         2 RES2    0.0000
     33 C23        5.8752    4.4636    7.7773 C.2       2 RES2    0.0000
     34 H11        5.5962    4.7095    8.6526 H         2 RES2    0.0000
     35 C24        6.5652    3.2799    6.1981 C.2       2 RES2    0.0000
     36 H12        6.8723    2.5588    5.6613 H         2 RES2    0.0000
     37 N1         9.5860    1.8224    2.3264 N.pl3     1 RES1    0.0000
     38 N2         8.3872    1.1462    2.2417 N.2       1 RES1    0.0000
     39 N3         8.0953    3.3813    1.9635 N.2       1 RES1    0.0000
     40 N4        12.0337    2.0392    0.8293 N.pl3     1 RES1    0.0000
     41 N5        14.3200    0.7748    1.7922 N.pl3     1 RES1    0.0000
     42 N6        15.0310   -0.2913    1.3129 N.2       1 RES1    0.0000
     43 N7        16.2264    1.6278    1.1534 N.2       1 RES1    0.0000
     44 N8        14.2421   -0.8910    4.0812 N.pl3     1 RES1    0.0000
     45 N9        11.8378   -0.9023    5.6531 N.pl3     1 RES1    0.0000
     46 N10       11.6678   -0.0749    6.7367 N.2       1 RES1    0.0000
     47 N11       11.7148   -2.2527    7.3597 N.2       1 RES1    0.0000
     48 N12        9.5039    0.3373    4.7288 N.pl3     1 RES1    0.0000
     49 N13        4.0520    6.1485    1.8111 N.pl3     2 RES2    0.0000
     50 N14        3.3380    5.0669    1.3690 N.2       2 RES2    0.0000
     51 N15        2.1855    6.9917    1.0560 N.2       2 RES2    0.0000
     52 N16        6.3705    7.3727    0.8681 N.pl3     2 RES2    0.0000
     53 N17        8.7869    7.1538    2.3976 N.pl3     2 RES2    0.0000
     54 N18        9.9764    6.4603    2.3506 N.2       2 RES2    0.0000
     55 N19       10.2922    8.6667    1.9229 N.2       2 RES2    0.0000
     56 N20        8.8160    5.6931    4.8322 N.pl3     2 RES2    0.0000
     57 N21        6.3875    4.5467    5.7651 N.pl3     2 RES2    0.0000
     58 N22        5.9209    5.3336    6.7911 N.2       2 RES2    0.0000
     59 N23        6.2511    3.1924    7.4719 N.2       2 RES2    0.0000
     60 N24        4.0490    4.5964    4.1778 N.pl3     2 RES2    0.0000
     61 O1        12.2781    3.2365    0.9907 O.2       1 RES1    0.0000
     62 O2        11.9045    1.4669   -0.2243 O.2       1 RES1    0.0000
     63 O3        15.2348   -0.1974    4.2522 O.2       1 RES1    0.0000
     64 O4        14.1656   -2.0994    4.2344 O.2       1 RES1    0.0000
     65 O5         9.0717    1.4056    5.1275 O.2       1 RES1    0.0000
     66 O6         9.0349   -0.7727    4.9301 O.2       1 RES1    0.0000
     67 O7         6.1327    8.5746    0.9907 O.2       2 RES2    0.0000
     68 O8         6.5204    6.7734   -0.1715 O.2       2 RES2    0.0000
     69 O9         9.2559    6.7473    5.2664 O.2       2 RES2    0.0000
     70 O10        9.2765    4.5772    5.0081 O.2       2 RES2    0.0000
     71 O11        3.0822    5.3292    4.2990 O.2       2 RES2    0.0000
     72 O12        4.0978    3.3955    4.3908 O.2       2 RES2    0.0000
@<TRIPOS>BOND
     1    1    2 ar
     2    2    3 ar
     3    3    4 ar
     4    4    5 ar
     5    5    6 ar
     6    6    1 ar
     7    7    8 1
     8    9   10 1
     9   11   12 1
    10   13   14 1
    11   15   16 1
    12   17   18 1
    13   19   20 ar
    14   20   21 ar
    15   21   22 ar
    16   22   23 ar
    17   23   24 ar
    18   24   19 ar
    19   25   26 1
    20   27   28 1
    21   29   30 1
    22   31   32 1
    23   33   34 1
    24   35   36 1
    25   37    1 1
    26   38    7 2
    27   39    7 1
    28   40    2 1
    29   41    3 1
    30   42   11 2
    31   43   11 1
    32   44    4 1
    33   45    5 1
    34   46   15 2
    35   47   15 1
    36   48    6 1
    37   49   19 1
    38   50   25 2
    39   51   25 1
    40   52   20 1
    41   53   21 1
    42   54   29 2
    43   55   29 1
    44   56   22 1
    45   57   23 1
    46   58   33 2
    47   59   33 1
    48   60   24 1
    49   61   40 2
    50   62   40 2
    51   63   44 2
    52   64   44 2
    53   65   48 2
    54   66   48 2
    55   67   52 2
    56   68   52 2
    57   69   56 2
    58   70   56 2
    59   71   60 2
    60   72   60 2
    61    9   37 1
    62    9   39 2
    63   13   41 1
    64   13   43 2
    65   17   45 1
    66   17   47 2
    67   27   49 1
    68   27   51 2
    69   31   53 1
    70   31   55 2
    71   35   57 1
    72   35   59 2
    73   37   38 1
    74   41   42 1
    75   45   46 1
    76   49   50 1
    77   53   54 1
    78   57   58 1
@<TRIPOS>SUBSTRUCTURE
     1 RES1 1
     2 RES2 19

@<TRIPOS>CRYSIN
  12.2582   10.7107   24.0070  90.0000  92.2530  90.0000  14 1

