# MOL2 file generated by ConQuest
# Please check atom types

@<TRIPOS>MOLECULE
MULGUW
    31    32     1
SMALL
NO_CHARGES
****
Generated from CSD

@<TRIPOS>ATOM
      1 C1         7.2372   10.1060    0.6717 C.2       1 RES1    0.0000
      2 C2         8.1867    8.9015   -0.8542 C.2       1 RES1    0.0000
      3 C3         8.1335    9.2448    1.2919 C.2       1 RES1    0.0000
      4 C4         9.7107    7.3947    0.4272 C.3       1 RES1    0.0000
      5 H1         9.8836    7.0174   -0.4383 H         1 RES1    0.0000
      6 H2         9.3591    6.7161    1.0079 H         1 RES1    0.0000
      7 H3        10.5286    7.7389    0.7949 H         1 RES1    0.0000
      8 C5         8.5110    8.3467   -2.1928 C.3       1 RES1    0.0000
      9 H4         8.1255    7.4705   -2.2770 H         1 RES1    0.0000
     10 H5         9.4636    8.2878   -2.2918 H         1 RES1    0.0000
     11 H6         8.1525    8.9205   -2.8725 H         1 RES1    0.0000
     12 C6         6.3652   11.1269    1.2209 C.2       1 RES1    0.0000
     13 H7         6.4177   11.3265    2.1272 H         1 RES1    0.0000
     14 C7         5.4926   11.7846    0.4644 C.2       1 RES1    0.0000
     15 H8         5.4530   11.5281   -0.4284 H         1 RES1    0.0000
     16 C8         4.5905   12.8583    0.8629 C.ar      1 RES1    0.0000
     17 C9         3.7672   13.4291   -0.1071 C.ar      1 RES1    0.0000
     18 H9         3.7842   13.0918   -0.9732 H         1 RES1    0.0000
     19 C10        2.9229   14.4889    0.1919 C.ar      1 RES1    0.0000
     20 H10        2.3915   14.8662   -0.4717 H         1 RES1    0.0000
     21 C11        2.8764   14.9799    1.4771 C.ar      1 RES1    0.0000
     22 H11        2.3049   15.6845    1.6851 H         1 RES1    0.0000
     23 C12        3.6784   14.4281    2.4590 C.ar      1 RES1    0.0000
     24 H12        3.6457   14.7614    3.3257 H         1 RES1    0.0000
     25 C13        4.5245   13.3852    2.1574 C.ar      1 RES1    0.0000
     26 H13        5.0621   13.0250    2.8255 H         1 RES1    0.0000
     27 N1         7.2969    9.8767   -0.6733 N.2       1 RES1    0.0000
     28 N2         8.7387    8.4806    0.3010 N.3       1 RES1    0.0000
     29 N3         8.4607    9.1460    2.6562 N.pl3     1 RES1    0.0000
     30 O1         9.3511    8.3756    3.0142 O.2       1 RES1    0.0000
     31 O2         7.8364    9.8436    3.4592 O.2       1 RES1    0.0000
@<TRIPOS>BOND
     1    1    3 2
     2    2    8 1
     3    3   28 1
     4    4    5 1
     5    6    4 1
     6    7    4 1
     7    8    9 1
     8   10    8 1
     9   11    8 1
    10   12    1 1
    11   13   12 1
    12   14   12 2
    13   15   14 1
    14   16   14 1
    15   17   16 ar
    16   18   17 1
    17   19   17 ar
    18   20   19 1
    19   21   19 ar
    20   22   21 1
    21   23   21 ar
    22   24   23 1
    23   25   16 ar
    24   26   25 1
    25   27    1 1
    26   28    2 1
    27   29    3 1
    28   30   29 2
    29   31   29 2
    30    2   27 2
    31    4   28 1
    32   23   25 ar
@<TRIPOS>SUBSTRUCTURE
     1 RES1 1

@<TRIPOS>CRYSIN
   9.6330    9.9793   13.0384  90.0000 108.2640  90.0000  14 1

