# MOL2 file generated by ConQuest
# Please check atom types

@<TRIPOS>MOLECULE
MULMUC
    25    26     1
SMALL
NO_CHARGES
****
Generated from CSD

@<TRIPOS>ATOM
      1 O1         4.4099    8.0087    2.7814 O.2       1 RES1    0.0000
      2 N1         4.4861    7.1816    3.7945 N.pl3     1 RES1    0.0000
      3 C1         3.4030    6.5498    4.3064 C.ar      1 RES1    0.0000
      4 C2         5.7534    6.9711    4.3506 C.ar      1 RES1    0.0000
      5 C3         5.8964    6.1581    5.4946 C.ar      1 RES1    0.0000
      6 C4         4.7524    5.5489    6.0535 C.ar      1 RES1    0.0000
      7 H1         4.8226    5.0171    6.8375 H         1 RES1    0.0000
      8 N2         1.9168    7.3207    2.5375 N.am      1 RES1    0.0000
      9 O2         1.1210    5.9718    4.1849 O.2       1 RES1    0.0000
     10 C5         6.8643    7.5876    3.7493 C.ar      1 RES1    0.0000
     11 H2         6.7555    8.1284    2.9764 H         1 RES1    0.0000
     12 C6         2.0360    6.6171    3.6628 C.2       1 RES1    0.0000
     13 C7         7.2005    5.9923    6.0343 C.ar      1 RES1    0.0000
     14 H3         7.3256    5.4563    6.8085 H         1 RES1    0.0000
     15 C8         3.5424    5.7384    5.4474 C.ar      1 RES1    0.0000
     16 H4         2.7736    5.3107    5.8067 H         1 RES1    0.0000
     17 C9         8.1107    7.3971    4.2962 C.ar      1 RES1    0.0000
     18 H5         8.8675    7.8076    3.8935 H         1 RES1    0.0000
     19 C10        8.2809    6.6000    5.4464 C.ar      1 RES1    0.0000
     20 H6         9.1485    6.4836    5.8160 H         1 RES1    0.0000
     21 C11        0.6845    7.3298    1.7614 C.3       1 RES1    0.0000
     22 H7         0.0183    6.7608    2.1995 H         1 RES1    0.0000
     23 H8         0.8636    6.9883    0.8603 H         1 RES1    0.0000
     24 H9         0.3428    8.2460    1.7021 H         1 RES1    0.0000
     25 H10        2.6590    7.7647    2.2633 H         1 RES1    0.0000
@<TRIPOS>BOND
     1    1    2 1
     2    2    3 ar
     3    3   12 1
     4    4    2 ar
     5    5    4 ar
     6    6    5 ar
     7    7    6 1
     8    8   12 1
     9    9   12 2
    10   10    4 ar
    11   11   10 1
    12   13    5 ar
    13   14   13 1
    14   15    3 ar
    15   16   15 1
    16   17   10 ar
    17   18   17 1
    18   19   13 ar
    19   20   19 1
    20   21    8 1
    21   22   21 1
    22   23   21 1
    23   24   21 1
    24   25    8 1
    25    6   15 ar
    26   17   19 ar
@<TRIPOS>SUBSTRUCTURE
     1 RES1 1

@<TRIPOS>CRYSIN
  10.2715    7.7881   11.6200  90.0000  93.7720  90.0000  14 1

