# MOL2 file generated by ConQuest
# Please check atom types

@<TRIPOS>MOLECULE
MULNEO
    60    65     1
SMALL
NO_CHARGES
****
Generated from CSD

@<TRIPOS>ATOM
      1 O1         6.0566    0.3800    6.4258 O.3       1 RES1    0.0000
      2 O2         5.7709   -2.7696   -0.3840 O.3       1 RES1    0.0000
      3 N1         1.9206   -1.3587    4.8806 N.3       1 RES1    0.0000
      4 N2         4.7343    0.4893    5.9590 N.2       1 RES1    0.0000
      5 C1         1.4920   -2.0289    6.0211 C.ar      1 RES1    0.0000
      6 C2         0.8116   -3.1952    5.6350 C.ar      1 RES1    0.0000
      7 C3         0.8505   -3.2583    4.1993 C.ar      1 RES1    0.0000
      8 C4         1.5441   -2.1133    3.7657 C.ar      1 RES1    0.0000
      9 C5         1.7567   -1.8577    2.4198 C.ar      1 RES1    0.0000
     10 C6         1.2744   -2.7896    1.5167 C.ar      1 RES1    0.0000
     11 C7         0.5967   -3.9273    1.9251 C.ar      1 RES1    0.0000
     12 C8         0.3779   -4.1768    3.2550 C.ar      1 RES1    0.0000
     13 C9         0.2919   -4.0208    6.6314 C.ar      1 RES1    0.0000
     14 C10        0.4525   -3.6669    7.9402 C.ar      1 RES1    0.0000
     15 C11        1.1302   -2.5067    8.3041 C.ar      1 RES1    0.0000
     16 C12        1.6705   -1.6665    7.3453 C.ar      1 RES1    0.0000
     17 C13        2.8018   -0.2204    4.8642 C.3       1 RES1    0.0000
     18 C14        4.2012   -0.5100    5.3765 C.2       1 RES1    0.0000
     19 C15        6.8528   -0.7613    6.0213 C.3       1 RES1    0.0000
     20 C16        6.0384   -2.0229    6.0522 C.3       1 RES1    0.0000
     21 C17        4.8084   -1.8602    5.1428 C.3       1 RES1    0.0000
     22 C18        5.6362   -2.3865    7.4783 C.3       1 RES1    0.0000
     23 C19        6.8499   -2.4666    8.3993 C.3       1 RES1    0.0000
     24 C20        7.6198   -1.1553    8.3894 C.3       1 RES1    0.0000
     25 C21        8.0323   -0.7801    6.9763 C.3       1 RES1    0.0000
     26 C22        5.0708   -2.1012    3.6665 C.ar      1 RES1    0.0000
     27 C23        5.5733   -1.1183    2.8212 C.ar      1 RES1    0.0000
     28 C24        5.8051   -1.3757    1.4831 C.ar      1 RES1    0.0000
     29 C25        5.5200   -2.6142    0.9548 C.ar      1 RES1    0.0000
     30 C26        5.0198   -3.6062    1.7691 C.ar      1 RES1    0.0000
     31 C27        4.8024   -3.3324    3.1132 C.ar      1 RES1    0.0000
     32 C28        5.5667   -4.0372   -0.9564 C.3       1 RES1    0.0000
     33 H1         2.2041   -1.0934    2.1363 H         1 RES1    0.0000
     34 H2         1.4093   -2.6476    0.6068 H         1 RES1    0.0000
     35 H3         0.2862   -4.5296    1.2875 H         1 RES1    0.0000
     36 H4        -0.0760   -4.9424    3.5242 H         1 RES1    0.0000
     37 H5        -0.1582   -4.8028    6.4067 H         1 RES1    0.0000
     38 H6         0.1007   -4.2139    8.6045 H         1 RES1    0.0000
     39 H7         1.2222   -2.2924    9.2052 H         1 RES1    0.0000
     40 H8         2.1317   -0.8937    7.5794 H         1 RES1    0.0000
     41 H9         2.4115    0.4833    5.4062 H         1 RES1    0.0000
     42 H10        2.8649    0.1111    3.9547 H         1 RES1    0.0000
     43 H11        7.1821   -0.6150    5.1090 H         1 RES1    0.0000
     44 H12        6.5891   -2.7514    5.6953 H         1 RES1    0.0000
     45 H13        4.1480   -2.5255    5.4308 H         1 RES1    0.0000
     46 H14        5.1795   -3.2425    7.4748 H         1 RES1    0.0000
     47 H15        5.0198   -1.7193    7.8172 H         1 RES1    0.0000
     48 H16        6.5571   -2.6640    9.3036 H         1 RES1    0.0000
     49 H17        7.4311   -3.1861    8.1063 H         1 RES1    0.0000
     50 H18        7.0656   -0.4523    8.7623 H         1 RES1    0.0000
     51 H19        8.4109   -1.2409    8.9448 H         1 RES1    0.0000
     52 H20        8.4470    0.0965    6.9869 H         1 RES1    0.0000
     53 H21        8.6905   -1.4170    6.6568 H         1 RES1    0.0000
     54 H22        5.7573   -0.2732    3.1613 H         1 RES1    0.0000
     55 H23        6.1557   -0.7091    0.9369 H         1 RES1    0.0000
     56 H24        4.8304   -4.4482    1.4228 H         1 RES1    0.0000
     57 H25        4.4627   -4.0050    3.6595 H         1 RES1    0.0000
     58 H26        6.1224   -4.6820   -0.5125 H         1 RES1    0.0000
     59 H27        5.7929   -4.0075   -1.8882 H         1 RES1    0.0000
     60 H28        4.6444   -4.2873   -0.8590 H         1 RES1    0.0000
@<TRIPOS>BOND
     1    1    4 1
     2    2   29 1
     3    3    5 1
     4    4   18 2
     5    5    6 ar
     6    6    7 1
     7    7    8 ar
     8    8    3 1
     9    9    8 ar
    10   10    9 ar
    11   11   10 ar
    12   12    7 ar
    13   13    6 ar
    14   14   13 ar
    15   15   14 ar
    16   16    5 ar
    17   17    3 1
    18   18   17 1
    19   19    1 1
    20   20   19 1
    21   21   18 1
    22   22   20 1
    23   23   22 1
    24   24   23 1
    25   25   19 1
    26   26   21 1
    27   27   26 ar
    28   28   27 ar
    29   29   28 ar
    30   30   29 ar
    31   31   26 ar
    32   32    2 1
    33   33    9 1
    34   34   10 1
    35   35   11 1
    36   36   12 1
    37   37   13 1
    38   38   14 1
    39   39   15 1
    40   40   16 1
    41   41   17 1
    42   42   17 1
    43   43   19 1
    44   44   20 1
    45   45   21 1
    46   46   22 1
    47   47   22 1
    48   48   23 1
    49   49   23 1
    50   50   24 1
    51   51   24 1
    52   52   25 1
    53   53   25 1
    54   54   27 1
    55   55   28 1
    56   56   30 1
    57   57   31 1
    58   58   32 1
    59   59   32 1
    60   60   32 1
    61   11   12 ar
    62   15   16 ar
    63   20   21 1
    64   24   25 1
    65   30   31 ar
@<TRIPOS>SUBSTRUCTURE
     1 RES1 1

@<TRIPOS>CRYSIN
  18.2847    6.0710   20.8044  90.0000  99.7890  90.0000  14 1

