# MOL2 file generated by ConQuest
# Please check atom types

@<TRIPOS>MOLECULE
MULNEN
    33    35     1
SMALL
NO_CHARGES
****
Generated from CSD

@<TRIPOS>ATOM
      1 O1        -0.5043    3.6283    4.0183 O.2       1 RES1    0.0000
      2 O2         0.7488    4.6821    0.2450 O.2       1 RES1    0.0000
      3 O3         2.5938    0.0779    2.5564 O.3       1 RES1    0.0000
      4 N1        -0.6975    5.1864    2.3807 N.am      1 RES1    0.0000
      5 N2         1.1745    3.6057    0.8384 N.pl3     1 RES1    0.0000
      6 C1         3.5108   -0.9800    5.9264 C.ar      1 RES1    0.0000
      7 H1         3.3880   -1.7333    6.4911 H         1 RES1    0.0000
      8 C2         4.2660    0.1011    6.3722 C.ar      1 RES1    0.0000
      9 H2         4.6578    0.0872    7.2375 H         1 RES1    0.0000
     10 C3         4.4414    1.2011    5.5404 C.ar      1 RES1    0.0000
     11 H3         4.9554    1.9408    5.8423 H         1 RES1    0.0000
     12 C4         3.9051    1.2354   -1.2776 C.ar      1 RES1    0.0000
     13 H4         4.5110    0.7004   -1.7763 H         1 RES1    0.0000
     14 C5         3.4495    2.4609   -1.8072 C.ar      1 RES1    0.0000
     15 H5         3.7650    2.7511   -2.6550 H         1 RES1    0.0000
     16 C6         2.9348   -0.9664    4.6604 C.ar      1 RES1    0.0000
     17 H6         2.4218   -1.7060    4.3573 H         1 RES1    0.0000
     18 C7         3.8730    1.2323    4.2694 C.ar      1 RES1    0.0000
     19 H7         3.9973    1.9838    3.7022 H         1 RES1    0.0000
     20 C8         3.4747    0.8118   -0.0419 C.ar      1 RES1    0.0000
     21 H8         3.7852   -0.0145    0.3086 H         1 RES1    0.0000
     22 C9         2.5540    3.2413   -1.1121 C.ar      1 RES1    0.0000
     23 H9         2.2454    4.0618   -1.4787 H         1 RES1    0.0000
     24 C10        1.2376    2.0588    2.6602 C.ar      1 RES1    0.0000
     25 H10        0.9386    1.8153    3.5274 H         1 RES1    0.0000
     26 C11        3.1197    0.1437    3.8463 C.ar      1 RES1    0.0000
     27 C12        2.1271    1.2545    2.0083 C.ar      1 RES1    0.0000
     28 C13       -0.2156    4.0572    2.8882 C.2       1 RES1    0.0000
     29 C14        2.5720    1.6011    0.7088 C.ar      1 RES1    0.0000
     30 C15        2.1027    2.8075    0.1472 C.ar      1 RES1    0.0000
     31 C16        0.7565    3.2404    2.0717 C.ar      1 RES1    0.0000
     32 H11       -0.4760    5.3999    1.5700 H         1 RES1    0.0000
     33 H12       -1.2920    5.6150    2.8739 H         1 RES1    0.0000
@<TRIPOS>BOND
     1    1   28 2
     2    2    5 1
     3    3   26 1
     4    4   28 1
     5    5   30 ar
     6    6    7 1
     7    8    6 ar
     8    9    8 1
     9   10    8 ar
    10   11   10 1
    11   12   13 1
    12   14   12 ar
    13   15   14 1
    14   16    6 ar
    15   17   16 1
    16   18   10 ar
    17   19   18 1
    18   20   12 ar
    19   21   20 1
    20   22   14 ar
    21   23   22 1
    22   24   25 1
    23   26   16 ar
    24   27    3 1
    25   28   31 1
    26   29   20 ar
    27   30   22 ar
    28   31    5 ar
    29   32    4 1
    30   33    4 1
    31   18   26 ar
    32   24   27 ar
    33   24   31 ar
    34   27   29 ar
    35   29   30 ar
@<TRIPOS>SUBSTRUCTURE
     1 RES1 1

@<TRIPOS>CRYSIN
  13.4657    5.8126   17.1263  90.0000 113.1490  90.0000  14 1

