# MOL2 file generated by ConQuest
# Please check atom types

@<TRIPOS>MOLECULE
MULQEQ
    55    59     1
SMALL
NO_CHARGES
****
Generated from CSD

@<TRIPOS>ATOM
      1 O1         4.3045    6.1878    1.5975 O.3       1 RES1    0.0000
      2 O2         7.2699    6.4052    3.3782 O.2       1 RES1    0.0000
      3 N1         5.5310    5.7787    2.1369 N.am      1 RES1    0.0000
      4 C1         5.7548    8.4426    4.7337 C.3       1 RES1    0.0000
      5 C2         4.7164    9.5149    5.2031 C.3       1 RES1    0.0000
      6 C3         3.3345    8.9276    5.2793 C.2       1 RES1    0.0000
      7 C4         2.9673    7.8187    4.6783 C.2       1 RES1    0.0000
      8 C5         3.9026    6.9574    3.8952 C.3       1 RES1    0.0000
      9 C6         3.2952    6.3983    2.6136 C.3       1 RES1    0.0000
     10 C7         6.1312    6.6219    3.0007 C.2       1 RES1    0.0000
     11 C8         5.2083    7.6859    3.5328 C.3       1 RES1    0.0000
     12 C9         7.1412    9.0187    4.5668 C.ar      1 RES1    0.0000
     13 C10        8.0907    8.8241    5.5521 C.ar      1 RES1    0.0000
     14 C11        9.3736    9.3275    5.4283 C.ar      1 RES1    0.0000
     15 C12        9.7266   10.0475    4.3198 C.ar      1 RES1    0.0000
     16 C13        8.8018   10.2620    3.3295 C.ar      1 RES1    0.0000
     17 C14        7.5187    9.7530    3.4533 C.ar      1 RES1    0.0000
     18 C15        4.7274   10.7877    4.4145 C.ar      1 RES1    0.0000
     19 C16        5.5446   11.8462    4.8071 C.ar      1 RES1    0.0000
     20 C17        5.6097   12.9904    4.0655 C.ar      1 RES1    0.0000
     21 C18        4.8938   13.1391    2.9189 C.ar      1 RES1    0.0000
     22 C19        4.0548   12.1249    2.5346 C.ar      1 RES1    0.0000
     23 C20        3.9629   10.9568    3.2746 C.ar      1 RES1    0.0000
     24 C21        6.1998    4.7069    1.4116 C.3       1 RES1    0.0000
     25 C22        6.1405    3.3802    2.1061 C.ar      1 RES1    0.0000
     26 C23        5.3106    2.3645    1.6978 C.ar      1 RES1    0.0000
     27 C24        5.2653    1.1583    2.3576 C.ar      1 RES1    0.0000
     28 C25        6.0582    0.9473    3.4505 C.ar      1 RES1    0.0000
     29 C26        6.8844    1.9540    3.8700 C.ar      1 RES1    0.0000
     30 C27        6.9283    3.1498    3.2107 C.ar      1 RES1    0.0000
     31 H1         5.8177    7.7895    5.4608 H         1 RES1    0.0000
     32 H2         4.9645    9.7568    6.1201 H         1 RES1    0.0000
     33 H3         2.6980    9.3798    5.7851 H         1 RES1    0.0000
     34 H4         2.0769    7.5558    4.7444 H         1 RES1    0.0000
     35 H5         4.1411    6.1939    4.4621 H         1 RES1    0.0000
     36 H6         5.0211    8.3284    2.8158 H         1 RES1    0.0000
     37 H7         7.8620    8.3444    6.3150 H         1 RES1    0.0000
     38 H8         9.9984    9.1753    6.1005 H         1 RES1    0.0000
     39 H9        10.5884   10.3886    4.2386 H         1 RES1    0.0000
     40 H10        9.0363   10.7497    2.5738 H         1 RES1    0.0000
     41 H11        6.9000    9.9081    2.7766 H         1 RES1    0.0000
     42 H12        6.0511   11.7718    5.5835 H         1 RES1    0.0000
     43 H13        6.1572   13.6860    4.3517 H         1 RES1    0.0000
     44 H14        4.9716   13.9117    2.4069 H         1 RES1    0.0000
     45 H15        3.5398   12.2232    1.7661 H         1 RES1    0.0000
     46 H16        3.3828   10.2824    3.0029 H         1 RES1    0.0000
     47 H17        4.7650    2.4956    0.9562 H         1 RES1    0.0000
     48 H18        4.6957    0.4858    2.0591 H         1 RES1    0.0000
     49 H19        6.0355    0.1354    3.9019 H         1 RES1    0.0000
     50 H20        7.4249    1.8213    4.6156 H         1 RES1    0.0000
     51 H21        7.4999    3.8177    3.5132 H         1 RES1    0.0000
     52 H22        2.8650    5.5514    2.8119 H         1 RES1    0.0000
     53 H23        2.6358    7.0249    2.2781 H         1 RES1    0.0000
     54 H24        7.1320    4.9514    1.2956 H         1 RES1    0.0000
     55 H25        5.7795    4.6169    0.5422 H         1 RES1    0.0000
@<TRIPOS>BOND
     1    1    3 1
     2    2   10 2
     3    3   10 1
     4    4    5 1
     5    5    6 1
     6    6    7 2
     7    7    8 1
     8    8    9 1
     9    9    1 1
    10   10   11 1
    11   11    4 1
    12   12    4 1
    13   13   12 ar
    14   14   13 ar
    15   15   14 ar
    16   16   15 ar
    17   17   12 ar
    18   18    5 1
    19   19   18 ar
    20   20   19 ar
    21   21   20 ar
    22   22   21 ar
    23   23   18 ar
    24   24    3 1
    25   25   24 1
    26   26   25 ar
    27   27   26 ar
    28   28   27 ar
    29   29   28 ar
    30   30   25 ar
    31   31    4 1
    32   32    5 1
    33   33    6 1
    34   34    7 1
    35   35    8 1
    36   36   11 1
    37   37   13 1
    38   38   14 1
    39   39   15 1
    40   40   16 1
    41   41   17 1
    42   42   19 1
    43   43   20 1
    44   44   21 1
    45   45   22 1
    46   46   23 1
    47   47   26 1
    48   48   27 1
    49   49   28 1
    50   50   29 1
    51   51   30 1
    52   52    9 1
    53   53    9 1
    54   54   24 1
    55   55   24 1
    56    8   11 1
    57   16   17 ar
    58   22   23 ar
    59   29   30 ar
@<TRIPOS>SUBSTRUCTURE
     1 RES1 1

@<TRIPOS>CRYSIN
  14.1480   26.5490    5.6014  90.0000  90.0000  90.0000  33 1

