# MOL2 file generated by ConQuest
# Please check atom types

@<TRIPOS>MOLECULE
MULSUJ
   136   140     2
SMALL
NO_CHARGES
****
Generated from CSD

@<TRIPOS>ATOM
      1 C1         4.2927    3.5292   10.8248 C.3       1 RES1    0.0000
      2 H1         3.3400    3.6589   10.6316 H         1 RES1    0.0000
      3 O1         3.1968    6.8269   14.7349 O.3       1 RES1    0.0000
      4 C2         4.4761    3.6082   12.3407 C.3       1 RES1    0.0000
      5 C3         4.7080    2.1855   10.2317 C.3       1 RES1    0.0000
      6 H2         5.6765    2.0800   10.3344 H         1 RES1    0.0000
      7 C4         5.9729    5.0697   13.4946 C.ar      1 RES1    0.0000
      8 N1         4.7052    5.6170   13.6256 N.am      1 RES1    0.0000
      9 C5         3.7623    4.8701   12.8825 C.2       1 RES1    0.0000
     10 C6         5.9261    3.8518   12.7717 C.ar      1 RES1    0.0000
     11 O2         2.6189    5.1167   12.7082 O.2       1 RES1    0.0000
     12 O3         4.7832    5.8416   10.5681 O.3       1 RES1    0.0000
     13 C7         7.0717    3.1851   12.5745 C.ar      1 RES1    0.0000
     14 H3         7.0526    2.3980   12.0786 H         1 RES1    0.0000
     15 C8         3.7708    2.4173   13.0163 C.3       1 RES1    0.0000
     16 H4         2.8100    2.4946   12.8393 H         1 RES1    0.0000
     17 C9         4.2573    1.0982   12.3975 C.3       1 RES1    0.0000
     18 H5         5.2139    1.0093   12.5569 H         1 RES1    0.0000
     19 H6         3.8160    0.3575   12.8366 H         1 RES1    0.0000
     20 C10        4.3869    6.7962   14.3363 C.2       1 RES1    0.0000
     21 C11        5.0683    4.6273   10.0926 C.2       1 RES1    0.0000
     22 C12        7.1866    5.5391   13.9931 C.ar      1 RES1    0.0000
     23 H7         7.2308    6.3408   14.4619 H         1 RES1    0.0000
     24 C13        2.5982    8.0662   15.3050 C.3       1 RES1    0.0000
     25 C14        8.2574    3.6140   13.0744 C.ar      1 RES1    0.0000
     26 H8         9.0280    3.1117   12.9406 H         1 RES1    0.0000
     27 O4         5.2718    7.6311   14.5362 O.2       1 RES1    0.0000
     28 C15        2.7129    9.1736   14.3349 C.3       1 RES1    0.0000
     29 H9         3.6338    9.2922   14.0877 H         1 RES1    0.0000
     30 H10        2.3858    9.9874   14.7335 H         1 RES1    0.0000
     31 H11        2.1957    8.9748   13.5513 H         1 RES1    0.0000
     32 C16        3.1852    8.3189   16.6723 C.3       1 RES1    0.0000
     33 H12        2.6371    7.8879   17.3384 H         1 RES1    0.0000
     34 H13        3.2134    9.2583   16.8425 H         1 RES1    0.0000
     35 H14        4.0722    7.9537   16.7115 H         1 RES1    0.0000
     36 C17        1.1865    7.6397   15.5374 C.3       1 RES1    0.0000
     37 H15        0.7932    7.3518   14.7132 H         1 RES1    0.0000
     38 H16        0.6808    8.3815   15.8900 H         1 RES1    0.0000
     39 H17        1.1673    6.9184   16.1724 H         1 RES1    0.0000
     40 C18        4.0084    1.0192   10.9329 C.3       1 RES1    0.0000
     41 H18        3.0511    1.0604   10.7627 H         1 RES1    0.0000
     42 H19        4.3394    0.1774   10.5843 H         1 RES1    0.0000
     43 C19        3.9691    2.4261   14.4957 C.3       1 RES1    0.0000
     44 H20        4.0750    3.3416   14.7997 H         1 RES1    0.0000
     45 H21        4.7832    1.9442   14.7119 H         1 RES1    0.0000
     46 O5         1.8626    1.3441   14.8119 O.2       1 RES1    0.0000
     47 O6         3.1363    1.6735   16.5277 O.3       1 RES1    0.0000
     48 C20        2.8112    1.7942   15.2145 C.2       1 RES1    0.0000
     49 O7         5.8997    4.4506    9.2900 O.2       1 RES1    0.0000
     50 C21        5.6250    6.9739   10.0250 C.3       1 RES1    0.0000
     51 H22        6.5673    6.8157   10.2033 H         1 RES1    0.0000
     52 H23        5.4961    7.0786    9.0752 H         1 RES1    0.0000
     53 C22        5.1695    8.1540   10.7411 C.3       1 RES1    0.0000
     54 H24        4.2286    8.2602   10.5979 H         1 RES1    0.0000
     55 H25        5.6371    8.9216   10.4074 H         1 RES1    0.0000
     56 H26        5.3465    8.0455   11.6760 H         1 RES1    0.0000
     57 N2         4.3548    2.0677    8.7550 N.pl3     1 RES1    0.0000
     58 O8         3.3200    2.5229    8.4307 O.2       1 RES1    0.0000
     59 O9         5.0952    1.3941    8.0524 O.2       1 RES1    0.0000
     60 C23        8.3164    4.7892   13.7742 C.ar      1 RES1    0.0000
     61 H27        9.1333    5.0820   14.1066 H         1 RES1    0.0000
     62 C24        2.1480    1.1154   17.4559 C.3       1 RES1    0.0000
     63 H28        1.4844    0.6019   16.9641 H         1 RES1    0.0000
     64 H29        2.5797    0.5307   18.0950 H         1 RES1    0.0000
     65 C25        1.5816    2.1544   18.0639 C.3       1 RES1    0.0000
     66 H30        2.1457    2.9227   17.9910 H         1 RES1    0.0000
     67 H31        1.4515    1.9404   18.9975 H         1 RES1    0.0000
     68 H32        0.7284    2.3380   17.6640 H         1 RES1    0.0000
     69 C26        1.7089    7.7874    6.7392 C.ar      2 RES2    0.0000
     70 C27        1.7089    9.0819    7.1526 C.ar      2 RES2    0.0000
     71 C28       -0.4779    8.1947    6.9418 C.2       2 RES2    0.0000
     72 O10       -1.6679    7.9993    6.9986 O.2       2 RES2    0.0000
     73 C29        0.2512    9.5110    7.2918 C.3       2 RES2    0.0000
     74 O11       -0.9695    5.9758    5.4111 O.3       2 RES2    0.0000
     75 N3         0.4447    7.2585    6.5230 N.am      2 RES2    0.0000
     76 C30       -0.1447    9.9598    8.7158 C.3       2 RES2    0.0000
     77 H33       -1.1201    9.8865    8.7766 H         2 RES2    0.0000
     78 C31       -0.1978   10.5346    6.2136 C.3       2 RES2    0.0000
     79 H34       -1.1780   10.5322    6.2177 H         2 RES2    0.0000
     80 N4        -0.3869   11.7908   10.2939 N.pl3     2 RES2    0.0000
     81 C32        0.4476    8.9823    9.7669 C.2       2 RES2    0.0000
     82 C33        2.9836    7.1649    6.4825 C.ar      2 RES2    0.0000
     83 H35        3.0263    6.2965    6.1528 H         2 RES2    0.0000
     84 O12        0.1903    7.7357    9.5427 O.3       2 RES2    0.0000
     85 C34        2.8829    9.7313    7.3593 C.ar      2 RES2    0.0000
     86 H36        2.8621   10.6021    7.6849 H         2 RES2    0.0000
     87 C35        4.1392    7.8774    6.7338 C.ar      2 RES2    0.0000
     88 H37        4.9708    7.4732    6.6392 H         2 RES2    0.0000
     89 C36        4.0487    9.1664    7.1175 C.ar      2 RES2    0.0000
     90 H38        4.8249    9.6750    7.2107 H         2 RES2    0.0000
     91 O13       -1.5109   11.4680   10.5668 O.2       2 RES2    0.0000
     92 C37        0.1640    5.9471    5.9839 C.2       2 RES2    0.0000
     93 C38       -1.6551    4.7487    4.9193 C.3       2 RES2    0.0000
     94 C39        0.1986   11.3510    9.0211 C.3       2 RES2    0.0000
     95 H39        1.1734   11.4210    9.0887 H         2 RES2    0.0000
     96 C40        0.2278   11.9331    6.6068 C.3       2 RES2    0.0000
     97 H40       -0.0877   12.5574    5.9353 H         2 RES2    0.0000
     98 H41        1.1990   11.9744    6.6135 H         2 RES2    0.0000
     99 O14        1.1457    9.4275   10.6384 O.2       2 RES2    0.0000
    100 O15        0.9328    5.0453    6.0826 O.2       2 RES2    0.0000
    101 C41       -0.2917   12.3701    7.9700 C.3       2 RES2    0.0000
    102 H42       -1.2613   12.4007    7.9619 H         2 RES2    0.0000
    103 H43        0.0406   13.2559    8.1848 H         2 RES2    0.0000
    104 C42        0.6146    5.4482    9.7683 C.3       2 RES2    0.0000
    105 H44       -0.3058    5.1808    9.8291 H         2 RES2    0.0000
    106 H45        1.1659    4.8026   10.2141 H         2 RES2    0.0000
    107 H46        0.8718    5.5233    8.8536 H         2 RES2    0.0000
    108 C43        0.7836    6.8201   10.4614 C.3       2 RES2    0.0000
    109 H47        0.3278    6.8340   11.3166 H         2 RES2    0.0000
    110 H48        1.7225    7.0204   10.5992 H         2 RES2    0.0000
    111 C44       -1.8906    3.9179    6.0528 C.3       2 RES2    0.0000
    112 H49       -2.2443    4.4473    6.7703 H         2 RES2    0.0000
    113 H50       -1.0615    3.5164    6.3312 H         2 RES2    0.0000
    114 H51       -2.5156    3.2292    5.8218 H         2 RES2    0.0000
    115 C45       -0.7711    4.1148    3.8776 C.3       2 RES2    0.0000
    116 H52       -0.5912    3.2032    4.1194 H         2 RES2    0.0000
    117 H53        0.0501    4.5991    3.8087 H         2 RES2    0.0000
    118 H54       -1.2234    4.1300    3.0237 H         2 RES2    0.0000
    119 C46       -2.8109    5.3116    4.2154 C.3       2 RES2    0.0000
    120 H55       -3.2270    4.6226    3.6844 H         2 RES2    0.0000
    121 H56       -2.5207    6.0215    3.6358 H         2 RES2    0.0000
    122 H57       -3.4425    5.6505    4.8490 H         2 RES2    0.0000
    123 O16        0.2701   12.5557   10.9870 O.2       2 RES2    0.0000
    124 O17       -1.4842   11.5541    3.8546 O.2       2 RES2    0.0000
    125 C47       -0.4677   10.9762    3.7303 C.2       2 RES2    0.0000
    126 O18        0.2275   10.8489    2.6224 O.3       2 RES2    0.0000
    127 C48        0.2294   10.1164    4.8342 C.3       2 RES2    0.0000
    128 H58        0.0017    9.1822    4.6990 H         2 RES2    0.0000
    129 H59        1.1881   10.2075    4.7517 H         2 RES2    0.0000
    130 C49        0.1784   10.9710    0.2837 C.3       2 RES2    0.0000
    131 H60        0.1906   10.0107    0.3594 H         2 RES2    0.0000
    132 H61        1.0767   11.2901    0.1716 H         2 RES2    0.0000
    133 H62       -0.3498   11.2221   -0.4756 H         2 RES2    0.0000
    134 C50       -0.3675   11.5150    1.4321 C.3       2 RES2    0.0000
    135 H63       -1.3311   11.3915    1.4335 H         2 RES2    0.0000
    136 H64       -0.1861   12.4683    1.4646 H         2 RES2    0.0000
@<TRIPOS>BOND
     1    1    2 1
     2    3   20 1
     3    4    1 1
     4    5    1 1
     5    6    5 1
     6    7    8 1
     7    8    9 1
     8    9    4 1
     9   10    4 1
    10   11    9 2
    11   12   21 1
    12   13   10 ar
    13   14   13 1
    14   15    4 1
    15   16   15 1
    16   17   15 1
    17   18   17 1
    18   19   17 1
    19   20    8 1
    20   21    1 1
    21   22    7 ar
    22   23   22 1
    23   24    3 1
    24   25   13 ar
    25   26   25 1
    26   27   20 2
    27   28   24 1
    28   29   28 1
    29   30   28 1
    30   31   28 1
    31   32   24 1
    32   33   32 1
    33   34   32 1
    34   35   32 1
    35   36   24 1
    36   37   36 1
    37   38   36 1
    38   39   36 1
    39   40    5 1
    40   41   40 1
    41   42   40 1
    42   43   15 1
    43   44   43 1
    44   45   43 1
    45   46   48 2
    46   47   48 1
    47   48   43 1
    48   49   21 2
    49   50   12 1
    50   51   50 1
    51   52   50 1
    52   53   50 1
    53   54   53 1
    54   55   53 1
    55   56   53 1
    56   57    5 1
    57   58   57 2
    58   59   57 2
    59   60   22 ar
    60   61   60 1
    61   62   47 1
    62   63   62 1
    63   64   62 1
    64   65   62 1
    65   66   65 1
    66   67   65 1
    67   68   65 1
    68   69   70 ar
    69   70   73 1
    70   71   72 2
    71   73   71 1
    72   74   92 1
    73   75   69 1
    74   76   73 1
    75   77   76 1
    76   78   73 1
    77   79   78 1
    78   80   91 2
    79   81   76 1
    80   82   69 ar
    81   83   82 1
    82   84   81 1
    83   85   70 ar
    84   86   85 1
    85   87   82 ar
    86   88   87 1
    87   89   85 ar
    88   90   89 1
    89   92   75 1
    90   93   74 1
    91   94   76 1
    92   95   94 1
    93   96   78 1
    94   97   96 1
    95   98   96 1
    96   99   81 2
    97  100   92 2
    98  101   94 1
    99  102  101 1
   100  103  101 1
   101  104  105 1
   102  106  104 1
   103  107  104 1
   104  108   84 1
   105  109  108 1
   106  110  108 1
   107  111   93 1
   108  112  111 1
   109  113  111 1
   110  114  111 1
   111  115   93 1
   112  116  115 1
   113  117  115 1
   114  118  115 1
   115  119   93 1
   116  120  119 1
   117  121  119 1
   118  122  119 1
   119  123   80 2
   120  124  125 2
   121  125  126 1
   122  126  134 1
   123  127   78 1
   124  128  127 1
   125  129  127 1
   126  130  131 1
   127  132  130 1
   128  133  130 1
   129  134  130 1
   130  135  134 1
   131  136  134 1
   132    7   10 ar
   133   17   40 1
   134   25   60 ar
   135   71   75 1
   136   80   94 1
   137   87   89 ar
   138   96  101 1
   139  104  108 1
   140  125  127 1
@<TRIPOS>SUBSTRUCTURE
     1 RES1 1
     2 RES2 69

@<TRIPOS>CRYSIN
   8.9314   11.2207   13.6038  92.4050  96.2130  90.9580   1 1

