# MOL2 file generated by ConQuest
# Please check atom types

@<TRIPOS>MOLECULE
MULTOE
   100   104     2
SMALL
NO_CHARGES
****
Generated from CSD

@<TRIPOS>ATOM
      1 O1        -2.1155    7.1559    3.8077 O.2       1 RES1    0.0000
      2 O2        -2.6786    6.5491    5.7776 O.2       1 RES1    0.0000
      3 N1        -1.8649    6.7233    4.8921 N.pl3     1 RES1    0.0000
      4 O3         1.9003    8.8864    6.0918 O.3       1 RES1    0.0000
      5 O4         0.2376    9.1374    4.7502 O.2       1 RES1    0.0000
      6 O5        -0.9275    2.5947    7.7744 O.2       1 RES1    0.0000
      7 O6         1.0279    1.6408    8.2792 O.3       1 RES1    0.0000
      8 O7         2.5797    5.7352    5.1173 O.2       1 RES1    0.0000
      9 C1         2.5699   10.0656    5.5786 C.3       1 RES1    0.0000
     10 H1         2.1668   10.8700    5.9439 H         1 RES1    0.0000
     11 H2         2.5042   10.0988    4.6116 H         1 RES1    0.0000
     12 C2         3.9809    9.9599    5.9977 C.3       1 RES1    0.0000
     13 H3         4.0328    9.9855    6.9566 H         1 RES1    0.0000
     14 H4         4.4782   10.6927    5.6308 H         1 RES1    0.0000
     15 H5         4.3464    9.1320    5.6797 H         1 RES1    0.0000
     16 N2         3.5089    6.4231    7.1033 N.am      1 RES1    0.0000
     17 H6         4.3376    6.3013    6.9060 H         1 RES1    0.0000
     18 C3         3.0492    6.9465    8.3362 C.ar      1 RES1    0.0000
     19 C4         1.6653    6.9497    8.3280 C.ar      1 RES1    0.0000
     20 C5         1.1589    6.3868    7.0267 C.3       1 RES1    0.0000
     21 C6         0.1992    7.2723    6.1999 C.3       1 RES1    0.0000
     22 H7        -0.5214    7.5543    6.8017 H         1 RES1    0.0000
     23 C7         0.9826    7.4283    9.4353 C.ar      1 RES1    0.0000
     24 H8         0.0530    7.4240    9.4581 H         1 RES1    0.0000
     25 C8         2.4790    6.1368    6.2749 C.2       1 RES1    0.0000
     26 C9         3.0861    7.9207   10.4805 C.ar      1 RES1    0.0000
     27 H9         3.5560    8.2518   11.2111 H         1 RES1    0.0000
     28 C10        1.7129    7.9132   10.5083 C.ar      1 RES1    0.0000
     29 H10        1.2678    8.2380   11.2584 H         1 RES1    0.0000
     30 C11        3.7892    7.4400    9.3782 C.ar      1 RES1    0.0000
     31 H11        4.7194    7.4550    9.3505 H         1 RES1    0.0000
     32 C12       -0.4258    6.3184    5.1644 C.3       1 RES1    0.0000
     33 H12        0.0893    6.3483    4.3328 H         1 RES1    0.0000
     34 C13       -0.3402    4.9265    5.7711 C.3       1 RES1    0.0000
     35 H13        0.1867    4.3422    5.2036 H         1 RES1    0.0000
     36 H14       -1.2270    4.5452    5.8673 H         1 RES1    0.0000
     37 C14        0.3252    5.0793    7.1409 C.3       1 RES1    0.0000
     38 H15       -0.3828    5.2363    7.7980 H         1 RES1    0.0000
     39 C15        1.1169    3.8605    7.5974 C.3       1 RES1    0.0000
     40 H16        1.7626    3.6329    6.9109 H         1 RES1    0.0000
     41 H17        1.6089    4.0912    8.3998 H         1 RES1    0.0000
     42 C16        0.2635    2.6523    7.8796 C.2       1 RES1    0.0000
     43 C17        0.3582    0.3771    8.5954 C.3       1 RES1    0.0000
     44 H18        0.9862   -0.3546    8.4894 H         1 RES1    0.0000
     45 H19       -0.3708    0.2361    7.9725 H         1 RES1    0.0000
     46 C18       -0.1720    0.3717    9.9864 C.3       1 RES1    0.0000
     47 H20        0.5595    0.4187   10.6077 H         1 RES1    0.0000
     48 H21       -0.6687   -0.4358   10.1365 H         1 RES1    0.0000
     49 H22       -0.7470    1.1302   10.1120 H         1 RES1    0.0000
     50 C19        0.7733    8.5189    5.5852 C.2       1 RES1    0.0000
     51 N3        10.7784    4.3401    6.0091 N.pl3     2 RES2    0.0000
     52 N4         5.0991    4.5163    4.5562 N.am      2 RES2    0.0000
     53 H23        4.3361    4.9116    4.5627 H         2 RES2    0.0000
     54 C20        8.3736    4.9191    3.7686 C.3       2 RES2    0.0000
     55 H24        8.9793    4.2664    3.3592 H         2 RES2    0.0000
     56 C21        6.2116    5.0302    5.1090 C.2       2 RES2    0.0000
     57 C22        7.1456    1.7668    3.6022 C.ar      2 RES2    0.0000
     58 H25        8.0517    1.5596    3.6463 H         2 RES2    0.0000
     59 C23        7.7433    3.4022    7.1914 C.2       2 RES2    0.0000
     60 C24        5.3225    3.2634    3.9659 C.ar      2 RES2    0.0000
     61 C25        7.4049    4.1489    4.6981 C.3       2 RES2    0.0000
     62 C26        9.3770    4.9116    5.9814 C.3       2 RES2    0.0000
     63 H26        9.2091    5.4414    6.7886 H         2 RES2    0.0000
     64 C27        8.3479    3.7633    5.8673 C.3       2 RES2    0.0000
     65 H27        8.8476    2.9749    5.5672 H         2 RES2    0.0000
     66 C28        6.6896    2.9856    4.0556 C.ar      2 RES2    0.0000
     67 C29        4.4140    2.3799    3.4506 C.ar      2 RES2    0.0000
     68 H28        3.5074    2.5872    3.4065 H         2 RES2    0.0000
     69 C30        9.1885    5.7629    4.7437 C.3       2 RES2    0.0000
     70 H29       10.0462    5.9947    4.3572 H         2 RES2    0.0000
     71 H30        8.7160    6.5812    4.9622 H         2 RES2    0.0000
     72 C31        6.2453    0.8546    3.0804 C.ar      2 RES2    0.0000
     73 H31        6.5480    0.0278    2.7820 H         2 RES2    0.0000
     74 C32        4.8999    1.1601    2.9989 C.ar      2 RES2    0.0000
     75 H32        4.3106    0.5394    2.6352 H         2 RES2    0.0000
     76 C33        5.7903    2.5989    8.2579 C.3       2 RES2    0.0000
     77 H33        6.1207    1.7348    8.5481 H         2 RES2    0.0000
     78 H34        5.9631    3.2409    8.9656 H         2 RES2    0.0000
     79 C34        4.4321    2.5210    8.0280 C.3       2 RES2    0.0000
     80 H35        4.0830    3.4011    7.8681 H         2 RES2    0.0000
     81 H36        3.9970    2.1396    8.7944 H         2 RES2    0.0000
     82 H37        4.2689    1.9687    7.2599 H         2 RES2    0.0000
     83 C35        7.7111    5.7127    2.6401 C.3       2 RES2    0.0000
     84 H38        7.0491    5.1530    2.2047 H         2 RES2    0.0000
     85 H39        7.2516    6.4786    3.0184 H         2 RES2    0.0000
     86 C36        8.7017    6.1892    1.6160 C.2       2 RES2    0.0000
     87 O8         6.2612    6.0471    5.8056 O.2       2 RES2    0.0000
     88 O9         8.3336    3.4172    8.2302 O.2       2 RES2    0.0000
     89 O10        6.4863    3.0048    7.0552 O.3       2 RES2    0.0000
     90 O11        9.8689    6.3590    1.8199 O.2       2 RES2    0.0000
     91 O12        8.1197    6.4669    0.4680 O.3       2 RES2    0.0000
     92 O13       11.4325    4.4832    7.0185 O.2       2 RES2    0.0000
     93 O14       11.1901    3.7611    5.0258 O.2       2 RES2    0.0000
     94 C37        8.9471    7.0341   -0.6148 C.3       2 RES2    0.0000
     95 H40        8.4930    7.8053   -0.9882 H         2 RES2    0.0000
     96 H41        9.7907    7.3353   -0.2446 H         2 RES2    0.0000
     97 C38        9.1934    6.1304   -1.6128 C.3       2 RES2    0.0000
     98 H42        9.6497    5.3688   -1.2507 H         2 RES2    0.0000
     99 H43        9.7397    6.5406   -2.2879 H         2 RES2    0.0000
    100 H44        8.3623    5.8495   -2.0025 H         2 RES2    0.0000
@<TRIPOS>BOND
     1    1    3 2
     2    2    3 2
     3    3   32 1
     4    4    9 1
     5    5   50 2
     6    6   42 2
     7    7   42 1
     8    8   25 2
     9    9   10 1
    10   11    9 1
    11   12    9 1
    12   13   12 1
    13   14   12 1
    14   15   12 1
    15   16   17 1
    16   18   16 1
    17   19   18 ar
    18   20   19 1
    19   21   20 1
    20   22   21 1
    21   23   19 ar
    22   24   23 1
    23   25   16 1
    24   26   27 1
    25   28   23 ar
    26   29   28 1
    27   30   18 ar
    28   31   30 1
    29   32   21 1
    30   33   32 1
    31   34   32 1
    32   35   34 1
    33   36   34 1
    34   37   20 1
    35   38   37 1
    36   39   37 1
    37   40   39 1
    38   41   39 1
    39   42   39 1
    40   43    7 1
    41   44   43 1
    42   45   43 1
    43   46   43 1
    44   47   46 1
    45   48   46 1
    46   49   46 1
    47   50    4 1
    48   51   62 1
    49   52   53 1
    50   54   55 1
    51   56   52 1
    52   57   58 1
    53   59   64 1
    54   60   52 1
    55   61   54 1
    56   62   63 1
    57   64   61 1
    58   65   64 1
    59   66   57 ar
    60   67   60 ar
    61   68   67 1
    62   69   54 1
    63   70   69 1
    64   71   69 1
    65   72   57 ar
    66   73   72 1
    67   74   67 ar
    68   75   74 1
    69   76   77 1
    70   78   76 1
    71   79   76 1
    72   80   79 1
    73   81   79 1
    74   82   79 1
    75   83   54 1
    76   84   83 1
    77   85   83 1
    78   86   83 1
    79   87   56 2
    80   88   59 2
    81   89   59 1
    82   90   86 2
    83   91   86 1
    84   92   51 2
    85   93   51 2
    86   94   91 1
    87   95   94 1
    88   96   94 1
    89   97   94 1
    90   98   97 1
    91   99   97 1
    92  100   97 1
    93   20   25 1
    94   21   50 1
    95   26   28 ar
    96   26   30 ar
    97   34   37 1
    98   56   61 1
    99   60   66 ar
   100   61   66 1
   101   62   64 1
   102   62   69 1
   103   72   74 ar
   104   76   89 1
@<TRIPOS>SUBSTRUCTURE
     1 RES1 1
     2 RES2 51

@<TRIPOS>CRYSIN
  21.8507   10.6820   16.6118  90.0000 100.9920  90.0000  14 1

