# MOL2 file generated by ConQuest
# Please check atom types

@<TRIPOS>MOLECULE
MULTAQ
    68    70     1
SMALL
NO_CHARGES
****
Generated from CSD

@<TRIPOS>ATOM
      1 O1         6.6782    4.4012   15.2520 O.2       1 RES1    0.0000
      2 O2         7.4035    8.4571   15.5667 O.2       1 RES1    0.0000
      3 O3         7.5460    6.4681   16.6074 O.3       1 RES1    0.0000
      4 O4         7.5137    5.2155   12.2764 O.2       1 RES1    0.0000
      5 O5         6.4097    4.6841   10.4287 O.3       1 RES1    0.0000
      6 O6         0.9435    4.7118   15.3185 O.2       1 RES1    0.0000
      7 O7         1.8799    4.6454   17.3043 O.3       1 RES1    0.0000
      8 O8         5.2459    1.5112   10.9604 O.2       1 RES1    0.0000
      9 O9         7.2805    1.6994   11.5844 O.2       1 RES1    0.0000
     10 N1         6.2784    6.6509   14.7714 N.am      1 RES1    0.0000
     11 N2         6.1026    1.8765   11.7462 N.pl3     1 RES1    0.0000
     12 C1         5.4416    7.3379   13.8418 C.ar      1 RES1    0.0000
     13 C2         4.6458    6.4212   13.1726 C.ar      1 RES1    0.0000
     14 C3         4.9552    5.0185   13.6304 C.3       1 RES1    0.0000
     15 C4         6.0874    5.2510   14.6420 C.2       1 RES1    0.0000
     16 C5         3.6965    6.8563   12.2768 C.ar      1 RES1    0.0000
     17 H1         3.1632    6.2452   11.8231 H         1 RES1    0.0000
     18 C6         3.5465    8.2080   12.0591 C.ar      1 RES1    0.0000
     19 H2         2.8902    8.5169   11.4751 H         1 RES1    0.0000
     20 C7         4.3634    9.0981   12.7040 C.ar      1 RES1    0.0000
     21 H3         4.2626   10.0060   12.5270 H         1 RES1    0.0000
     22 C8         5.3256    8.7062   13.6027 C.ar      1 RES1    0.0000
     23 H4         5.8741    9.3240   14.0306 H         1 RES1    0.0000
     24 C9         5.3807    4.1273   12.4560 C.3       1 RES1    0.0000
     25 H5         4.6317    4.0896   11.8251 H         1 RES1    0.0000
     26 C10        5.6678    2.6858   12.9303 C.3       1 RES1    0.0000
     27 H6         6.3897    2.7013   13.5932 H         1 RES1    0.0000
     28 C11        4.4196    2.0813   13.5608 C.3       1 RES1    0.0000
     29 H7         3.7106    2.0348   12.8994 H         1 RES1    0.0000
     30 H8         4.6106    1.1802   13.8638 H         1 RES1    0.0000
     31 C12        3.9672    2.9239   14.7317 C.3       1 RES1    0.0000
     32 H9         4.6435    2.8917   15.4263 H         1 RES1    0.0000
     33 H10        3.1503    2.5497   15.0947 H         1 RES1    0.0000
     34 C13        3.7188    4.3841   14.3435 C.3       1 RES1    0.0000
     35 H11        2.9839    4.3852   13.6949 H         1 RES1    0.0000
     36 C14        3.2617    5.2244   15.5360 C.3       1 RES1    0.0000
     37 H12        3.8969    5.1214   16.2626 H         1 RES1    0.0000
     38 H13        3.2511    6.1610   15.2819 H         1 RES1    0.0000
     39 C15        1.8998    4.8270   16.0109 C.2       1 RES1    0.0000
     40 C16        0.5743    4.2391   17.8719 C.3       1 RES1    0.0000
     41 H14       -0.1172    4.8502   17.5728 H         1 RES1    0.0000
     42 H15        0.3457    3.3479   17.5627 H         1 RES1    0.0000
     43 C17        0.6352    4.2502   19.2087 C.3       1 RES1    0.0000
     44 H16        0.9470    5.1082   19.5077 H         1 RES1    0.0000
     45 H17        1.2400    3.5682   19.5077 H         1 RES1    0.0000
     46 H18       -0.2379    4.0830   19.5708 H         1 RES1    0.0000
     47 C18        6.5632    4.7351   11.7299 C.2       1 RES1    0.0000
     48 C19        7.4469    5.3152    9.6074 C.3       1 RES1    0.0000
     49 H19        8.2685    5.3883   10.1181 H         1 RES1    0.0000
     50 H20        7.6239    4.7672    8.8261 H         1 RES1    0.0000
     51 C20        7.0238    6.6027    9.1984 C.3       1 RES1    0.0000
     52 H21        6.8046    7.1275    9.9736 H         1 RES1    0.0000
     53 H22        6.2491    6.5219    8.6389 H         1 RES1    0.0000
     54 H23        7.7293    7.0323    8.7101 H         1 RES1    0.0000
     55 C21        7.1433    7.3069   15.6725 C.2       1 RES1    0.0000
     56 C22        8.5111    6.8906   17.6424 C.3       1 RES1    0.0000
     57 C23        8.6916    5.6097   18.4274 C.3       1 RES1    0.0000
     58 H24        8.9928    4.9133   17.8373 H         1 RES1    0.0000
     59 H25        7.8547    5.3550   18.8221 H         1 RES1    0.0000
     60 H26        9.3432    5.7470   19.1191 H         1 RES1    0.0000
     61 C24        7.8758    7.9755   18.4945 C.3       1 RES1    0.0000
     62 H27        7.7961    8.7815   17.9798 H         1 RES1    0.0000
     63 H28        8.4255    8.1405   19.2636 H         1 RES1    0.0000
     64 H29        7.0050    7.6899   18.7794 H         1 RES1    0.0000
     65 C25        9.8085    7.3334   17.0113 C.3       1 RES1    0.0000
     66 H30        9.6760    8.1693   16.5596 H         1 RES1    0.0000
     67 H31       10.0991    6.6703   16.3785 H         1 RES1    0.0000
     68 H32       10.4765    7.4397   17.6929 H         1 RES1    0.0000
@<TRIPOS>BOND
     1    1   15 2
     2    2   55 2
     3    3   55 1
     4    4   47 2
     5    5   47 1
     6    6   39 2
     7    7   39 1
     8    8   11 2
     9    9   11 2
    10   10   12 1
    11   11   26 1
    12   12   13 ar
    13   13   14 1
    14   14   15 1
    15   15   10 1
    16   16   13 ar
    17   17   16 1
    18   18   16 ar
    19   19   18 1
    20   20   18 ar
    21   21   20 1
    22   22   12 ar
    23   23   22 1
    24   24   14 1
    25   25   24 1
    26   26   24 1
    27   27   26 1
    28   28   26 1
    29   29   28 1
    30   30   28 1
    31   31   28 1
    32   32   31 1
    33   33   31 1
    34   34   14 1
    35   35   34 1
    36   36   34 1
    37   37   36 1
    38   38   36 1
    39   39   36 1
    40   40    7 1
    41   41   40 1
    42   42   40 1
    43   43   40 1
    44   44   43 1
    45   45   43 1
    46   46   43 1
    47   47   24 1
    48   48    5 1
    49   49   48 1
    50   50   48 1
    51   51   48 1
    52   52   51 1
    53   53   51 1
    54   54   51 1
    55   55   10 1
    56   56    3 1
    57   57   56 1
    58   58   57 1
    59   59   57 1
    60   60   57 1
    61   61   56 1
    62   62   61 1
    63   63   61 1
    64   64   61 1
    65   65   56 1
    66   66   65 1
    67   67   65 1
    68   68   65 1
    69   20   22 ar
    70   31   34 1
@<TRIPOS>SUBSTRUCTURE
     1 RES1 1

@<TRIPOS>CRYSIN
  11.7200   11.0710   20.3460  90.0000  90.0000  90.0000  33 1

