# MOL2 file generated by ConQuest
# Please check atom types

@<TRIPOS>MOLECULE
MUMDIJ
    59    60     1
SMALL
NO_CHARGES
****
Generated from CSD

@<TRIPOS>ATOM
      1 C1         1.9223    7.7254    5.9905 C.3       1 RES1    0.0000
      2 H1         1.0662    7.6381    6.4587 H         1 RES1    0.0000
      3 C2         2.1883    9.2035    5.7621 C.ar      1 RES1    0.0000
      4 C3         3.3887    9.6397    5.2118 C.ar      1 RES1    0.0000
      5 H2         4.0521    9.0237    5.0004 H         1 RES1    0.0000
      6 C4         3.6001   10.9964    4.9754 C.ar      1 RES1    0.0000
      7 H3         4.4056   11.2848    4.6103 H         1 RES1    0.0000
      8 C5         2.6109   11.9172    5.2846 C.ar      1 RES1    0.0000
      9 H4         2.7458   12.8211    5.1141 H         1 RES1    0.0000
     10 C6         1.4297   11.4889    5.8432 C.ar      1 RES1    0.0000
     11 H5         0.7700   12.1076    6.0597 H         1 RES1    0.0000
     12 C7         1.2192   10.1417    6.0839 C.ar      1 RES1    0.0000
     13 H6         0.4186    9.8634    6.4657 H         1 RES1    0.0000
     14 C8         3.0028    7.0266    6.8304 C.3       1 RES1    0.0000
     15 H7         3.8193    6.9697    6.2921 H         1 RES1    0.0000
     16 C9         2.6471    5.6372    7.2947 C.ar      1 RES1    0.0000
     17 C10        3.5184    4.5887    7.0652 C.ar      1 RES1    0.0000
     18 H8         4.3043    4.7406    6.5923 H         1 RES1    0.0000
     19 C11        3.2365    3.3107    7.5313 C.ar      1 RES1    0.0000
     20 H9         3.8372    2.6226    7.3564 H         1 RES1    0.0000
     21 C12        2.0775    3.0308    8.2531 C.ar      1 RES1    0.0000
     22 C13        1.2054    4.1090    8.4658 C.ar      1 RES1    0.0000
     23 H10        0.4189    3.9631    8.9394 H         1 RES1    0.0000
     24 C14        1.4741    5.3749    7.9968 C.ar      1 RES1    0.0000
     25 H11        0.8664    6.0623    8.1504 H         1 RES1    0.0000
     26 C15        0.6474    6.7122    4.1366 C.2       1 RES1    0.0000
     27 C16       -0.2721    5.7765    2.0593 C.3       1 RES1    0.0000
     28 C17       -1.1303    4.7231    2.7322 C.3       1 RES1    0.0000
     29 H12       -0.5924    3.9536    2.9356 H         1 RES1    0.0000
     30 H13       -1.8437    4.4676    2.1436 H         1 RES1    0.0000
     31 H14       -1.4977    5.0795    3.5440 H         1 RES1    0.0000
     32 C18        0.4447    5.1958    0.8578 C.3       1 RES1    0.0000
     33 H15        1.0117    5.8665    0.4688 H         1 RES1    0.0000
     34 H16       -0.2008    4.9063    0.2085 H         1 RES1    0.0000
     35 H17        0.9772    4.4469    1.1341 H         1 RES1    0.0000
     36 C19       -1.0690    7.0055    1.6716 C.3       1 RES1    0.0000
     37 H18       -1.4693    7.3877    2.4558 H         1 RES1    0.0000
     38 H19       -1.7568    6.7570    1.0493 H         1 RES1    0.0000
     39 H20       -0.4851    7.6494    1.2638 H         1 RES1    0.0000
     40 C20        1.8018    1.6483    8.8517 C.3       1 RES1    0.0000
     41 C21        0.3141    1.3111    8.8017 C.3       1 RES1    0.0000
     42 H21       -0.1778    1.9561    9.3144 H         1 RES1    0.0000
     43 H22        0.1720    0.4349    9.1678 H         1 RES1    0.0000
     44 H23        0.0124    1.3292    7.8900 H         1 RES1    0.0000
     45 C22        2.5367    0.5383    8.0945 C.3       1 RES1    0.0000
     46 H24        2.3383    0.6043    7.1579 H         1 RES1    0.0000
     47 H25        2.2497   -0.3163    8.4227 H         1 RES1    0.0000
     48 H26        3.4829    0.6307    8.2292 H         1 RES1    0.0000
     49 C23        2.2593    1.6583   10.3158 C.3       1 RES1    0.0000
     50 H27        3.1958    1.8639   10.3568 H         1 RES1    0.0000
     51 H28        2.1046    0.7945   10.7049 H         1 RES1    0.0000
     52 H29        1.7639    2.3214   10.8017 H         1 RES1    0.0000
     53 N1         1.8346    6.9814    4.7368 N.am      1 RES1    0.0000
     54 H30        2.5595    6.7043    4.3660 H         1 RES1    0.0000
     55 N2         3.3023    7.8627    8.0554 N.pl3     1 RES1    0.0000
     56 O1        -0.4391    6.9306    4.6404 O.2       1 RES1    0.0000
     57 O2         0.8631    6.1579    2.9365 O.3       1 RES1    0.0000
     58 O3         2.3654    8.3695    8.6505 O.2       1 RES1    0.0000
     59 O4         4.4808    7.9310    8.4101 O.2       1 RES1    0.0000
@<TRIPOS>BOND
     1    1    2 1
     2    3    1 1
     3    4    3 ar
     4    5    4 1
     5    6    4 ar
     6    7    6 1
     7    8    6 ar
     8    9    8 1
     9   10    8 ar
    10   11   10 1
    11   12    3 ar
    12   13   12 1
    13   14    1 1
    14   15   14 1
    15   16   14 1
    16   17   16 ar
    17   18   17 1
    18   19   17 ar
    19   20   19 1
    20   21   19 ar
    21   22   21 ar
    22   23   22 1
    23   24   16 ar
    24   25   24 1
    25   26   53 1
    26   27   28 1
    27   28   29 1
    28   30   28 1
    29   31   28 1
    30   32   27 1
    31   33   32 1
    32   34   32 1
    33   35   32 1
    34   36   27 1
    35   37   36 1
    36   38   36 1
    37   39   36 1
    38   40   21 1
    39   41   40 1
    40   42   41 1
    41   43   41 1
    42   44   41 1
    43   45   40 1
    44   46   45 1
    45   47   45 1
    46   48   45 1
    47   49   40 1
    48   50   49 1
    49   51   49 1
    50   52   49 1
    51   53    1 1
    52   54   53 1
    53   55   14 1
    54   56   26 2
    55   57   26 1
    56   58   55 2
    57   59   55 2
    58   10   12 ar
    59   22   24 ar
    60   27   57 1
@<TRIPOS>SUBSTRUCTURE
     1 RES1 1

@<TRIPOS>CRYSIN
   5.7903   18.8269   10.1602  90.0000 100.9630  90.0000   4 1

