# MOL2 file generated by ConQuest
# Please check atom types

@<TRIPOS>MOLECULE
MUNBIH
    72    75     1
SMALL
NO_CHARGES
****
Generated from CSD

@<TRIPOS>ATOM
      1 O1         3.1458    5.6310    7.5371 O.2       1 RES1    0.0000
      2 O2         1.6800    6.5157    6.2312 O.2       1 RES1    0.0000
      3 O3        -2.7473    7.3994    7.5883 O.2       1 RES1    0.0000
      4 O4        -3.3111    7.1339    9.6230 O.2       1 RES1    0.0000
      5 N1         4.4690    1.7466   12.3566 N.3       1 RES1    0.0000
      6 N2         2.7963    4.7369   11.3419 N.2       1 RES1    0.0000
      7 N3         2.5660    5.1134   10.0307 N.3       1 RES1    0.0000
      8 N4         2.0098    6.0655    7.3201 N.pl3     1 RES1    0.0000
      9 N5        -2.4945    7.0685    8.7265 N.pl3     1 RES1    0.0000
     10 C1         5.2816    2.8544   12.9213 C.3       1 RES1    0.0000
     11 C2         5.9491    2.5328   14.2254 C.2       1 RES1    0.0000
     12 C3         5.9143    3.3066   15.2913 C.2       1 RES1    0.0000
     13 C4         5.2102    4.6321   15.2825 C.3       1 RES1    0.0000
     14 C5         4.9929    5.2202   13.8848 C.3       1 RES1    0.0000
     15 C6         4.3764    4.0980   13.0183 C.3       1 RES1    0.0000
     16 C7         6.5491    2.9073   16.6007 C.3       1 RES1    0.0000
     17 C8         6.3185    5.7202   13.3113 C.3       1 RES1    0.0000
     18 C9         4.0086    6.3902   13.9695 C.3       1 RES1    0.0000
     19 C10        5.2583    0.7914   11.5748 C.3       1 RES1    0.0000
     20 C11        5.7014    1.3442   10.2442 C.ar      1 RES1    0.0000
     21 C12        4.8224    2.0122    9.4218 C.ar      1 RES1    0.0000
     22 C13        5.2184    2.4561    8.1724 C.ar      1 RES1    0.0000
     23 C14        6.4974    2.2144    7.7312 C.ar      1 RES1    0.0000
     24 C15        7.3707    1.5444    8.5254 C.ar      1 RES1    0.0000
     25 C16        6.9841    1.1140    9.7854 C.ar      1 RES1    0.0000
     26 C17        3.6354    1.0600   13.3484 C.3       1 RES1    0.0000
     27 C18        2.3870    0.4730   12.7378 C.ar      1 RES1    0.0000
     28 C19        1.5595    1.2312   11.9419 C.ar      1 RES1    0.0000
     29 C20        0.3800    0.7063   11.4372 C.ar      1 RES1    0.0000
     30 C21        0.0257   -0.5964   11.7248 C.ar      1 RES1    0.0000
     31 C22        0.8324   -1.3535   12.5119 C.ar      1 RES1    0.0000
     32 C23        2.0115   -0.8308   13.0183 C.ar      1 RES1    0.0000
     33 C24        4.0099    4.5367   11.6454 C.2       1 RES1    0.0000
     34 C25        1.3440    5.5677    9.6813 C.ar      1 RES1    0.0000
     35 C26        1.0332    6.0355    8.3895 C.ar      1 RES1    0.0000
     36 C27       -0.2256    6.5136    8.0807 C.ar      1 RES1    0.0000
     37 C28       -1.1826    6.5437    9.0513 C.ar      1 RES1    0.0000
     38 C29       -0.9248    6.0728   10.3219 C.ar      1 RES1    0.0000
     39 C30        0.3018    5.5926   10.6342 C.ar      1 RES1    0.0000
     40 H1         5.9981    3.0494   12.2119 H         1 RES1    0.0000
     41 H2         6.4172    1.6699   14.2413 H         1 RES1    0.0000
     42 H3         4.3446    4.5533   15.7237 H         1 RES1    0.0000
     43 H4         5.7019    5.3105   15.8295 H         1 RES1    0.0000
     44 H5         7.0966    2.0122   16.5531 H         1 RES1    0.0000
     45 H6         5.9069    2.8004   17.3119 H         1 RES1    0.0000
     46 H7         7.1231    3.5265   16.8884 H         1 RES1    0.0000
     47 H8         4.3533    7.0530   14.5766 H         1 RES1    0.0000
     48 H9         3.8934    6.8455   13.0589 H         1 RES1    0.0000
     49 H10        3.1516    6.0365   14.2589 H         1 RES1    0.0000
     50 H11        6.6559    6.4929   13.9060 H         1 RES1    0.0000
     51 H12        7.0346    5.0097   13.3060 H         1 RES1    0.0000
     52 H13        6.2012    6.1195   12.3707 H         1 RES1    0.0000
     53 H14        6.0552    0.4875   12.1236 H         1 RES1    0.0000
     54 H15        4.6502    0.0622   11.4354 H         1 RES1    0.0000
     55 H16        3.9352    2.1677    9.7236 H         1 RES1    0.0000
     56 H17        4.5769    2.8938    7.5883 H         1 RES1    0.0000
     57 H18        6.7441    2.4997    6.7942 H         1 RES1    0.0000
     58 H19        8.2230    1.3587    8.2412 H         1 RES1    0.0000
     59 H20        7.5711    0.6846   10.4119 H         1 RES1    0.0000
     60 H21        4.1910    0.3423   13.8531 H         1 RES1    0.0000
     61 H22        3.3748    1.7114   14.0295 H         1 RES1    0.0000
     62 H23       -0.8100   -1.0372   11.2766 H         1 RES1    0.0000
     63 H24        0.5961   -2.2300   12.7060 H         1 RES1    0.0000
     64 H25        1.8478    2.1366   11.7354 H         1 RES1    0.0000
     65 H26        2.6046   -1.3795   13.5707 H         1 RES1    0.0000
     66 H27       -1.6269    6.1195   10.9766 H         1 RES1    0.0000
     67 H28        0.4799    5.2586   11.5060 H         1 RES1    0.0000
     68 H29        4.7223    4.6881   10.9766 H         1 RES1    0.0000
     69 H30        3.2224    5.2067    9.4413 H         1 RES1    0.0000
     70 H31       -0.4053    6.7729    7.2354 H         1 RES1    0.0000
     71 H32       -0.1450    1.2758   10.8707 H         1 RES1    0.0000
     72 H33        3.5144    3.8273   13.4472 H         1 RES1    0.0000
@<TRIPOS>BOND
     1    1    8 2
     2    2    8 2
     3    3    9 2
     4    4    9 2
     5    5   10 1
     6    6    7 1
     7    7   34 1
     8    8   35 1
     9    9   37 1
    10   10   11 1
    11   11   12 2
    12   12   13 1
    13   13   14 1
    14   14   15 1
    15   15   10 1
    16   16   12 1
    17   17   14 1
    18   18   14 1
    19   19    5 1
    20   20   19 1
    21   21   20 ar
    22   22   21 ar
    23   23   22 ar
    24   24   23 ar
    25   25   20 ar
    26   26    5 1
    27   27   26 1
    28   28   27 ar
    29   29   28 ar
    30   30   29 ar
    31   31   30 ar
    32   32   27 ar
    33   33    6 2
    34   34   35 ar
    35   35   36 ar
    36   36   37 ar
    37   37   38 ar
    38   38   39 ar
    39   39   34 ar
    40   40   10 1
    41   41   11 1
    42   42   13 1
    43   43   13 1
    44   44   16 1
    45   45   16 1
    46   46   16 1
    47   47   18 1
    48   48   18 1
    49   49   18 1
    50   50   17 1
    51   51   17 1
    52   52   17 1
    53   53   19 1
    54   54   19 1
    55   55   21 1
    56   56   22 1
    57   57   23 1
    58   58   24 1
    59   59   25 1
    60   60   26 1
    61   61   26 1
    62   62   30 1
    63   63   31 1
    64   64   28 1
    65   65   32 1
    66   66   38 1
    67   67   39 1
    68   68   33 1
    69   69    7 1
    70   70   36 1
    71   71   29 1
    72   72   15 1
    73   15   33 1
    74   24   25 ar
    75   31   32 ar
@<TRIPOS>SUBSTRUCTURE
     1 RES1 1

@<TRIPOS>CRYSIN
  15.6000   10.3720   18.3900  90.0000 106.3400  90.0000 231 1

