# MOL2 file generated by ConQuest
# Please check atom types

@<TRIPOS>MOLECULE
MUNJEL
    58    60     1
SMALL
NO_CHARGES
****
Generated from CSD

@<TRIPOS>ATOM
      1 O1         8.9559   10.7156   20.5380 O.2       1 RES1    0.0000
      2 O2         3.9557    6.4927   18.0204 O.2       1 RES1    0.0000
      3 O3         5.8006    6.5597   19.1172 O.2       1 RES1    0.0000
      4 N1         7.8926    8.7203   20.6292 N.am      1 RES1    0.0000
      5 N2         6.6874    9.1750   18.2087 N.pl3     1 RES1    0.0000
      6 N3         4.7750    7.0871   18.7005 N.pl3     1 RES1    0.0000
      7 C1         8.2655    9.8382   20.0212 C.2       1 RES1    0.0000
      8 C2         7.8531   10.0176   18.5559 C.3       1 RES1    0.0000
      9 H1         7.6154   10.9573   18.4100 H         1 RES1    0.0000
     10 C3         9.0714    9.6932   17.7218 C.ar      1 RES1    0.0000
     11 C4         9.6687    8.4356   17.7750 C.ar      1 RES1    0.0000
     12 H2         9.2930    7.7680   18.3020 H         1 RES1    0.0000
     13 C5        10.8059    8.1774   17.0570 C.ar      1 RES1    0.0000
     14 H3        11.1873    7.3297   17.0838 H         1 RES1    0.0000
     15 C6        11.3813    9.1537   16.3045 C.ar      1 RES1    0.0000
     16 H4        12.1570    8.9736   15.8251 H         1 RES1    0.0000
     17 C7        10.8202   10.4025   16.2504 C.ar      1 RES1    0.0000
     18 H5        11.2249   11.0726   15.7480 H         1 RES1    0.0000
     19 C8         9.6469   10.6703   16.9458 C.ar      1 RES1    0.0000
     20 H6         9.2517   11.5109   16.8872 H         1 RES1    0.0000
     21 C9         6.5198    8.7308   16.8236 C.3       1 RES1    0.0000
     22 H7         6.0724    7.8700   16.8390 H         1 RES1    0.0000
     23 H8         7.4026    8.5893   16.4458 H         1 RES1    0.0000
     24 C10        5.7517    9.6388   15.8851 C.ar      1 RES1    0.0000
     25 C11        5.7192   11.0029   16.0021 C.ar      1 RES1    0.0000
     26 H9         6.1540   11.4064   16.7176 H         1 RES1    0.0000
     27 C12        5.0576   11.7943   15.0834 C.ar      1 RES1    0.0000
     28 H10        5.0507   12.7189   15.1852 H         1 RES1    0.0000
     29 C13        4.4145   11.2203   14.0289 C.ar      1 RES1    0.0000
     30 H11        3.9623   11.7522   13.4138 H         1 RES1    0.0000
     31 C14        4.4363    9.8838   13.8783 C.ar      1 RES1    0.0000
     32 H12        4.0127    9.4983   13.1459 H         1 RES1    0.0000
     33 C15        5.0863    9.0696   14.8080 C.ar      1 RES1    0.0000
     34 H13        5.0728    8.1462   14.7052 H         1 RES1    0.0000
     35 C16        5.4945    9.4555   18.9158 C.ar      1 RES1    0.0000
     36 C17        5.2113   10.6912   19.4877 C.ar      1 RES1    0.0000
     37 H14        5.8394   11.3740   19.4316 H         1 RES1    0.0000
     38 C18        4.0180   10.9225   20.1342 C.ar      1 RES1    0.0000
     39 H15        3.8710   11.7474   20.5380 H         1 RES1    0.0000
     40 C19        3.0388    9.9594   20.1957 C.ar      1 RES1    0.0000
     41 H16        2.2194   10.1456   20.5939 H         1 RES1    0.0000
     42 C20        3.2863    8.7215   19.6642 C.ar      1 RES1    0.0000
     43 H17        2.6388    8.0550   19.6976 H         1 RES1    0.0000
     44 C21        4.5135    8.4776   19.0779 C.ar      1 RES1    0.0000
     45 C22        8.2484    8.3140   22.0029 C.3       1 RES1    0.0000
     46 C23        9.7507    8.1366   22.0962 C.3       1 RES1    0.0000
     47 H18       10.0432    7.5242   21.4169 H         1 RES1    0.0000
     48 H19        9.9788    7.7884   22.9609 H         1 RES1    0.0000
     49 H20       10.1813    8.9844   21.9702 H         1 RES1    0.0000
     50 C24        7.5534    6.9875   22.2574 C.3       1 RES1    0.0000
     51 H21        6.6046    7.0991   22.1591 H         1 RES1    0.0000
     52 H22        7.7491    6.6897   23.1479 H         1 RES1    0.0000
     53 H23        7.8662    6.3354   21.6251 H         1 RES1    0.0000
     54 C25        7.7647    9.3602   23.0008 C.3       1 RES1    0.0000
     55 H24        8.2603   10.1732   22.8780 H         1 RES1    0.0000
     56 H25        7.8988    9.0360   23.8938 H         1 RES1    0.0000
     57 H26        6.8304    9.5307   22.8588 H         1 RES1    0.0000
     58 H27        7.4098    8.1438   20.1679 H         1 RES1    0.0000
@<TRIPOS>BOND
     1    1    7 2
     2    2    6 2
     3    3    6 2
     4    4    7 1
     5    5    8 1
     6    6   44 1
     7    7    8 1
     8    8    9 1
     9   10    8 1
    10   11   10 ar
    11   12   11 1
    12   13   11 ar
    13   14   13 1
    14   15   13 ar
    15   16   15 1
    16   17   15 ar
    17   18   17 1
    18   19   10 ar
    19   20   19 1
    20   21    5 1
    21   22   21 1
    22   23   21 1
    23   24   21 1
    24   25   24 ar
    25   26   25 1
    26   27   25 ar
    27   28   27 1
    28   29   27 ar
    29   30   29 1
    30   31   29 ar
    31   32   31 1
    32   33   24 ar
    33   34   33 1
    34   35    5 1
    35   36   35 ar
    36   37   36 1
    37   38   36 ar
    38   39   38 1
    39   40   38 ar
    40   41   40 1
    41   42   40 ar
    42   43   42 1
    43   44   35 ar
    44   45    4 1
    45   46   45 1
    46   47   46 1
    47   48   46 1
    48   49   46 1
    49   50   45 1
    50   51   50 1
    51   52   50 1
    52   53   50 1
    53   54   45 1
    54   55   54 1
    55   56   54 1
    56   57   54 1
    57   58    4 1
    58   17   19 ar
    59   31   33 ar
    60   42   44 ar
@<TRIPOS>SUBSTRUCTURE
     1 RES1 1

@<TRIPOS>CRYSIN
   9.7384   12.0080   19.3474  90.0000  94.9430  90.0000  14 1

