# MOL2 file generated by ConQuest
# Please check atom types

@<TRIPOS>MOLECULE
MUNTEW
   110   116     2
SMALL
NO_CHARGES
****
Generated from CSD

@<TRIPOS>ATOM
      1 O1        -5.3086   19.8815   10.2474 O.2       1 RES1    0.0000
      2 O2         6.2591   11.8771    8.9621 O.2       1 RES1    0.0000
      3 O3         4.6374   15.8911    7.0815 O.2       1 RES1    0.0000
      4 O4         3.1468   17.0805    8.0138 O.2       1 RES1    0.0000
      5 N1        -3.1491   19.3730   10.4885 N.am      1 RES1    0.0000
      6 C1        -0.3810   17.7983   12.6022 C.3       1 RES1    0.0000
      7 H1        -0.1253   18.6840   12.9335 H         1 RES1    0.0000
      8 N2         2.0634   16.3613   10.2746 N.pl3     1 RES1    0.0000
      9 H2         2.0406   16.9536    9.6510 H         1 RES1    0.0000
     10 O5         5.0635   10.8805   10.4154 O.2       1 RES1    0.0000
     11 C2         2.8927   14.2807   11.1409 C.ar      1 RES1    0.0000
     12 H3         2.3602   14.3778   11.8961 H         1 RES1    0.0000
     13 N3         3.8591   16.0920    7.9943 N.pl3     1 RES1    0.0000
     14 C3        -4.4343   19.1660   10.7673 C.2       1 RES1    0.0000
     15 C4        -2.0004   18.4856   10.7878 C.3       1 RES1    0.0000
     16 H4        -2.0180   17.7407   10.1515 H         1 RES1    0.0000
     17 C5        -1.8843   17.8990   12.2103 C.3       1 RES1    0.0000
     18 H5        -2.2507   16.9913   12.1920 H         1 RES1    0.0000
     19 C6         0.4980   17.5294   11.3991 C.2       1 RES1    0.0000
     20 N4         1.2538   16.4995   11.3977 N.2       1 RES1    0.0000
     21 C7         2.8870   15.2935   10.1652 C.ar      1 RES1    0.0000
     22 C8         3.7609   15.1236    9.0615 C.ar      1 RES1    0.0000
     23 C9         4.5587   14.0107    8.9449 C.ar      1 RES1    0.0000
     24 H6         5.1389   13.9222    8.2228 H         1 RES1    0.0000
     25 C10        4.4926   13.0340    9.9001 C.ar      1 RES1    0.0000
     26 N5         5.3408   11.8564    9.7470 N.pl3     1 RES1    0.0000
     27 C11       -2.7604   20.4050    9.5265 C.3       1 RES1    0.0000
     28 H7        -2.8684   21.2900    9.9115 H         1 RES1    0.0000
     29 H8        -3.3013   20.3466    8.7244 H         1 RES1    0.0000
     30 C12       -1.3000   20.1357    9.2077 C.3       1 RES1    0.0000
     31 H9        -1.2085   19.5991    8.4045 H         1 RES1    0.0000
     32 H10       -0.8049   20.9623    9.0980 H         1 RES1    0.0000
     33 C13       -0.8341   19.3756   10.4325 C.3       1 RES1    0.0000
     34 H11       -0.6909   20.0133   11.1637 H         1 RES1    0.0000
     35 C14        0.4135   18.5277   10.2737 C.3       1 RES1    0.0000
     36 H12        0.3856   18.0608    9.4237 H         1 RES1    0.0000
     37 H13        1.1988   19.0964   10.2806 H         1 RES1    0.0000
     38 C15       -2.6842   18.7015   13.2169 C.3       1 RES1    0.0000
     39 H14       -2.5587   19.6462   13.0398 H         1 RES1    0.0000
     40 H15       -2.3475   18.5183   14.1081 H         1 RES1    0.0000
     41 C16       -4.1888   18.3771   13.1712 C.3       1 RES1    0.0000
     42 H16       -4.3573   17.6070   13.7379 H         1 RES1    0.0000
     43 H17       -4.6788   19.1265   13.5414 H         1 RES1    0.0000
     44 C17       -4.7273   18.0834   11.7841 C.3       1 RES1    0.0000
     45 H18       -4.3440   17.2492   11.4699 H         1 RES1    0.0000
     46 H19       -5.6887   17.9629   11.8424 H         1 RES1    0.0000
     47 C18       -0.1379   16.8231   13.7619 C.3       1 RES1    0.0000
     48 H20       -0.8732   16.8896   14.3903 H         1 RES1    0.0000
     49 H21       -0.1242   15.9180   13.4157 H         1 RES1    0.0000
     50 C19        1.1583   17.0911   14.4897 C.3       1 RES1    0.0000
     51 H22        1.1949   18.0156   14.7479 H         1 RES1    0.0000
     52 H23        1.8976   16.8896   13.9115 H         1 RES1    0.0000
     53 H24        1.2046   16.5375   15.2735 H         1 RES1    0.0000
     54 C20        3.6582   13.1596   11.0061 C.ar      1 RES1    0.0000
     55 H25        3.6231   12.4874   11.6482 H         1 RES1    0.0000
     56 O6        -1.8350   13.4219   11.6653 O.2       2 RES2    0.0000
     57 O7         9.4505   13.1735    4.3590 O.2       2 RES2    0.0000
     58 C21        6.4773   10.5141    4.8752 C.3       2 RES2    0.0000
     59 H26        6.6325   10.7495    3.9475 H         2 RES2    0.0000
     60 H27        6.0420    9.6480    4.8969 H         2 RES2    0.0000
     61 O8        -2.7555   15.1039   10.7296 O.2       2 RES2    0.0000
     62 O9        -1.1670   16.7051    6.6222 O.2       2 RES2    0.0000
     63 O10        0.5989   16.0308    5.7161 O.2       2 RES2    0.0000
     64 C22        3.2646   12.5318    5.4728 C.2       2 RES2    0.0000
     65 C23        4.0562   11.2562    5.2900 C.3       2 RES2    0.0000
     66 H28        3.9519   10.9792    4.3565 H         2 RES2    0.0000
     67 C24        5.5667   11.5557    5.5185 C.3       2 RES2    0.0000
     68 H29        5.7262   11.5252    6.4850 H         2 RES2    0.0000
     69 N6         7.2182   13.2596    4.4673 N.am      2 RES2    0.0000
     70 N7        -1.8982   14.2372   10.7821 N.pl3     2 RES2    0.0000
     71 C25       -0.9350   14.1470    9.6876 C.ar      2 RES2    0.0000
     72 C26        0.0168   13.1622    9.7002 C.ar      2 RES2    0.0000
     73 H30        0.0611   12.5702   10.4154 H         2 RES2    0.0000
     74 C27        0.9058   13.0438    8.6593 C.ar      2 RES2    0.0000
     75 H31        1.5325   12.3556    8.6673 H         2 RES2    0.0000
     76 C28        0.8820   13.9497    7.5785 C.ar      2 RES2    0.0000
     77 N8         1.7660   13.8182    6.5582 N.pl3     2 RES2    0.0000
     78 H32        1.8818   14.4513    5.9869 H         2 RES2    0.0000
     79 N9         2.4765   12.6280    6.4668 N.2       2 RES2    0.0000
     80 C29        5.8903   12.9933    5.0443 C.3       2 RES2    0.0000
     81 H33        5.7592   13.6002    5.8018 H         2 RES2    0.0000
     82 C30        8.4047   12.7971    4.8912 C.2       2 RES2    0.0000
     83 C31        7.1317   14.2682    3.3956 C.3       2 RES2    0.0000
     84 H34        7.4030   13.8920    2.5444 H         2 RES2    0.0000
     85 H35        7.6949   15.0331    3.5956 H         2 RES2    0.0000
     86 C32        5.6773   14.6663    3.3682 C.3       2 RES2    0.0000
     87 H36        5.3896   14.8693    2.4633 H         2 RES2    0.0000
     88 H37        5.5179   15.4398    3.9303 H         2 RES2    0.0000
     89 C33        4.9572   13.4381    3.9086 C.3       2 RES2    0.0000
     90 H38        4.9418   12.7454    3.2162 H         2 RES2    0.0000
     91 C34        3.5592   13.6207    4.4582 C.3       2 RES2    0.0000
     92 H39        2.9139   13.5776    3.7350 H         2 RES2    0.0000
     93 H40        3.4842   14.4908    4.8809 H         2 RES2    0.0000
     94 C35        7.8190   10.4309    5.6121 C.3       2 RES2    0.0000
     95 H41        7.7041    9.8946    6.4119 H         2 RES2    0.0000
     96 H42        8.4614    9.9794    5.0432 H         2 RES2    0.0000
     97 C36        8.3835   11.7956    6.0109 C.3       2 RES2    0.0000
     98 H43        7.8521   12.1541    6.7387 H         2 RES2    0.0000
     99 H44        9.2890   11.6759    6.3388 H         2 RES2    0.0000
    100 C37        3.5752   10.1063    6.1571 C.3       2 RES2    0.0000
    101 H45        4.2516    9.4107    6.1526 H         2 RES2    0.0000
    102 H46        3.4880   10.4237    7.0700 H         2 RES2    0.0000
    103 C38        2.2597    9.5002    5.7310 C.3       2 RES2    0.0000
    104 H47        2.3483    9.1321    4.8489 H         2 RES2    0.0000
    105 H48        1.5814   10.1790    5.7264 H         2 RES2    0.0000
    106 H49        2.0130    8.8044    6.3457 H         2 RES2    0.0000
    107 C39       -1.0117   15.0387    8.6662 C.ar      2 RES2    0.0000
    108 H50       -1.6661   15.6996    8.6684 H         2 RES2    0.0000
    109 C40       -0.1120   14.9568    7.6230 C.ar      2 RES2    0.0000
    110 N10       -0.2255   15.9581    6.5810 N.pl3     2 RES2    0.0000
@<TRIPOS>BOND
     1    1   14 2
     2    2   26 2
     3    3   13 2
     4    4   13 2
     5    5   14 1
     6    6    7 1
     7    8    9 1
     8   10   26 2
     9   11   12 1
    10   13   22 1
    11   14   44 1
    12   15    5 1
    13   16   15 1
    14   17    6 1
    15   18   17 1
    16   19    6 1
    17   20    8 1
    18   21    8 1
    19   22   21 ar
    20   23   22 ar
    21   24   23 1
    22   25   23 ar
    23   26   25 1
    24   27    5 1
    25   28   27 1
    26   29   27 1
    27   30   27 1
    28   31   30 1
    29   32   30 1
    30   33   15 1
    31   34   33 1
    32   35   19 1
    33   36   35 1
    34   37   35 1
    35   38   17 1
    36   39   38 1
    37   40   38 1
    38   41   38 1
    39   42   41 1
    40   43   41 1
    41   44   41 1
    42   45   44 1
    43   46   44 1
    44   47    6 1
    45   48   47 1
    46   49   47 1
    47   50   47 1
    48   51   50 1
    49   52   50 1
    50   53   50 1
    51   54   11 ar
    52   55   54 1
    53   56   70 2
    54   57   82 2
    55   58   59 1
    56   60   58 1
    57   61   70 2
    58   62  110 2
    59   63  110 2
    60   64   65 1
    61   65   66 1
    62   67   58 1
    63   68   67 1
    64   69   80 1
    65   70   71 1
    66   71   72 ar
    67   72   73 1
    68   74   72 ar
    69   75   74 1
    70   76   74 ar
    71   77   76 1
    72   78   77 1
    73   79   64 2
    74   80   67 1
    75   81   80 1
    76   82   69 1
    77   83   69 1
    78   84   83 1
    79   85   83 1
    80   86   83 1
    81   87   86 1
    82   88   86 1
    83   89   80 1
    84   90   89 1
    85   91   64 1
    86   92   91 1
    87   93   91 1
    88   94   58 1
    89   95   94 1
    90   96   94 1
    91   97   82 1
    92   98   97 1
    93   99   97 1
    94  100   65 1
    95  101  100 1
    96  102  100 1
    97  103  100 1
    98  104  103 1
    99  105  103 1
   100  106  103 1
   101  107   71 ar
   102  108  107 1
   103  109   76 ar
   104  110  109 1
   105   11   21 ar
   106   15   17 1
   107   19   20 2
   108   25   54 ar
   109   30   33 1
   110   33   35 1
   111   65   67 1
   112   77   79 1
   113   86   89 1
   114   89   91 1
   115   94   97 1
   116  107  109 ar
@<TRIPOS>SUBSTRUCTURE
     1 RES1 1
     2 RES2 56

@<TRIPOS>CRYSIN
   9.4940   18.8290   11.4918  90.0000  96.1630  90.0000   4 1

