# MOL2 file generated by ConQuest
# Please check atom types

@<TRIPOS>MOLECULE
MUNTAS
   112   118     2
SMALL
NO_CHARGES
****
Generated from CSD

@<TRIPOS>ATOM
      1 O1         2.3330    4.8784    5.9349 O.2       1 RES1    0.0000
      2 O2         4.3096    4.0991    6.3649 O.2       1 RES1    0.0000
      3 O3        -0.6726    5.8314    9.4170 O.2       1 RES1    0.0000
      4 O4        -0.2267    5.4667   11.4874 O.2       1 RES1    0.0000
      5 N1         3.1326    4.2106   13.0845 N.2       1 RES1    0.0000
      6 N2         2.1294    4.5974   12.2084 N.pl3     1 RES1    0.0000
      7 H1         1.3422    4.8480   12.5140 H         1 RES1    0.0000
      8 N3         3.2060    4.5005    6.7145 N.pl3     1 RES1    0.0000
      9 N4         0.0897    5.4404   10.2986 N.pl3     1 RES1    0.0000
     10 C1         4.0846    1.4783   18.3898 C.3       1 RES1    0.0000
     11 H2         4.8552    0.9288   18.1015 H         1 RES1    0.0000
     12 H3         4.2353    1.7025   19.3419 H         1 RES1    0.0000
     13 C2         4.1612    2.7918   17.6085 C.3       1 RES1    0.0000
     14 H4         3.7640    3.5129   18.1566 H         1 RES1    0.0000
     15 H5         5.1142    3.0181   17.4597 H         1 RES1    0.0000
     16 C3         3.4508    2.7531   16.2610 C.3       1 RES1    0.0000
     17 H6         3.6796    1.8866   15.8177 H         1 RES1    0.0000
     18 C4         3.9281    3.9088   15.3266 C.3       1 RES1    0.0000
     19 H7         4.0729    4.7095   15.9082 H         1 RES1    0.0000
     20 C5         2.8463    4.2825   14.3288 C.2       1 RES1    0.0000
     21 C6         2.3779    4.5843   10.8865 C.ar      1 RES1    0.0000
     22 C7         3.6391    4.1801   10.3888 C.ar      1 RES1    0.0000
     23 H8         4.3164    3.9213   11.0019 H         1 RES1    0.0000
     24 C8         3.9094    4.1531    9.0531 C.ar      1 RES1    0.0000
     25 H9         4.7640    3.8749    8.7417 H         1 RES1    0.0000
     26 C9         2.9239    4.5365    8.1443 C.ar      1 RES1    0.0000
     27 C10        5.2839    3.5794   14.6777 C.3       1 RES1    0.0000
     28 H10        5.8698    3.1648   15.3609 H         1 RES1    0.0000
     29 H11        5.1386    2.9115   13.9630 H         1 RES1    0.0000
     30 C11        6.0037    4.7843   14.0831 C.3       1 RES1    0.0000
     31 H12        5.5054    5.1109   13.3054 H         1 RES1    0.0000
     32 H13        6.9069    4.5220   13.8055 H         1 RES1    0.0000
     33 H14        6.0610    5.4950   14.7545 H         1 RES1    0.0000
     34 C12        1.6047    1.0077   18.0921 C.3       1 RES1    0.0000
     35 H15        1.2662    0.4353   17.3573 H         1 RES1    0.0000
     36 H16        1.0728    0.8049   18.9009 H         1 RES1    0.0000
     37 N5         1.4052    2.3966   17.7345 N.3       1 RES1    0.0000
     38 C13        1.9172    2.8091   16.4296 C.3       1 RES1    0.0000
     39 H17        1.4917    2.2472   15.7192 H         1 RES1    0.0000
     40 C14        1.3799    4.2244   16.3280 C.3       1 RES1    0.0000
     41 H18        1.9376    4.8182   16.9084 H         1 RES1    0.0000
     42 C15       -0.0179    4.1310   16.9320 C.3       1 RES1    0.0000
     43 H19       -0.7093    4.1185   16.2232 H         1 RES1    0.0000
     44 H20       -0.1928    4.8943   17.5384 H         1 RES1    0.0000
     45 C16       -0.0070    2.8029   17.7109 C.3       1 RES1    0.0000
     46 H21       -0.3514    2.9316   18.6292 H         1 RES1    0.0000
     47 H22       -0.5615    2.1226   17.2549 H         1 RES1    0.0000
     48 C17        1.5072    4.6978   14.8884 C.3       1 RES1    0.0000
     49 H23        0.7813    4.3047   14.3410 H         1 RES1    0.0000
     50 H24        1.4221    5.6833   14.8529 H         1 RES1    0.0000
     51 C18        1.4068    4.9698    9.9131 C.ar      1 RES1    0.0000
     52 C19        1.6810    4.9525    8.5629 C.ar      1 RES1    0.0000
     53 H25        1.0243    5.2224    7.9305 H         1 RES1    0.0000
     54 C20        2.9932    0.6748   18.3457 C.3       1 RES1    0.0000
     55 H26        2.9867    0.2083   19.2198 H         1 RES1    0.0000
     56 H27        3.2160   -0.0173   17.6723 H         1 RES1    0.0000
     57 O5         2.0800    0.9668   13.5590 O.2       2 RES2    0.0000
     58 O6         4.1586    0.5405   13.2097 O.2       2 RES2    0.0000
     59 O7        -0.1919    1.9558    7.9490 O.2       2 RES2    0.0000
     60 O8        -0.6768    2.3849    9.9993 O.2       2 RES2    0.0000
     61 N6         3.3204    0.9696    6.4661 N.2       2 RES2    0.0000
     62 N7         2.2395    1.2443    7.2851 N.pl3     2 RES2    0.0000
     63 H28        1.4569    1.4568    6.9421 H         2 RES2    0.0000
     64 N8         3.0426    0.8201   12.8195 N.pl3     2 RES2    0.0000
     65 N9         0.0969    1.9669    9.1425 N.pl3     2 RES2    0.0000
     66 N10        3.2759    3.3808    1.7058 N.3       2 RES2    0.0000
     67 C21        5.5023    3.8223    0.7702 C.3       2 RES2    0.0000
     68 H29        6.1094    4.5600    0.5119 H         2 RES2    0.0000
     69 H30        5.2374    3.3524   -0.0591 H         2 RES2    0.0000
     70 C22        6.2767    2.8506    1.6408 C.3       2 RES2    0.0000
     71 H31        6.6714    3.3545    2.3980 H         2 RES2    0.0000
     72 H32        7.0255    2.4818    1.1065 H         2 RES2    0.0000
     73 C23        5.4663    1.6824    2.2083 C.3       2 RES2    0.0000
     74 H33        4.8633    1.3378    1.5042 H         2 RES2    0.0000
     75 H34        6.0879    0.9530    2.4571 H         2 RES2    0.0000
     76 C24        4.6389    2.0596    3.4211 C.3       2 RES2    0.0000
     77 H35        5.1962    2.6652    3.9889 H         2 RES2    0.0000
     78 C25        4.2829    0.8063    4.2807 C.3       2 RES2    0.0000
     79 H36        3.9496    0.1142    3.6384 H         2 RES2    0.0000
     80 C26        3.1339    1.1101    5.2060 C.2       2 RES2    0.0000
     81 C27        2.4169    1.1786    8.6298 C.ar      2 RES2    0.0000
     82 C28        1.4050    1.4893    9.5662 C.ar      2 RES2    0.0000
     83 C29        1.6048    1.3834   10.9279 C.ar      2 RES2    0.0000
     84 H37        0.9059    1.5897   11.5374 H         2 RES2    0.0000
     85 C30        2.8320    0.9744   11.3811 C.ar      2 RES2    0.0000
     86 C31        1.8466    1.5551    4.5614 C.3       2 RES2    0.0000
     87 H38        1.4690    2.3205    5.0639 H         2 RES2    0.0000
     88 H39        1.1888    0.8160    4.5835 H         2 RES2    0.0000
     89 C32        2.1079    1.9676    3.1096 C.3       2 RES2    0.0000
     90 H40        2.2503    1.1468    2.5556 H         2 RES2    0.0000
     91 C33        3.3527    2.8209    3.0572 C.3       2 RES2    0.0000
     92 H41        3.2423    3.5711    3.7093 H         2 RES2    0.0000
     93 C34        5.4923    0.1792    5.0001 C.3       2 RES2    0.0000
     94 H42        5.1591   -0.4948    5.6427 H         2 RES2    0.0000
     95 H43        6.0423   -0.2969    4.3275 H         2 RES2    0.0000
     96 C35        6.3797    1.1502    5.7423 C.3       2 RES2    0.0000
     97 H44        6.8817    1.6914    5.0993 H         2 RES2    0.0000
     98 H45        7.0043    0.6533    6.3121 H         2 RES2    0.0000
     99 H46        5.8262    1.7364    6.3003 H         2 RES2    0.0000
    100 C36        4.2721    4.4189    1.3865 C.3       2 RES2    0.0000
    101 H47        4.5209    4.9012    2.2130 H         2 RES2    0.0000
    102 H48        3.8738    5.0729    0.7600 H         2 RES2    0.0000
    103 C37        1.8859    3.8472    1.6085 C.3       2 RES2    0.0000
    104 H49        1.5834    3.8528    0.6655 H         2 RES2    0.0000
    105 H50        1.7951    4.7614    1.9767 H         2 RES2    0.0000
    106 C38        1.0714    2.8486    2.4327 C.3       2 RES2    0.0000
    107 H51        0.5167    3.3178    3.1068 H         2 RES2    0.0000
    108 H52        0.4802    2.3108    1.8507 H         2 RES2    0.0000
    109 C39        3.6716    0.7834    9.1547 C.ar      2 RES2    0.0000
    110 H53        4.3848    0.5855    8.5605 H         2 RES2    0.0000
    111 C40        3.8752    0.6817   10.5038 C.ar      2 RES2    0.0000
    112 H54        4.7223    0.4132   10.8404 H         2 RES2    0.0000
@<TRIPOS>BOND
     1    1    8 2
     2    2    8 2
     3    3    9 2
     4    4    9 2
     5    5    6 1
     6    6    7 1
     7    8   26 1
     8    9   51 1
     9   10   11 1
    10   12   10 1
    11   13   10 1
    12   14   13 1
    13   15   13 1
    14   16   13 1
    15   17   16 1
    16   18   16 1
    17   19   18 1
    18   20    5 2
    19   21    6 1
    20   22   21 ar
    21   23   22 1
    22   24   22 ar
    23   25   24 1
    24   26   24 ar
    25   27   18 1
    26   28   27 1
    27   29   27 1
    28   30   27 1
    29   31   30 1
    30   32   30 1
    31   33   30 1
    32   34   35 1
    33   36   34 1
    34   37   34 1
    35   38   16 1
    36   39   38 1
    37   40   38 1
    38   41   40 1
    39   42   40 1
    40   43   42 1
    41   44   42 1
    42   45   37 1
    43   46   45 1
    44   47   45 1
    45   48   20 1
    46   49   48 1
    47   50   48 1
    48   51   21 ar
    49   52   26 ar
    50   53   52 1
    51   54   10 1
    52   55   54 1
    53   56   54 1
    54   57   64 2
    55   58   64 2
    56   59   65 2
    57   60   65 2
    58   61   62 1
    59   62   63 1
    60   64   85 1
    61   65   82 1
    62   66   91 1
    63   67   68 1
    64   69   67 1
    65   70   67 1
    66   71   70 1
    67   72   70 1
    68   73   70 1
    69   74   73 1
    70   75   73 1
    71   76   73 1
    72   77   76 1
    73   78   76 1
    74   79   78 1
    75   80   61 2
    76   81   62 1
    77   82   81 ar
    78   83   82 ar
    79   84   83 1
    80   85   83 ar
    81   86   80 1
    82   87   86 1
    83   88   86 1
    84   89   86 1
    85   90   89 1
    86   91   76 1
    87   92   91 1
    88   93   78 1
    89   94   93 1
    90   95   93 1
    91   96   93 1
    92   97   96 1
    93   98   96 1
    94   99   96 1
    95  100   66 1
    96  101  100 1
    97  102  100 1
    98  103   66 1
    99  104  103 1
   100  105  103 1
   101  106   89 1
   102  107  106 1
   103  108  106 1
   104  109   81 ar
   105  110  109 1
   106  111   85 ar
   107  112  111 1
   108   18   20 1
   109   34   54 1
   110   37   38 1
   111   40   48 1
   112   42   45 1
   113   51   52 ar
   114   67  100 1
   115   78   80 1
   116   89   91 1
   117  103  106 1
   118  109  111 ar
@<TRIPOS>SUBSTRUCTURE
     1 RES1 1
     2 RES2 57

@<TRIPOS>CRYSIN
  14.8120    6.9207   39.4830  90.0000  94.2030  90.0000   5 1

