# MOL2 file generated by ConQuest
# Please check atom types

@<TRIPOS>MOLECULE
MUNXOK
    51    55     1
SMALL
NO_CHARGES
****
Generated from CSD

@<TRIPOS>ATOM
      1 N1         5.9249    0.3702    0.3982 N.pl3     1 RES1    0.0000
      2 N2         6.6951    1.3191   -1.5339 N.2       1 RES1    0.0000
      3 C1         5.5908   -0.8984   -1.6143 C.2       1 RES1    0.0000
      4 C2         6.0828    0.2780   -0.9965 C.2       1 RES1    0.0000
      5 C3         6.6687    2.2670    1.9564 C.ar      1 RES1    0.0000
      6 H1         6.3281    1.9626    2.8782 H         1 RES1    0.0000
      7 N3         7.5397    4.2077    3.1443 N.pl3     1 RES1    0.0000
      8 N4         4.6430   -2.8914   -1.6984 N.pl3     1 RES1    0.0000
      9 C4         4.7704   -1.7066    0.5579 C.2       1 RES1    0.0000
     10 H2         4.2458   -2.3874    0.9427 H         1 RES1    0.0000
     11 O1         7.1435    3.6996    4.1935 O.2       1 RES1    0.0000
     12 N5         5.0249   -2.5895   -2.9889 N.2       1 RES1    0.0000
     13 C5         7.3117    3.4945    1.8852 C.ar      1 RES1    0.0000
     14 C6         5.2401   -0.4026    2.6571 C.3       1 RES1    0.0000
     15 H3         4.7452    0.3986    2.8808 H         1 RES1    0.0000
     16 H4         6.1964   -0.2939    2.8945 H         1 RES1    0.0000
     17 C7         5.2756   -0.6043    1.1688 C.2       1 RES1    0.0000
     18 O2         8.1153    5.2893    3.1083 O.2       1 RES1    0.0000
     19 C8         4.9667   -1.8763   -0.8463 C.2       1 RES1    0.0000
     20 C9         5.5931   -1.3956   -2.9461 C.2       1 RES1    0.0000
     21 C10        4.2268   -4.7490   -0.1669 C.ar      1 RES1    0.0000
     22 H5         4.7105   -4.2876    0.5601 H         1 RES1    0.0000
     23 C11        4.6878   -1.3302    4.9499 C.3       1 RES1    0.0000
     24 H6         4.4998   -0.4207    5.1926 H         1 RES1    0.0000
     25 H7         4.0754   -1.9143    5.4014 H         1 RES1    0.0000
     26 C12        3.0407   -6.6895   -0.9165 C.ar      1 RES1    0.0000
     27 H8         2.6608   -7.5466   -0.6502 H         1 RES1    0.0000
     28 C13        6.4939    1.6075    0.7504 C.ar      1 RES1    0.0000
     29 C14        3.4770   -4.8887   -2.4483 C.ar      1 RES1    0.0000
     30 H9         3.3599   -4.4748   -3.3471 H         1 RES1    0.0000
     31 C15        7.5850    3.4005   -0.4870 C.ar      1 RES1    0.0000
     32 H10        8.0174    3.7964   -1.3128 H         1 RES1    0.0000
     33 C16        4.1033   -4.1829   -1.4246 C.ar      1 RES1    0.0000
     34 C17        6.1595   -0.7593   -4.1742 C.3       1 RES1    0.0000
     35 H11        7.1213   -0.9260   -4.1473 H         1 RES1    0.0000
     36 H12        5.7428   -1.1595   -4.9613 H         1 RES1    0.0000
     37 H13        5.9428    0.1792   -4.1573 H         1 RES1    0.0000
     38 C18        6.9524    2.1559   -0.4679 C.ar      1 RES1    0.0000
     39 C19        7.7666    4.0787    0.7028 C.ar      1 RES1    0.0000
     40 H14        8.2226    5.0062    0.6839 H         1 RES1    0.0000
     41 C20        4.5348   -1.5029    3.4334 C.3       1 RES1    0.0000
     42 H15        4.9727   -2.3169    3.2996 H         1 RES1    0.0000
     43 H16        3.6040   -1.6365    3.1258 H         1 RES1    0.0000
     44 C21        3.6778   -5.9930    0.0938 C.ar      1 RES1    0.0000
     45 H17        3.9108   -6.4415    0.9615 H         1 RES1    0.0000
     46 C22        6.0734   -1.6549    5.4602 C.3       1 RES1    0.0000
     47 H18        6.1074   -1.5278    6.4117 H         1 RES1    0.0000
     48 H19        6.7107   -1.0749    5.0376 H         1 RES1    0.0000
     49 H20        6.2836   -2.5685    5.2514 H         1 RES1    0.0000
     50 C23        2.9653   -6.1506   -2.1856 C.ar      1 RES1    0.0000
     51 H21        2.5502   -6.6669   -2.9058 H         1 RES1    0.0000
@<TRIPOS>BOND
     1    1    4 1
     2    2    4 2
     3    3    4 1
     4    5    6 1
     5    7   11 2
     6    8   12 1
     7    9   10 1
     8   12   20 2
     9   13    5 ar
    10   14   15 1
    11   16   14 1
    12   17    1 1
    13   18    7 2
    14   19    3 2
    15   20    3 1
    16   21   22 1
    17   23   24 1
    18   25   23 1
    19   26   27 1
    20   28    1 1
    21   29   30 1
    22   31   32 1
    23   33    8 1
    24   34   20 1
    25   35   34 1
    26   36   34 1
    27   37   34 1
    28   38    2 1
    29   39   13 ar
    30   40   39 1
    31   41   14 1
    32   42   41 1
    33   43   41 1
    34   44   21 ar
    35   45   44 1
    36   46   23 1
    37   47   46 1
    38   48   46 1
    39   49   46 1
    40   50   26 ar
    41   51   50 1
    42    5   28 ar
    43    7   13 1
    44    8   19 1
    45    9   17 2
    46    9   19 1
    47   14   17 1
    48   21   33 ar
    49   23   41 1
    50   26   44 ar
    51   28   38 ar
    52   29   33 ar
    53   29   50 ar
    54   31   38 ar
    55   31   39 ar
@<TRIPOS>SUBSTRUCTURE
     1 RES1 1

@<TRIPOS>CRYSIN
   7.7073   20.1296   12.8339  90.0000 103.0339  90.0000  14 1

