# MOL2 file generated by ConQuest
# Please check atom types

@<TRIPOS>MOLECULE
MUNXAW
    44    43     2
SMALL
NO_CHARGES
****
Generated from CSD

@<TRIPOS>ATOM
      1 N1        12.4913    4.0205    2.2733 N.3       1 RES1    0.0000
      2 N2         6.3465    3.3613    4.4148 N.pl3     1 RES1    0.0000
      3 N3        13.3843   -1.3419    1.6857 N.pl3     1 RES1    0.0000
      4 O1        10.7981    2.4589    0.3622 O.3       1 RES1    0.0000
      5 H1        10.2421    2.5239   -0.2368 H         1 RES1    0.0000
      6 O2         6.5943    4.5379    4.5510 O.2       1 RES1    0.0000
      7 O3         5.5052    2.7788    5.0381 O.2       1 RES1    0.0000
      8 O4        13.0670   -1.2310    0.5112 O.2       1 RES1    0.0000
      9 O5        14.1469   -2.1894    2.1215 O.2       1 RES1    0.0000
     10 C1        13.5406    3.8020    1.4405 C.2       1 RES1    0.0000
     11 H2        13.7241    3.0028    1.0026 H         1 RES1    0.0000
     12 C2        14.2774    4.9365    1.3525 C.2       1 RES1    0.0000
     13 H3        15.0538    5.0519    0.8528 H         1 RES1    0.0000
     14 C3        13.6524    5.9020    2.1508 C.2       1 RES1    0.0000
     15 H4        13.9267    6.7826    2.2713 H         1 RES1    0.0000
     16 C4        12.5713    5.3077    2.7144 C.2       1 RES1    0.0000
     17 H5        11.9798    5.7139    3.3064 H         1 RES1    0.0000
     18 C5        11.3801    3.1181    2.6160 C.3       1 RES1    0.0000
     19 H6        10.9436    3.5130    3.3996 H         1 RES1    0.0000
     20 C6        10.3172    3.0815    1.5149 C.3       1 RES1    0.0000
     21 H7        10.1107    3.9819    1.2572 H         1 RES1    0.0000
     22 C7         9.0589    2.4297    2.0408 C.ar      1 RES1    0.0000
     23 C8         8.6906    1.1397    1.7202 C.ar      1 RES1    0.0000
     24 H8         9.2093    0.6496    1.1241 H         1 RES1    0.0000
     25 C9         7.5573    0.5639    2.2734 C.ar      1 RES1    0.0000
     26 H9         7.3179   -0.3047    2.0408 H         1 RES1    0.0000
     27 C10        6.7839    1.2720    3.1660 C.ar      1 RES1    0.0000
     28 H10        6.0326    0.8896    3.5588 H         1 RES1    0.0000
     29 C11        7.1604    2.5634    3.4583 C.ar      1 RES1    0.0000
     30 C12        8.2553    3.1528    2.9083 C.ar      1 RES1    0.0000
     31 H11        8.4630    4.0356    3.1115 H         1 RES1    0.0000
     32 C13       11.8736    1.7548    3.0560 C.ar      1 RES1    0.0000
     33 C14       11.8269    1.4321    4.3980 C.ar      1 RES1    0.0000
     34 H12       11.4741    2.0436    5.0035 H         1 RES1    0.0000
     35 C15       12.2948    0.2139    4.8558 C.ar      1 RES1    0.0000
     36 H13       12.2547    0.0122    5.7631 H         1 RES1    0.0000
     37 C16       12.8168   -0.6922    3.9779 C.ar      1 RES1    0.0000
     38 H14       13.1546   -1.5045    4.2786 H         1 RES1    0.0000
     39 C17       12.8326   -0.3808    2.6579 C.ar      1 RES1    0.0000
     40 C18       12.3693    0.8096    2.1697 C.ar      1 RES1    0.0000
     41 H15       12.3872    0.9841    1.2561 H         1 RES1    0.0000
     42 O6        10.2123    4.2797    1.1021 Du        2 SUP2    0.0000
     43 H16        9.5844    4.3345    0.5773 Du        2 SUP2    0.0000
     44 H17       10.5529    2.5440    0.7553 Du        2 SUP2    0.0000
@<TRIPOS>BOND
     1    1   10 1
     2    2    6 2
     3    3    8 2
     4    4    5 1
     5    7    2 2
     6    9    3 2
     7   10   11 1
     8   12   10 2
     9   13   12 1
    10   14   12 1
    11   15   14 1
    12   16    1 1
    13   17   16 1
    14   18    1 1
    15   19   18 1
    16   20    4 1
    17   21   20 1
    18   22   20 1
    19   23   22 ar
    20   24   23 1
    21   25   23 ar
    22   26   25 1
    23   27   25 ar
    24   28   27 1
    25   29    2 1
    26   30   22 ar
    27   31   30 1
    28   32   18 1
    29   33   32 ar
    30   34   33 1
    31   35   33 ar
    32   36   35 1
    33   37   35 ar
    34   38   37 1
    35   39    3 1
    36   40   32 ar
    37   41   40 1
    38   14   16 2
    39   18   20 1
    40   27   29 ar
    41   29   30 ar
    42   37   39 ar
    43   39   40 ar
@<TRIPOS>SUBSTRUCTURE
     1 RES1 1
     2 SUP2 42

@<TRIPOS>CRYSIN
   9.2507    9.3891   10.8595  86.2460  74.9550  66.0000   2 1

