# MOL2 file generated by ConQuest
# Please check atom types

@<TRIPOS>MOLECULE
MUPXAY
    19    15     2
SMALL
NO_CHARGES
****
Generated from CSD

@<TRIPOS>ATOM
      1 C1         1.3936    0.7503    6.4566 C.3       1 RES1    0.0000
      2 H1         1.4071    1.6994    6.6007 H         1 RES1    0.0000
      3 H2         1.7417    0.3043    7.2327 H         1 RES1    0.0000
      4 H3         0.4910    0.4631    6.3007 H         1 RES1    0.0000
      5 C2         2.2376    0.4128    5.2663 C.2       1 RES1    0.0000
      6 N1         1.9593    0.8163    4.0727 N.2       1 RES1    0.0000
      7 O1         0.7954    1.6066    3.9772 O.3       1 RES1    0.0000
      8 H4         0.7099    1.8943    3.2123 H         1 RES1    0.0000
      9 H5         0.3095    1.7956    4.7175 Du        2 SUP2    0.0000
     10 H6         0.5235    1.9326    3.1792 Du        2 SUP2    0.0000
     11 N2         0.7954    1.6066    3.9772 Du        2 SUP2    0.0000
     12 C1B        4.2808   -0.7503    4.2190 C.3       1 RES1    0.0000
     13 H1B        4.2673   -1.6994    4.0749 H         1 RES1    0.0000
     14 H2B        3.9327   -0.3043    3.4429 H         1 RES1    0.0000
     15 H3B        5.1834   -0.4631    4.3749 H         1 RES1    0.0000
     16 C2B        3.4368   -0.4128    5.4093 C.2       1 RES1    0.0000
     17 N1B        3.7150   -0.8163    6.6028 N.2       1 RES1    0.0000
     18 O1B        4.8790   -1.6066    6.6984 O.3       1 RES1    0.0000
     19 H4B        4.9645   -1.8943    7.4633 H         1 RES1    0.0000
@<TRIPOS>BOND
     1    1    2 1
     2    3    1 1
     3    4    1 1
     4    5    1 1
     5    6    5 1
     6    7    6 1
     7    8    7 1
     8   12   13 1
     9   14   12 1
    10   15   12 1
    11   16    5 1
    12   17   16 1
    13   18   17 1
    14   19   18 1
    15   12   16 1
@<TRIPOS>SUBSTRUCTURE
     1 RES1 1
     2 SUP2 9

@<TRIPOS>CRYSIN
   6.4400    4.2560   10.7030  90.0000  94.1020  90.0000 231 1

