# MOL2 file generated by ConQuest
# Please check atom types

@<TRIPOS>MOLECULE
MUPYEB
    33    33     1
SMALL
NO_CHARGES
****
Generated from CSD

@<TRIPOS>ATOM
      1 C1         1.9244    2.2058    2.0490 C.ar      1 RES1    0.0000
      2 C2         2.8200    2.7273    2.9726 C.ar      1 RES1    0.0000
      3 C3         2.9984    4.1005    3.0761 C.ar      1 RES1    0.0000
      4 C4         2.2795    4.9618    2.2559 C.ar      1 RES1    0.0000
      5 C5         1.3877    4.4417    1.3301 C.ar      1 RES1    0.0000
      6 C6         1.2232    3.0726    1.2174 C.ar      1 RES1    0.0000
      7 C7         1.6498    0.7821    1.8845 C.2       1 RES1    0.0000
      8 C8         1.9927   -0.2607    2.6293 C.2       1 RES1    0.0000
      9 C9         4.5162    3.8357    4.8923 C.3       1 RES1    0.0000
     10 C10        1.9766    7.0011    3.3988 C.3       1 RES1    0.0000
     11 C11       -0.1672    4.8799   -0.4261 C.3       1 RES1    0.0000
     12 C12        2.7556   -0.3317    3.8839 C.3       1 RES1    0.0000
     13 N1         1.5100   -1.5670    2.1276 N.pl3     1 RES1    0.0000
     14 O1         1.7606   -2.5689    2.7834 O.2       1 RES1    0.0000
     15 O2         0.8915   -1.6230    1.0819 O.2       1 RES1    0.0000
     16 O3         3.8684    4.6847    3.9459 O.3       1 RES1    0.0000
     17 O4         2.4873    6.3172    2.2838 O.3       1 RES1    0.0000
     18 O5         0.7198    5.3604    0.5803 O.3       1 RES1    0.0000
     19 H1         3.3054    2.1840    3.5374 H         1 RES1    0.0000
     20 H2         0.5916    2.7300    0.5585 H         1 RES1    0.0000
     21 H3         1.1462    0.6006    1.1378 H         1 RES1    0.0000
     22 H4         5.0382    4.3953    5.4302 H         1 RES1    0.0000
     23 H5         5.0735    3.1532    4.4269 H         1 RES1    0.0000
     24 H6         3.7960    3.3716    5.3992 H         1 RES1    0.0000
     25 H7         2.0222    7.9716    3.2064 H         1 RES1    0.0000
     26 H8         2.4735    6.7841    4.2407 H         1 RES1    0.0000
     27 H9         1.1619    6.7158    3.5581 H         1 RES1    0.0000
     28 H10       -0.5053    5.7057   -0.8999 H         1 RES1    0.0000
     29 H11       -0.8984    4.3270    0.0103 H         1 RES1    0.0000
     30 H12        0.2523    4.3407   -1.0550 H         1 RES1    0.0000
     31 H13        2.4812    0.4368    4.5097 H         1 RES1    0.0000
     32 H14        3.6573   -0.3003    3.7132 H         1 RES1    0.0000
     33 H15        2.6721   -1.1466    4.3235 H         1 RES1    0.0000
@<TRIPOS>BOND
     1    1    2 ar
     2    2    3 ar
     3    3    4 ar
     4    4    5 ar
     5    5    6 ar
     6    6    1 ar
     7    7    1 1
     8    8    7 2
     9    9   16 1
    10   10   17 1
    11   11   18 1
    12   12    8 1
    13   13    8 1
    14   14   13 2
    15   15   13 2
    16   16    3 1
    17   17    4 1
    18   18    5 1
    19   19    2 1
    20   20    6 1
    21   21    7 1
    22   22    9 1
    23   23    9 1
    24   24    9 1
    25   25   10 1
    26   26   10 1
    27   27   10 1
    28   28   11 1
    29   29   11 1
    30   30   11 1
    31   31   12 1
    32   32   12 1
    33   33   12 1
@<TRIPOS>SUBSTRUCTURE
     1 RES1 1

@<TRIPOS>CRYSIN
   8.8880   13.6500   10.3690  90.0000  94.0400  90.0000  14 1

