# MOL2 file generated by ConQuest
# Please check atom types

@<TRIPOS>MOLECULE
MURJEQ
    20    21     1
SMALL
NO_CHARGES
****
Generated from CSD

@<TRIPOS>ATOM
      1 C1         1.9862    1.8707    6.0665 C.2       1 RES1    0.0000
      2 C2         2.6182    2.8761    5.1821 C.2       1 RES1    0.0000
      3 C3         2.9969    2.4352    3.8278 C.ar      1 RES1    0.0000
      4 C4         3.5547    3.3259    2.9353 C.ar      1 RES1    0.0000
      5 H1         3.6907    4.2307    3.1912 H         1 RES1    0.0000
      6 C5         3.9167    2.9054    1.6669 C.ar      1 RES1    0.0000
      7 H2         4.3011    3.5196    1.0529 H         1 RES1    0.0000
      8 C6         3.7174    1.5878    1.2943 C.ar      1 RES1    0.0000
      9 H3         3.9731    1.2985    0.4260 H         1 RES1    0.0000
     10 C7         3.1535    0.6945    2.1707 C.ar      1 RES1    0.0000
     11 H4         3.0194   -0.2052    1.8985 H         1 RES1    0.0000
     12 C8         2.7737    1.0857    3.4552 C.ar      1 RES1    0.0000
     13 C9         2.1812    0.1606    4.3753 C.2       1 RES1    0.0000
     14 H5         2.0494   -0.7365    4.0935 H         1 RES1    0.0000
     15 C10        1.8040    0.4995    5.6146 C.2       1 RES1    0.0000
     16 H6         1.4207   -0.1491    6.1929 H         1 RES1    0.0000
     17 N1         1.6097    2.3549    7.2167 N.2       1 RES1    0.0000
     18 O1         1.0287    1.4132    8.0251 O.3       1 RES1    0.0000
     19 H7         0.7830    1.7713    8.7426 H         1 RES1    0.0000
     20 O2         2.8202    4.0230    5.5705 O.2       1 RES1    0.0000
@<TRIPOS>BOND
     1    1    2 1
     2    2    3 1
     3    3    4 ar
     4    4    5 1
     5    6    4 ar
     6    7    6 1
     7    8    6 ar
     8    9    8 1
     9   10    8 ar
    10   11   10 1
    11   12    3 ar
    12   13   12 1
    13   14   13 1
    14   15    1 1
    15   16   15 1
    16   17    1 2
    17   18   17 1
    18   19   18 1
    19   20    2 2
    20   10   12 ar
    21   13   15 2
@<TRIPOS>SUBSTRUCTURE
     1 RES1 1

@<TRIPOS>CRYSIN
   3.8100   12.7430   16.1990  90.0000  90.0000  90.0000  19 1

