# MOL2 file generated by ConQuest
# Please check atom types

@<TRIPOS>MOLECULE
MUSKUI
    62    65     1
SMALL
NO_CHARGES
****
Generated from CSD

@<TRIPOS>ATOM
      1 O1         1.5032   -1.5116   10.0091 O.2       1 RES1    0.0000
      2 O2         0.5085    0.2571    9.1385 O.3       1 RES1    0.0000
      3 O3        -0.3753   -0.4354    6.5173 O.2       1 RES1    0.0000
      4 O4         1.2736    0.8832    5.7973 O.3       1 RES1    0.0000
      5 O5         1.4334    8.0035   13.1893 O.2       1 RES1    0.0000
      6 O6         1.0853    9.7284   14.4152 O.2       1 RES1    0.0000
      7 O7        -2.8775   10.3041   16.8792 O.2       1 RES1    0.0000
      8 O8        -4.1152    8.6122   17.3593 O.2       1 RES1    0.0000
      9 N1        -0.1958    4.4742   13.5428 N.2       1 RES1    0.0000
     10 N2         0.0715    5.8133   13.6282 N.3       1 RES1    0.0000
     11 N3         0.7852    8.6088   14.0482 N.pl3     1 RES1    0.0000
     12 N4        -3.1418    9.1145   16.8208 N.pl3     1 RES1    0.0000
     13 C1        -1.7143   -0.6711   13.6226 C.2       1 RES1    0.0000
     14 H1        -2.3348   -0.5880   14.3109 H         1 RES1    0.0000
     15 C2        -1.9226   -1.5865   12.7230 C.2       1 RES1    0.0000
     16 H2        -2.6472   -2.1596   12.8346 H         1 RES1    0.0000
     17 C3        -1.0555   -1.7651   11.5215 C.3       1 RES1    0.0000
     18 H3        -1.6037   -2.0045   10.7579 H         1 RES1    0.0000
     19 H4        -0.4258   -2.4858   11.6784 H         1 RES1    0.0000
     20 C4        -0.2927   -0.4761   11.2193 C.3       1 RES1    0.0000
     21 H5        -0.9397    0.2121   10.9575 H         1 RES1    0.0000
     22 C5         0.4553    0.0110   12.4699 C.3       1 RES1    0.0000
     23 H6         1.1376   -0.6401   12.7390 H         1 RES1    0.0000
     24 C6         1.0634    1.3666   12.2911 C.2       1 RES1    0.0000
     25 H7         1.8531    1.5170   11.8235 H         1 RES1    0.0000
     26 C7         0.3567    2.3341   12.8719 C.2       1 RES1    0.0000
     27 C8        -0.8591    1.7577   13.5555 C.3       1 RES1    0.0000
     28 H8        -1.6624    1.9214   13.0375 H         1 RES1    0.0000
     29 H9        -0.9724    2.1323   14.4429 H         1 RES1    0.0000
     30 C9        -0.5393    0.2605   13.6233 C.3       1 RES1    0.0000
     31 H10       -0.0525    0.1079   14.4594 H         1 RES1    0.0000
     32 C10        0.6513    3.7609   12.8911 C.2       1 RES1    0.0000
     33 C11        1.8841    4.2893   12.2260 C.3       1 RES1    0.0000
     34 H11        2.4047    4.7843   12.8627 H         1 RES1    0.0000
     35 H12        1.6337    4.8661   11.5002 H         1 RES1    0.0000
     36 H13        2.4042    3.5575   11.8878 H         1 RES1    0.0000
     37 C12        0.6767   -0.6747   10.0848 C.2       1 RES1    0.0000
     38 C13        1.4078    0.2853    8.0294 C.3       1 RES1    0.0000
     39 H14        2.0583   -0.4428    8.1039 H         1 RES1    0.0000
     40 C14        0.6361    0.1637    6.7381 C.2       1 RES1    0.0000
     41 C15        2.4250    1.5381    6.3896 C.3       1 RES1    0.0000
     42 H15        2.5431    2.4250    6.0140 H         1 RES1    0.0000
     43 H16        3.2302    1.0221    6.2301 H         1 RES1    0.0000
     44 C16        2.1316    1.6237    7.8834 C.3       1 RES1    0.0000
     45 C17        1.2048    2.7785    8.2126 C.3       1 RES1    0.0000
     46 H17        0.9731    2.7475    9.1431 H         1 RES1    0.0000
     47 H18        0.4080    2.7103    7.6816 H         1 RES1    0.0000
     48 H19        1.6472    3.6084    8.0198 H         1 RES1    0.0000
     49 C18        3.4086    1.7267    8.7010 C.3       1 RES1    0.0000
     50 H20        4.0068    1.0184    8.4503 H         1 RES1    0.0000
     51 H21        3.1975    1.6510    9.6346 H         1 RES1    0.0000
     52 H22        3.8278    2.5739    8.5344 H         1 RES1    0.0000
     53 C19       -0.6747    6.6027   14.4176 C.ar      1 RES1    0.0000
     54 C20       -0.3778    7.9737   14.6410 C.ar      1 RES1    0.0000
     55 C21       -1.1738    8.7747   15.4400 C.ar      1 RES1    0.0000
     56 H23       -0.9561    9.6690   15.5728 H         1 RES1    0.0000
     57 C22       -2.2839    8.2376   16.0317 C.ar      1 RES1    0.0000
     58 C23       -2.5879    6.8880   15.8774 C.ar      1 RES1    0.0000
     59 H24       -3.3336    6.5332   16.3052 H         1 RES1    0.0000
     60 C24       -1.8089    6.0867   15.1103 C.ar      1 RES1    0.0000
     61 H25       -2.0183    5.1849   15.0351 H         1 RES1    0.0000
     62 H26        0.7084    6.2145   13.2140 H         1 RES1    0.0000
@<TRIPOS>BOND
     1    1   37 2
     2    2   37 1
     3    3   40 2
     4    4   40 1
     5    5   11 2
     6    6   11 2
     7    7   12 2
     8    8   12 2
     9    9   10 1
    10   10   53 1
    11   11   54 1
    12   12   57 1
    13   13   14 1
    14   15   13 2
    15   16   15 1
    16   17   15 1
    17   18   17 1
    18   19   17 1
    19   20   17 1
    20   21   20 1
    21   22   20 1
    22   23   22 1
    23   24   22 1
    24   25   24 1
    25   26   24 2
    26   27   26 1
    27   28   27 1
    28   29   27 1
    29   30   13 1
    30   31   30 1
    31   32    9 2
    32   33   32 1
    33   34   33 1
    34   35   33 1
    35   36   33 1
    36   37   20 1
    37   38    2 1
    38   39   38 1
    39   40   38 1
    40   41    4 1
    41   42   41 1
    42   43   41 1
    43   44   38 1
    44   45   44 1
    45   46   45 1
    46   47   45 1
    47   48   45 1
    48   49   44 1
    49   50   49 1
    50   51   49 1
    51   52   49 1
    52   53   54 ar
    53   54   55 ar
    54   55   56 1
    55   57   55 ar
    56   58   57 ar
    57   59   58 1
    58   60   53 ar
    59   61   60 1
    60   62   10 1
    61   22   30 1
    62   26   32 1
    63   27   30 1
    64   41   44 1
    65   58   60 ar
@<TRIPOS>SUBSTRUCTURE
     1 RES1 1

@<TRIPOS>CRYSIN
   5.9435   12.4041   16.5108  90.0000  92.5190  90.0000   4 1

