# MOL2 file generated by ConQuest
# Please check atom types

@<TRIPOS>MOLECULE
MUSSUP
   110   114     2
SMALL
NO_CHARGES
****
Generated from CSD

@<TRIPOS>ATOM
      1 O1        17.4703   11.8472    1.1593 O.2       1 RES1    0.0000
      2 O2        18.7020   10.0969    1.0265 O.2       1 RES1    0.0000
      3 O3        10.0342    7.2062    5.6776 O.3       1 RES1    0.0000
      4 N1        17.6157   10.6261    1.1694 N.pl3     1 RES1    0.0000
      5 N2        11.1141    6.5420    3.2781 N.3       1 RES1    0.0000
      6 C1        16.4304    9.8096    1.3578 C.ar      1 RES1    0.0000
      7 C2        15.2224   10.3875    1.5992 C.ar      1 RES1    0.0000
      8 C3        14.1091    9.6105    1.7497 C.ar      1 RES1    0.0000
      9 C4        14.1814    8.2222    1.6751 C.ar      1 RES1    0.0000
     10 C5        15.4259    7.6598    1.4437 C.ar      1 RES1    0.0000
     11 C6        16.5417    8.4205    1.2781 C.ar      1 RES1    0.0000
     12 C7        12.9586    7.3996    1.7826 C.3       1 RES1    0.0000
     13 C8        12.5068    7.0307    3.2048 C.3       1 RES1    0.0000
     14 C9        10.1425    7.6323    3.3085 C.3       1 RES1    0.0000
     15 C10       10.0105    8.2222    4.7206 C.3       1 RES1    0.0000
     16 C11        8.7260    8.9954    4.8420 C.ar      1 RES1    0.0000
     17 C12        7.5185    8.3201    4.9191 C.ar      1 RES1    0.0000
     18 C13        6.3144    8.9875    5.0228 C.ar      1 RES1    0.0000
     19 C14        6.2973   10.3326    5.0455 C.ar      1 RES1    0.0000
     20 C15        7.4606   11.0495    4.9558 C.ar      1 RES1    0.0000
     21 C16        8.6901   10.3668    4.8458 C.ar      1 RES1    0.0000
     22 C17       10.7898    5.5631    2.2326 C.3       1 RES1    0.0000
     23 C18        9.4562    4.8756    2.4185 C.ar      1 RES1    0.0000
     24 C19        9.0743    4.3197    3.6296 C.ar      1 RES1    0.0000
     25 C20        7.8854    3.6611    3.7585 C.ar      1 RES1    0.0000
     26 C21        7.0332    3.5171    2.6865 C.ar      1 RES1    0.0000
     27 C22        7.4115    4.0352    1.4640 C.ar      1 RES1    0.0000
     28 C23        8.6081    4.7100    1.3527 C.ar      1 RES1    0.0000
     29 C24       13.4491    6.0310    3.8394 C.3       1 RES1    0.0000
     30 H1        10.5282    6.4786    5.3161 H         1 RES1    0.0000
     31 H2        15.1693   11.3312    1.6915 H         1 RES1    0.0000
     32 H3        13.2630   10.0144    1.9014 H         1 RES1    0.0000
     33 H4        15.4924    6.7124    1.4210 H         1 RES1    0.0000
     34 H5        17.3822    8.0215    1.0847 H         1 RES1    0.0000
     35 H6        12.2362    7.8705    1.3843 H         1 RES1    0.0000
     36 H7        13.1101    6.5907    1.3059 H         1 RES1    0.0000
     37 H8        12.5546    7.8350    3.7080 H         1 RES1    0.0000
     38 H9        10.4124    8.3068    2.6966 H         1 RES1    0.0000
     39 H10        9.2880    7.3012    3.0594 H         1 RES1    0.0000
     40 H11       10.7446    8.8042    4.8748 H         1 RES1    0.0000
     41 H12        7.5021    7.3717    4.8799 H         1 RES1    0.0000
     42 H13        5.4871    8.5280    5.1024 H         1 RES1    0.0000
     43 H14        5.4751   10.8028    5.1176 H         1 RES1    0.0000
     44 H15        7.4678   11.9994    4.9646 H         1 RES1    0.0000
     45 H16        9.5151   10.8319    4.7699 H         1 RES1    0.0000
     46 H17       10.7577    6.0216    1.4020 H         1 RES1    0.0000
     47 H18       11.4723    4.9027    2.2048 H         1 RES1    0.0000
     48 H19        9.6525    4.3685    4.3818 H         1 RES1    0.0000
     49 H20        7.6036    3.3431    4.6081 H         1 RES1    0.0000
     50 H21        6.2203    3.0338    2.7712 H         1 RES1    0.0000
     51 H22        6.8426    3.9452    0.7092 H         1 RES1    0.0000
     52 H23        8.8575    5.0696    0.5095 H         1 RES1    0.0000
     53 H24       13.5334    6.2278    4.7661 H         1 RES1    0.0000
     54 H25       14.3019    6.0845    3.4260 H         1 RES1    0.0000
     55 H26       13.0991    5.1539    3.7333 H         1 RES1    0.0000
     56 O4         5.4304    4.1892   10.8609 O.2       2 RES2    0.0000
     57 O5         6.5325    2.4963   11.5853 O.2       2 RES2    0.0000
     58 O6        12.8525    9.0837    6.7307 O.3       2 RES2    0.0000
     59 N3         6.4775    3.6320   11.1530 N.pl3     2 RES2    0.0000
     60 N4        12.8964    7.8910    9.1504 N.3       2 RES2    0.0000
     61 C25        7.7326    4.3858   11.0013 C.ar      2 RES2    0.0000
     62 C26        8.9266    3.7308   11.0898 C.ar      2 RES2    0.0000
     63 C27       10.0926    4.4350   10.9583 C.ar      2 RES2    0.0000
     64 C28       10.0825    5.8081   10.7459 C.ar      2 RES2    0.0000
     65 C29        8.8430    6.4320   10.6536 C.ar      2 RES2    0.0000
     66 C30        7.6845    5.7347   10.7687 C.ar      2 RES2    0.0000
     67 C31       11.3523    6.5996   10.6561 C.3       2 RES2    0.0000
     68 C32       11.8486    6.8503    9.2187 C.3       2 RES2    0.0000
     69 C33       12.3591    9.2663    9.0771 C.3       2 RES2    0.0000
     70 C34       11.9366    9.6462    7.6536 C.3       2 RES2    0.0000
     71 C35       11.8923   11.1176    7.5006 C.ar      2 RES2    0.0000
     72 C36       13.0669   11.8546    7.4539 C.ar      2 RES2    0.0000
     73 C37       13.0559   13.2235    7.3097 C.ar      2 RES2    0.0000
     74 C38       11.8983   13.8763    7.2415 C.ar      2 RES2    0.0000
     75 C39       10.7299   13.2116    7.3135 C.ar      2 RES2    0.0000
     76 C40       10.6865   11.7961    7.4197 C.ar      2 RES2    0.0000
     77 C41       13.9276    7.7594   10.1821 C.3       2 RES2    0.0000
     78 C42       15.1392    8.5898    9.9419 C.ar      2 RES2    0.0000
     79 C43       15.7912    8.6063    8.7156 C.ar      2 RES2    0.0000
     80 C44       16.9237    9.3627    8.5284 C.ar      2 RES2    0.0000
     81 C45       17.4435   10.1051    9.5702 C.ar      2 RES2    0.0000
     82 C46       16.8332   10.0839   10.7712 C.ar      2 RES2    0.0000
     83 C47       15.6936    9.3570   10.9545 C.ar      2 RES2    0.0000
     84 C48       12.3265    5.5838    8.5550 C.3       2 RES2    0.0000
     85 H27       13.2322    8.3040    7.1188 H         2 RES2    0.0000
     86 H28        8.9266    2.7926   11.2415 H         2 RES2    0.0000
     87 H29       10.9258    3.9813   10.9937 H         2 RES2    0.0000
     88 H30        8.8255    7.3701   10.5044 H         2 RES2    0.0000
     89 H31        6.8429    6.1675   10.6852 H         2 RES2    0.0000
     90 H32       11.2407    7.4320   11.0999 H         2 RES2    0.0000
     91 H33       12.0311    6.0967   11.0910 H         2 RES2    0.0000
     92 H34       11.1023    7.1667    8.7231 H         2 RES2    0.0000
     93 H35       11.6158    9.3389    9.6650 H         2 RES2    0.0000
     94 H36       13.0352    9.8783    9.3451 H         2 RES2    0.0000
     95 H37       11.0698    9.2926    7.4893 H         2 RES2    0.0000
     96 H38       13.8969   11.3942    7.5120 H         2 RES2    0.0000
     97 H39       13.8663   13.7171    7.2592 H         2 RES2    0.0000
     98 H40       11.8979   14.8215    7.1492 H         2 RES2    0.0000
     99 H41        9.9171   13.7022    7.2756 H         2 RES2    0.0000
    100 H42        9.8667   11.3159    7.4437 H         2 RES2    0.0000
    101 H43       13.5540    7.9796   11.0266 H         2 RES2    0.0000
    102 H44       14.2045    6.8505   10.1858 H         2 RES2    0.0000
    103 H45       15.4526    8.0702    8.0089 H         2 RES2    0.0000
    104 H46       17.3625    9.3338    7.6865 H         2 RES2    0.0000
    105 H47       18.2092   10.6486    9.4248 H         2 RES2    0.0000
    106 H48       17.2104   10.5544   11.5057 H         2 RES2    0.0000
    107 H49       15.2427    9.3966   11.7889 H         2 RES2    0.0000
    108 H50       12.1471    5.5921    7.6220 H         2 RES2    0.0000
    109 H51       11.8860    4.8443    8.9558 H         2 RES2    0.0000
    110 H52       13.2622    5.5100    8.6979 H         2 RES2    0.0000
@<TRIPOS>BOND
     1    1    4 2
     2    2    4 2
     3    3   15 1
     4    4    6 1
     5    5   13 1
     6    6    7 ar
     7    7    8 ar
     8    8    9 ar
     9    9   10 ar
    10   10   11 ar
    11   11    6 ar
    12   12    9 1
    13   13   12 1
    14   14    5 1
    15   15   14 1
    16   16   15 1
    17   17   16 ar
    18   18   17 ar
    19   19   18 ar
    20   20   19 ar
    21   21   16 ar
    22   22    5 1
    23   23   22 1
    24   24   23 ar
    25   25   24 ar
    26   26   25 ar
    27   27   26 ar
    28   28   23 ar
    29   29   13 1
    30   30    3 1
    31   31    7 1
    32   32    8 1
    33   33   10 1
    34   34   11 1
    35   35   12 1
    36   36   12 1
    37   37   13 1
    38   38   14 1
    39   39   14 1
    40   40   15 1
    41   41   17 1
    42   42   18 1
    43   43   19 1
    44   44   20 1
    45   45   21 1
    46   46   22 1
    47   47   22 1
    48   48   24 1
    49   49   25 1
    50   50   26 1
    51   51   27 1
    52   52   28 1
    53   53   29 1
    54   54   29 1
    55   55   29 1
    56   56   59 2
    57   57   59 2
    58   58   70 1
    59   59   61 1
    60   60   68 1
    61   61   62 ar
    62   62   63 ar
    63   63   64 ar
    64   64   65 ar
    65   65   66 ar
    66   66   61 ar
    67   67   64 1
    68   68   67 1
    69   69   60 1
    70   70   69 1
    71   71   70 1
    72   72   71 ar
    73   73   72 ar
    74   74   73 ar
    75   75   74 ar
    76   76   71 ar
    77   77   60 1
    78   78   77 1
    79   79   78 ar
    80   80   79 ar
    81   81   80 ar
    82   82   81 ar
    83   83   78 ar
    84   84   68 1
    85   85   58 1
    86   86   62 1
    87   87   63 1
    88   88   65 1
    89   89   66 1
    90   90   67 1
    91   91   67 1
    92   92   68 1
    93   93   69 1
    94   94   69 1
    95   95   70 1
    96   96   72 1
    97   97   73 1
    98   98   74 1
    99   99   75 1
   100  100   76 1
   101  101   77 1
   102  102   77 1
   103  103   79 1
   104  104   80 1
   105  105   81 1
   106  106   82 1
   107  107   83 1
   108  108   84 1
   109  109   84 1
   110  110   84 1
   111   20   21 ar
   112   27   28 ar
   113   75   76 ar
   114   82   83 ar
@<TRIPOS>SUBSTRUCTURE
     1 RES1 1
     2 RES2 56

@<TRIPOS>CRYSIN
   9.5230    9.7960   13.3330  71.9200  85.5900  63.6400   1 1

