# MOL2 file generated by ConQuest
# Please check atom types

@<TRIPOS>MOLECULE
MUTSAW
    23    23     1
SMALL
NO_CHARGES
****
Generated from CSD

@<TRIPOS>ATOM
      1 C1         2.1429   -0.7941    5.0128 C.2       1 RES1    0.0000
      2 C2         1.2957   -2.8672    5.5205 C.3       1 RES1    0.0000
      3 H1         0.7003   -3.3470    4.9242 H         1 RES1    0.0000
      4 H2         1.1668   -3.1920    6.4259 H         1 RES1    0.0000
      5 C3         2.7290   -3.0144    5.0910 C.3       1 RES1    0.0000
      6 H3         3.2678   -3.3984    5.7998 H         1 RES1    0.0000
      7 H4         2.7996   -3.5743    4.3020 H         1 RES1    0.0000
      8 C4         2.2506    0.5938    4.8053 C.2       1 RES1    0.0000
      9 H5         3.0667    0.9421    4.5271 H         1 RES1    0.0000
     10 C5         4.5292   -1.3304    4.4852 C.3       1 RES1    0.0000
     11 H6         5.1100   -1.9260    4.9850 H         1 RES1    0.0000
     12 H7         4.7172   -0.4240    4.7741 H         1 RES1    0.0000
     13 C6         4.8542   -1.4523    3.0122 C.3       1 RES1    0.0000
     14 H8         5.8062   -1.3165    2.8831 H         1 RES1    0.0000
     15 H9         4.6375   -2.3483    2.7098 H         1 RES1    0.0000
     16 N1         1.0725   -1.4403    5.4435 N.3       1 RES1    0.0000
     17 H10        0.3317   -1.0570    5.6524 H         1 RES1    0.0000
     18 N2         3.1451   -1.6488    4.7999 N.3       1 RES1    0.0000
     19 N3         1.2240    1.4337    4.9931 N.pl3     1 RES1    0.0000
     20 O1         0.0941    1.0269    5.3963 O.2       1 RES1    0.0000
     21 O2         1.3832    2.6684    4.7554 O.2       1 RES1    0.0000
     22 O3         4.1441   -0.5178    2.2360 O.3       1 RES1    0.0000
     23 H11        3.4149   -0.8315    2.0307 H         1 RES1    0.0000
@<TRIPOS>BOND
     1    1    8 2
     2    2    3 1
     3    4    2 1
     4    5    2 1
     5    6    5 1
     6    7    5 1
     7    8    9 1
     8   10   11 1
     9   12   10 1
    10   13   10 1
    11   14   13 1
    12   15   13 1
    13   16    1 1
    14   17   16 1
    15   18    1 1
    16   19    8 1
    17   20   19 2
    18   21   19 2
    19   22   13 1
    20   23   22 1
    21    2   16 1
    22    5   18 1
    23   10   18 1
@<TRIPOS>SUBSTRUCTURE
     1 RES1 1

@<TRIPOS>CRYSIN
   6.9257    8.7071   12.9740  90.0000  94.4700  90.0000 231 1

