# MOL2 file generated by ConQuest
# Please check atom types

@<TRIPOS>MOLECULE
MUVNIA
    92    98     2
SMALL
NO_CHARGES
****
Generated from CSD

@<TRIPOS>ATOM
      1 N1         0.4783    8.7143   13.1745 N.pl3     1 RES1    0.0000
      2 O1         1.5234    9.2970   12.9032 O.2       1 RES1    0.0000
      3 O2        -0.6419    9.1534   12.8296 O.2       1 RES1    0.0000
      4 C1         1.7641    6.9531   14.2396 C.ar      1 RES1    0.0000
      5 C2         0.5345    7.5044   13.9353 C.ar      1 RES1    0.0000
      6 C3        -0.6512    6.8892   14.3512 C.ar      1 RES1    0.0000
      7 C4        -0.5439    5.7058   15.1222 C.ar      1 RES1    0.0000
      8 C5         0.7044    5.1316   15.3808 C.ar      1 RES1    0.0000
      9 C6         0.7159    3.8638   16.2000 C.3       1 RES1    0.0000
     10 C7         2.0725    3.1979   16.2862 C.3       1 RES1    0.0000
     11 C8         3.1979    4.2148   16.4739 C.3       1 RES1    0.0000
     12 C9         3.2239    5.1232   15.2490 C.3       1 RES1    0.0000
     13 C10        1.8735    5.7613   14.9320 C.ar      1 RES1    0.0000
     14 C11        4.4056    6.1316   15.2591 C.3       1 RES1    0.0000
     15 C12        5.7518    5.4863   15.5964 C.3       1 RES1    0.0000
     16 C13        5.6674    4.6406   16.8517 C.3       1 RES1    0.0000
     17 C14        4.5473    3.5996   16.6818 C.3       1 RES1    0.0000
     18 C15        4.7474    2.6032   17.8205 C.3       1 RES1    0.0000
     19 C16        6.2968    2.5887   18.0310 C.3       1 RES1    0.0000
     20 C17        6.8501    3.6840   17.0977 C.3       1 RES1    0.0000
     21 C18        5.4851    5.5249   18.0868 C.3       1 RES1    0.0000
     22 O3        -1.9027    7.3078   14.0647 O.3       1 RES1    0.0000
     23 O4         8.0672    4.2836   17.5314 O.3       1 RES1    0.0000
     24 N2        -0.5231    3.5417   12.6090 N.pl3     2 RES2    0.0000
     25 O5        -1.6568    3.2220   13.0807 O.2       2 RES2    0.0000
     26 O6         0.4501    2.8625   12.8601 O.2       2 RES2    0.0000
     27 C19        0.8555    5.1051   11.3740 C.ar      2 RES2    0.0000
     28 C20       -0.4189    4.7396   11.7949 C.ar      2 RES2    0.0000
     29 C21       -1.5453    5.4682   11.4424 C.ar      2 RES2    0.0000
     30 C22       -1.3463    6.5755   10.6639 C.ar      2 RES2    0.0000
     31 C23       -0.0844    6.9652   10.2226 C.ar      2 RES2    0.0000
     32 C24       -0.0042    8.2016    9.3528 C.3       2 RES2    0.0000
     33 C25        1.4098    8.7421    9.2184 C.3       2 RES2    0.0000
     34 C26        2.4320    7.6455    9.0079 C.3       2 RES2    0.0000
     35 C27        2.4529    6.7143   10.2175 C.3       2 RES2    0.0000
     36 C28        1.0535    6.2221   10.5726 C.ar      2 RES2    0.0000
     37 C29        3.4949    5.5972   10.0781 C.3       2 RES2    0.0000
     38 C30        4.9068    6.1557    9.7687 C.3       2 RES2    0.0000
     39 C31        4.8745    7.0774    8.5463 C.3       2 RES2    0.0000
     40 C32        3.8408    8.1642    8.7923 C.3       2 RES2    0.0000
     41 C33        4.1222    9.1932    7.6942 C.3       2 RES2    0.0000
     42 C34        5.6612    9.1582    7.5218 C.3       2 RES2    0.0000
     43 C35        6.1124    7.9447    8.3637 C.3       2 RES2    0.0000
     44 C36        4.6150    6.2474    7.2479 C.3       2 RES2    0.0000
     45 O7        -2.8040    5.2016   11.8355 O.3       2 RES2    0.0000
     46 O8         7.2398    7.3210    7.7170 O.3       2 RES2    0.0000
     47 H1         2.5373    7.3946   13.9708 H         1 RES1    0.0000
     48 H2        -1.3119    5.3065   15.4620 H         1 RES1    0.0000
     49 H3         0.0844    3.2365   15.8120 H         1 RES1    0.0000
     50 H4         0.4126    4.0701   17.0977 H         1 RES1    0.0000
     51 H5         2.2320    2.6913   15.4721 H         1 RES1    0.0000
     52 H6         2.0757    2.5755   17.0292 H         1 RES1    0.0000
     53 H7         2.9874    4.7637   17.2575 H         1 RES1    0.0000
     54 H8         3.4063    4.5260   14.4958 H         1 RES1    0.0000
     55 H9         4.4671    6.5502   14.3867 H         1 RES1    0.0000
     56 H10        4.2191    6.8265   15.9083 H         1 RES1    0.0000
     57 H11        6.0363    4.9301   14.8534 H         1 RES1    0.0000
     58 H12        6.4177    6.1811   15.7207 H         1 RES1    0.0000
     59 H13        4.7536    3.1123   15.8576 H         1 RES1    0.0000
     60 H14        4.4212    1.7238   17.5719 H         1 RES1    0.0000
     61 H15        4.2878    2.8951   18.6218 H         1 RES1    0.0000
     62 H16        6.5177    2.7853   18.9566 H         1 RES1    0.0000
     63 H17        6.6667    1.7226   17.8002 H         1 RES1    0.0000
     64 H18        7.0429    3.2510   16.2405 H         1 RES1    0.0000
     65 H19        4.7276    6.1003   17.9600 H         1 RES1    0.0000
     66 H20        6.2728    6.0580   18.2186 H         1 RES1    0.0000
     67 H21        5.3413    4.9724   18.8577 H         1 RES1    0.0000
     68 H22       -2.1621    7.8168   14.6530 H         1 RES1    0.0000
     69 H23        8.0380    4.4018   18.3429 H         1 RES1    0.0000
     70 H24        1.5880    4.5936   11.6352 H         2 RES2    0.0000
     71 H25       -2.0830    7.0894   10.4230 H         2 RES2    0.0000
     72 H26       -0.5721    8.8916    9.7306 H         2 RES2    0.0000
     73 H27       -0.3459    7.9893    8.4702 H         2 RES2    0.0000
     74 H28        1.4453    9.3573    8.4702 H         2 RES2    0.0000
     75 H29        1.6370    9.2366   10.0223 H         2 RES2    0.0000
     76 H30        2.1705    7.1244    8.2192 H         2 RES2    0.0000
     77 H31        2.7446    7.2643   10.9758 H         2 RES2    0.0000
     78 H32        3.2260    4.9965    9.3654 H         2 RES2    0.0000
     79 H33        3.5282    5.0870   10.9023 H         2 RES2    0.0000
     80 H34        5.2350    6.6491   10.5345 H         2 RES2    0.0000
     81 H35        5.5163    5.4199    9.6013 H         2 RES2    0.0000
     82 H36        4.0992    8.5949    9.6343 H         2 RES2    0.0000
     83 H37        3.8231   10.0762    7.9605 H         2 RES2    0.0000
     84 H38        3.6762    8.9471    6.8675 H         2 RES2    0.0000
     85 H39        5.9029    9.0412    6.5885 H         2 RES2    0.0000
     86 H40        6.0644    9.9773    7.8515 H         2 RES2    0.0000
     87 H41        6.3989    8.2680    9.2437 H         2 RES2    0.0000
     88 H42        3.7387    5.8578    7.2859 H         2 RES2    0.0000
     89 H43        5.2725    5.5514    7.1743 H         2 RES2    0.0000
     90 H44        4.6755    6.8240    6.4820 H         2 RES2    0.0000
     91 H45       -2.8113    4.5140   12.2818 H         2 RES2    0.0000
     92 H46        7.4086    6.6105    8.0873 H         2 RES2    0.0000
@<TRIPOS>BOND
     1    1    2 2
     2    3    1 2
     3    4    5 ar
     4    5    1 1
     5    6    5 ar
     6    7    6 ar
     7    8    7 ar
     8    9    8 1
     9   10    9 1
    10   11   10 1
    11   12   11 1
    12   13    4 ar
    13   14   12 1
    14   15   14 1
    15   16   15 1
    16   17   11 1
    17   18   17 1
    18   19   18 1
    19   20   16 1
    20   21   16 1
    21   22    6 1
    22   23   20 1
    23   24   25 2
    24   26   24 2
    25   27   28 ar
    26   28   24 1
    27   29   28 ar
    28   30   29 ar
    29   31   30 ar
    30   32   31 1
    31   33   32 1
    32   34   33 1
    33   35   34 1
    34   36   27 ar
    35   37   35 1
    36   38   37 1
    37   39   38 1
    38   40   34 1
    39   41   40 1
    40   42   41 1
    41   43   39 1
    42   44   39 1
    43   45   29 1
    44   46   43 1
    45   47    4 1
    46   48    7 1
    47   49    9 1
    48   50    9 1
    49   51   10 1
    50   52   10 1
    51   53   11 1
    52   54   12 1
    53   55   14 1
    54   56   14 1
    55   57   15 1
    56   58   15 1
    57   59   17 1
    58   60   18 1
    59   61   18 1
    60   62   19 1
    61   63   19 1
    62   64   20 1
    63   65   21 1
    64   66   21 1
    65   67   21 1
    66   68   22 1
    67   69   23 1
    68   70   27 1
    69   71   30 1
    70   72   32 1
    71   73   32 1
    72   74   33 1
    73   75   33 1
    74   76   34 1
    75   77   35 1
    76   78   37 1
    77   79   37 1
    78   80   38 1
    79   81   38 1
    80   82   40 1
    81   83   41 1
    82   84   41 1
    83   85   42 1
    84   86   42 1
    85   87   43 1
    86   88   44 1
    87   89   44 1
    88   90   44 1
    89   91   45 1
    90   92   46 1
    91    8   13 ar
    92   12   13 1
    93   16   17 1
    94   19   20 1
    95   31   36 ar
    96   35   36 1
    97   39   40 1
    98   42   43 1
@<TRIPOS>SUBSTRUCTURE
     1 RES1 1
     2 RES2 24

@<TRIPOS>CRYSIN
  10.4200   12.0630   25.3600  90.0000  90.0000  90.0000  19 1

