# MOL2 file generated by ConQuest
# Please check atom types

@<TRIPOS>MOLECULE
MUVNOG
    92    98     2
SMALL
NO_CHARGES
****
Generated from CSD

@<TRIPOS>ATOM
      1 C1         4.6525   13.9426   -6.7310 C.ar      1 RES1    0.0000
      2 C2         4.5295   15.1695   -7.3122 C.ar      1 RES1    0.0000
      3 C3         3.2788   15.7150   -7.4822 C.ar      1 RES1    0.0000
      4 O1         3.0203   16.9301   -8.0462 O.3       1 RES1    0.0000
      5 C4         2.1994   14.9686   -7.0496 C.ar      1 RES1    0.0000
      6 N1         0.8617   15.5555   -7.2358 N.pl3     1 RES1    0.0000
      7 O2         0.2535   15.2896   -8.2313 O.2       1 RES1    0.0000
      8 O3         0.4198   16.2802   -6.3834 O.2       1 RES1    0.0000
      9 C5         2.3044   13.7300   -6.4318 C.ar      1 RES1    0.0000
     10 C6         1.0805   13.0427   -5.9130 C.3       1 RES1    0.0000
     11 C7         1.3000   11.8434   -5.0456 C.3       1 RES1    0.0000
     12 C8         2.7012   11.7154   -4.4622 C.3       1 RES1    0.0000
     13 C9         3.7369   11.8355   -5.6149 C.3       1 RES1    0.0000
     14 C10        3.5814   13.1884   -6.2865 C.ar      1 RES1    0.0000
     15 C11        5.1633   11.4810   -5.2081 C.3       1 RES1    0.0000
     16 C12        5.2552   10.1754   -4.4224 C.3       1 RES1    0.0000
     17 C13        4.3398   10.2010   -3.2148 C.3       1 RES1    0.0000
     18 C14        2.9042   10.4117   -3.7110 C.3       1 RES1    0.0000
     19 C15        2.0399   10.1143   -2.4808 C.3       1 RES1    0.0000
     20 C16        2.8431    9.0430   -1.7080 C.3       1 RES1    0.0000
     21 C17        4.1470    8.8697   -2.4926 C.3       1 RES1    0.0000
     22 C18        4.7827   11.2644   -2.2074 C.3       1 RES1    0.0000
     23 O4         5.2640    8.3951   -1.7177 O.3       1 RES1    0.0000
     24 C19        3.2858   12.7059    1.0773 C.ar      2 RES2    0.0000
     25 C20        3.1539   11.4751    1.6984 C.ar      2 RES2    0.0000
     26 C21        1.9347   10.8351    1.7005 C.ar      2 RES2    0.0000
     27 O5         1.6818    9.6476    2.2925 O.3       2 RES2    0.0000
     28 C22        0.9055   11.4751    1.0601 C.ar      2 RES2    0.0000
     29 N2        -0.3973   10.7898    1.0472 N.pl3     2 RES2    0.0000
     30 O6        -0.5852    9.9213    0.2185 O.2       2 RES2    0.0000
     31 O7        -1.2263   11.1167    1.8781 O.2       2 RES2    0.0000
     32 C23        0.9972   12.7158    0.4327 C.ar      2 RES2    0.0000
     33 C24       -0.2233   13.3105   -0.2529 C.3       2 RES2    0.0000
     34 C25       -0.0372   14.7107   -0.7362 C.3       2 RES2    0.0000
     35 C26        1.3631   14.9371   -1.3120 C.3       2 RES2    0.0000
     36 C27        2.3967   14.7245   -0.1980 C.3       2 RES2    0.0000
     37 C28        2.2427   13.3519    0.4348 C.ar      2 RES2    0.0000
     38 C29        3.8275   15.0376   -0.6587 C.3       2 RES2    0.0000
     39 C30        3.9332   16.4318   -1.2840 C.3       2 RES2    0.0000
     40 C31        2.9363   16.6170   -2.4162 C.3       2 RES2    0.0000
     41 C32        1.5324   16.3275   -1.8813 C.3       2 RES2    0.0000
     42 C33        0.5979   16.8237   -2.9845 C.3       2 RES2    0.0000
     43 C34        1.3614   18.0092   -3.6077 C.3       2 RES2    0.0000
     44 C35        2.7111   18.0467   -2.8898 C.3       2 RES2    0.0000
     45 C36        3.3286   15.7288   -3.6173 C.3       2 RES2    0.0000
     46 O8         3.7679   18.6355   -3.6669 O.3       2 RES2    0.0000
     47 H1         5.5082   13.5941   -6.6277 H         1 RES1    0.0000
     48 H2         5.2851   15.6323   -7.5909 H         1 RES1    0.0000
     49 H3         3.7121   17.3692   -8.0774 H         1 RES1    0.0000
     50 H4         0.5622   13.6886   -5.4083 H         1 RES1    0.0000
     51 H5         0.5416   12.7709   -6.6718 H         1 RES1    0.0000
     52 H6         1.1104   11.0478   -5.5675 H         1 RES1    0.0000
     53 H7         0.6634   11.8709   -4.3148 H         1 RES1    0.0000
     54 H8         2.8448   12.4578   -3.8380 H         1 RES1    0.0000
     55 H9         3.4743   11.1699   -6.2843 H         1 RES1    0.0000
     56 H10        5.5241   12.2018   -4.6656 H         1 RES1    0.0000
     57 H11        5.7102   11.4101   -6.0056 H         1 RES1    0.0000
     58 H12        5.0083    9.4349   -4.9982 H         1 RES1    0.0000
     59 H13        6.1693   10.0356   -4.1307 H         1 RES1    0.0000
     60 H14        2.7266    9.6929   -4.3535 H         1 RES1    0.0000
     61 H15        1.1704    9.7717   -2.7423 H         1 RES1    0.0000
     62 H16        1.9170   10.9099   -1.9427 H         1 RES1    0.0000
     63 H17        3.0252    9.3404   -0.8029 H         1 RES1    0.0000
     64 H18        2.3521    8.2080   -1.6704 H         1 RES1    0.0000
     65 H19        3.9743    8.1943   -3.1825 H         1 RES1    0.0000
     66 H20        4.1948   11.2486   -1.4476 H         1 RES1    0.0000
     67 H21        4.7514   12.1289   -2.6196 H         1 RES1    0.0000
     68 H22        5.6797   11.0773   -1.9201 H         1 RES1    0.0000
     69 H23        5.3786    8.8894   -1.0730 H         1 RES1    0.0000
     70 H24        4.1179   13.1214    1.0913 H         2 RES2    0.0000
     71 H25        3.8869   11.0813    2.1138 H         2 RES2    0.0000
     72 H26        2.3607    9.3778    2.6648 H         2 RES2    0.0000
     73 H27       -0.4586   12.7492   -1.0085 H         2 RES2    0.0000
     74 H28       -0.9675   13.2928    0.3692 H         2 RES2    0.0000
     75 H29       -0.1834   15.3251    0.0000 H         2 RES2    0.0000
     76 H30       -0.6977   14.9037   -1.4207 H         2 RES2    0.0000
     77 H31        1.5231   14.2833   -2.0223 H         2 RES2    0.0000
     78 H32        2.1845   15.3743    0.5026 H         2 RES2    0.0000
     79 H33        4.1069   14.3739   -1.3077 H         2 RES2    0.0000
     80 H34        4.4268   14.9824    0.1022 H         2 RES2    0.0000
     81 H35        3.7699   17.1014   -0.6016 H         2 RES2    0.0000
     82 H36        4.8318   16.5638   -1.6230 H         2 RES2    0.0000
     83 H37        1.4036   16.9419   -1.1279 H         2 RES2    0.0000
     84 H38       -0.2528   17.1112   -2.6164 H         2 RES2    0.0000
     85 H39        0.4372   16.1286   -3.6421 H         2 RES2    0.0000
     86 H40        1.4840   17.8734   -4.5602 H         2 RES2    0.0000
     87 H41        0.8771   18.8383   -3.4688 H         2 RES2    0.0000
     88 H42        2.5976   18.6000   -2.0901 H         2 RES2    0.0000
     89 H43        2.7019   15.8627   -4.3320 H         2 RES2    0.0000
     90 H44        3.3183   14.8072   -3.3504 H         2 RES2    0.0000
     91 H45        4.2095   15.9651   -3.9155 H         2 RES2    0.0000
     92 H46        3.7610   18.3184   -4.4224 H         2 RES2    0.0000
@<TRIPOS>BOND
     1    1    2 ar
     2    2    3 ar
     3    3    4 1
     4    4   49 1
     5    5    3 ar
     6    6    5 1
     7    7    6 2
     8    8    6 2
     9    9    5 ar
    10   10    9 1
    11   11   10 1
    12   12   11 1
    13   13   12 1
    14   14    1 ar
    15   15   13 1
    16   16   15 1
    17   17   16 1
    18   18   12 1
    19   19   18 1
    20   20   19 1
    21   21   17 1
    22   22   17 1
    23   23   21 1
    24   24   25 ar
    25   25   26 ar
    26   26   27 1
    27   27   72 1
    28   28   26 ar
    29   29   28 1
    30   30   29 2
    31   31   29 2
    32   32   28 ar
    33   33   32 1
    34   34   33 1
    35   35   34 1
    36   36   35 1
    37   37   24 ar
    38   38   36 1
    39   39   38 1
    40   40   39 1
    41   41   35 1
    42   42   41 1
    43   43   42 1
    44   44   40 1
    45   45   40 1
    46   46   44 1
    47   47    1 1
    48   48    2 1
    49   50   10 1
    50   51   10 1
    51   52   11 1
    52   53   11 1
    53   54   12 1
    54   55   13 1
    55   56   15 1
    56   57   15 1
    57   58   16 1
    58   59   16 1
    59   60   18 1
    60   61   19 1
    61   62   19 1
    62   63   20 1
    63   64   20 1
    64   65   21 1
    65   66   22 1
    66   67   22 1
    67   68   22 1
    68   69   23 1
    69   70   24 1
    70   71   25 1
    71   73   33 1
    72   74   33 1
    73   75   34 1
    74   76   34 1
    75   77   35 1
    76   78   36 1
    77   79   38 1
    78   80   38 1
    79   81   39 1
    80   82   39 1
    81   83   41 1
    82   84   42 1
    83   85   42 1
    84   86   43 1
    85   87   43 1
    86   88   44 1
    87   89   45 1
    88   90   45 1
    89   91   45 1
    90   92   46 1
    91    9   14 ar
    92   13   14 1
    93   17   18 1
    94   20   21 1
    95   32   37 ar
    96   36   37 1
    97   40   41 1
    98   43   44 1
@<TRIPOS>SUBSTRUCTURE
     1 RES1 1
     2 RES2 24

@<TRIPOS>CRYSIN
   7.6120   19.6930   11.1310  90.0000 104.7800  90.0000   4 1

