# MOL2 file generated by ConQuest
# Please check atom types

@<TRIPOS>MOLECULE
MUVYAD
   110   116     2
SMALL
NO_CHARGES
****
Generated from CSD

@<TRIPOS>ATOM
      1 O1         5.3582    5.8370    7.5408 O.3       1 RES1    0.0000
      2 O2         3.5810    3.8527   19.4057 O.3       1 RES1    0.0000
      3 N1         4.7288    5.6317    8.7963 N.2       1 RES1    0.0000
      4 C1         5.4831    5.0234    9.6443 C.2       1 RES1    0.0000
      5 C2         6.8690    4.5693    9.3236 C.3       1 RES1    0.0000
      6 C3         7.2427    3.2377    9.9507 C.3       1 RES1    0.0000
      7 C4         6.9530    3.2911   11.4455 C.3       1 RES1    0.0000
      8 C5         5.4575    3.5347   11.7215 C.3       1 RES1    0.0000
      9 C6         5.1734    3.5046   13.2088 C.2       1 RES1    0.0000
     10 C7         5.2613    2.1392   13.8641 C.3       1 RES1    0.0000
     11 C8         5.6620    2.2399   15.3133 C.3       1 RES1    0.0000
     12 C9         4.8530    3.2685   16.0536 C.ar      1 RES1    0.0000
     13 C10        4.5290    3.1166   17.3989 C.ar      1 RES1    0.0000
     14 C11        3.8498    4.1106   18.0845 C.ar      1 RES1    0.0000
     15 C12        3.5010    5.2956   17.4274 C.ar      1 RES1    0.0000
     16 C13        3.7995    5.4302   16.0762 C.ar      1 RES1    0.0000
     17 C14        4.4848    4.4385   15.3608 C.ar      1 RES1    0.0000
     18 C15        4.8173    4.5768   13.9364 C.2       1 RES1    0.0000
     19 C16        4.7201    5.9498   13.3112 C.3       1 RES1    0.0000
     20 C17        5.3082    6.0212   11.9102 C.3       1 RES1    0.0000
     21 C18        4.8885    4.8197   11.0437 C.3       1 RES1    0.0000
     22 C19        6.6003    2.0294    9.2832 C.2       1 RES1    0.0000
     23 C20        7.3213    0.7271    9.4926 C.3       1 RES1    0.0000
     24 C21        5.5003    2.0767    8.5679 C.2       1 RES1    0.0000
     25 C22        2.8189    4.8046   20.1329 C.3       1 RES1    0.0000
     26 C23        3.3584    4.7099   10.9724 C.3       1 RES1    0.0000
     27 O3         2.3104    6.6400    7.8894 O.3       2 RES2    0.0000
     28 O4         2.4210    4.4949   -4.1090 O.3       2 RES2    0.0000
     29 N2         2.7995    6.3145    6.5874 N.2       2 RES2    0.0000
     30 C24        1.9162    5.8753    5.7947 C.2       2 RES2    0.0000
     31 C25        0.4825    5.6370    6.1971 C.3       2 RES2    0.0000
     32 C26        0.0230    4.2355    5.7412 C.3       2 RES2    0.0000
     33 C27        0.1631    4.1994    4.2195 C.3       2 RES2    0.0000
     34 C28        1.6524    4.3272    3.7811 C.3       2 RES2    0.0000
     35 C29        1.7606    4.2452    2.2700 C.2       2 RES2    0.0000
     36 C30        1.5526    2.8775    1.6623 C.3       2 RES2    0.0000
     37 C31        0.9656    2.9587    0.2801 C.3       2 RES2    0.0000
     38 C32        1.6776    3.9565   -0.5933 C.ar      2 RES2    0.0000
     39 C33        1.7764    3.7948   -1.9655 C.ar      2 RES2    0.0000
     40 C34        2.3753    4.7610   -2.7634 C.ar      2 RES2    0.0000
     41 C35        2.8930    5.9039   -2.1773 C.ar      2 RES2    0.0000
     42 C36        2.8088    6.0678   -0.7964 C.ar      2 RES2    0.0000
     43 C37        2.1995    5.1182    0.0244 C.ar      2 RES2    0.0000
     44 C38        2.0631    5.2934    1.4820 C.2       2 RES2    0.0000
     45 C39        2.3138    6.6701    2.0443 C.3       2 RES2    0.0000
     46 C40        1.9124    6.8160    3.4997 C.3       2 RES2    0.0000
     47 C41        2.3452    5.6047    4.3565 C.3       2 RES2    0.0000
     48 C42        0.7432    3.0873    6.4372 C.2       2 RES2    0.0000
     49 C43        0.3420    1.7061    5.9847 C.3       2 RES2    0.0000
     50 C44        1.6419    3.2490    7.3903 C.2       2 RES2    0.0000
     51 C45        3.1640    5.3859   -4.9323 C.3       2 RES2    0.0000
     52 C46        3.8679    5.4001    4.2695 C.3       2 RES2    0.0000
     53 H1         7.5096    5.2580    9.6318 H         1 RES1    0.0000
     54 H2         6.9594    4.4949    8.3394 H         1 RES1    0.0000
     55 H3         8.2324    3.1354    9.8477 H         1 RES1    0.0000
     56 H4         4.9658    2.7610   11.3216 H         1 RES1    0.0000
     57 H5         7.4844    4.0182   11.8567 H         1 RES1    0.0000
     58 H6         7.2291    2.4377   11.8630 H         1 RES1    0.0000
     59 H7         4.3814    1.6888   13.8000 H         1 RES1    0.0000
     60 H8         5.9233    1.5858   13.3806 H         1 RES1    0.0000
     61 H9         5.5427    1.3579   15.7463 H         1 RES1    0.0000
     62 H10        6.6214    2.4790   15.3708 H         1 RES1    0.0000
     63 H11        4.7772    2.3204   17.8523 H         1 RES1    0.0000
     64 H12        3.0674    5.9979   17.8961 H         1 RES1    0.0000
     65 H13        3.5295    6.2197   15.6212 H         1 RES1    0.0000
     66 H14        5.1928    6.5994   13.8907 H         1 RES1    0.0000
     67 H15        3.7687    6.2182   13.2711 H         1 RES1    0.0000
     68 H16        6.2957    6.0475   11.9725 H         1 RES1    0.0000
     69 H17        5.0087    6.8573   11.4749 H         1 RES1    0.0000
     70 H18        4.6712    5.9964    6.8968 H         1 RES1    0.0000
     71 H19        6.7788   -0.0075    9.1374 H         1 RES1    0.0000
     72 H20        7.4724    0.5880   10.4517 H         1 RES1    0.0000
     73 H21        8.1827    0.7519    9.0247 H         1 RES1    0.0000
     74 H22        5.1533    1.2827    8.1767 H         1 RES1    0.0000
     75 H23        5.0514    2.9038    8.4396 H         1 RES1    0.0000
     76 H24        3.2889    5.6648   20.1367 H         1 RES1    0.0000
     77 H25        2.7012    4.4934   21.0535 H         1 RES1    0.0000
     78 H26        1.9419    4.9129   19.7111 H         1 RES1    0.0000
     79 H27        2.9810    5.5731   10.7020 H         1 RES1    0.0000
     80 H28        3.0069    4.4618   11.8536 H         1 RES1    0.0000
     81 H29        3.1102    4.0249   10.3171 H         1 RES1    0.0000
     82 H30       -0.0969    6.3265    5.7860 H         2 RES2    0.0000
     83 H31        0.3969    5.7107    7.1816 H         2 RES2    0.0000
     84 H32       -0.9506    4.1535    5.9549 H         2 RES2    0.0000
     85 H33       -0.3592    4.9415    3.8239 H         2 RES2    0.0000
     86 H34       -0.2073    3.3475    3.8771 H         2 RES2    0.0000
     87 H35        2.1377    3.5369    4.1556 H         2 RES2    0.0000
     88 H36        2.4215    2.4046    1.6209 H         2 RES2    0.0000
     89 H37        0.9478    2.3519    2.2437 H         2 RES2    0.0000
     90 H38        0.0111    3.2114    0.3473 H         2 RES2    0.0000
     91 H39        1.0124    2.0655   -0.1439 H         2 RES2    0.0000
     92 H40        1.4273    3.0084   -2.3688 H         2 RES2    0.0000
     93 H41        3.3029    6.5724   -2.7131 H         2 RES2    0.0000
     94 H42        3.1781    6.8491   -0.4005 H         2 RES2    0.0000
     95 H43        1.8103    7.3318    1.5052 H         2 RES2    0.0000
     96 H44        3.2768    6.8806    1.9558 H         2 RES2    0.0000
     97 H45        0.9290    6.9182    3.5548 H         2 RES2    0.0000
     98 H46        2.3234    7.6378    3.8677 H         2 RES2    0.0000
     99 H47        2.8522    6.4137    8.4959 H         2 RES2    0.0000
    100 H48        0.9022    1.0391    6.4337 H         2 RES2    0.0000
    101 H49        0.4602    1.6324    5.0162 H         2 RES2    0.0000
    102 H50       -0.5987    1.5482    6.2115 H         2 RES2    0.0000
    103 H51        2.0426    2.4903    7.7981 H         2 RES2    0.0000
    104 H52        1.8878    4.1234    7.6666 H         2 RES2    0.0000
    105 H53        2.7330    6.2656   -4.9348 H         2 RES2    0.0000
    106 H54        3.1963    5.0347   -5.8454 H         2 RES2    0.0000
    107 H55        4.0755    5.4701   -4.5812 H         2 RES2    0.0000
    108 H56        4.3249    6.2205    4.5499 H         2 RES2    0.0000
    109 H57        4.1170    5.1866    3.3452 H         2 RES2    0.0000
    110 H58        4.1325    4.6618    4.8566 H         2 RES2    0.0000
@<TRIPOS>BOND
     1    1    3 1
     2    2   14 1
     3    3    4 2
     4    4    5 1
     5    5    6 1
     6    6    7 1
     7    7    8 1
     8    8    9 1
     9    9   10 1
    10   10   11 1
    11   11   12 1
    12   12   13 ar
    13   13   14 ar
    14   14   15 ar
    15   15   16 ar
    16   16   17 ar
    17   17   12 ar
    18   18    9 2
    19   19   18 1
    20   20   19 1
    21   21    4 1
    22   22    6 1
    23   23   22 1
    24   24   22 2
    25   25    2 1
    26   26   21 1
    27   27   29 1
    28   28   40 1
    29   29   30 2
    30   30   31 1
    31   31   32 1
    32   32   33 1
    33   33   34 1
    34   34   35 1
    35   35   36 1
    36   36   37 1
    37   37   38 1
    38   38   39 ar
    39   39   40 ar
    40   40   41 ar
    41   41   42 ar
    42   42   43 ar
    43   43   38 ar
    44   44   35 2
    45   45   44 1
    46   46   45 1
    47   47   30 1
    48   48   32 1
    49   49   48 1
    50   50   48 2
    51   51   28 1
    52   52   47 1
    53   53    5 1
    54   54    5 1
    55   55    6 1
    56   56    8 1
    57   57    7 1
    58   58    7 1
    59   59   10 1
    60   60   10 1
    61   61   11 1
    62   62   11 1
    63   63   13 1
    64   64   15 1
    65   65   16 1
    66   66   19 1
    67   67   19 1
    68   68   20 1
    69   69   20 1
    70   70    1 1
    71   71   23 1
    72   72   23 1
    73   73   23 1
    74   74   24 1
    75   75   24 1
    76   76   25 1
    77   77   25 1
    78   78   25 1
    79   79   26 1
    80   80   26 1
    81   81   26 1
    82   82   31 1
    83   83   31 1
    84   84   32 1
    85   85   33 1
    86   86   33 1
    87   87   34 1
    88   88   36 1
    89   89   36 1
    90   90   37 1
    91   91   37 1
    92   92   39 1
    93   93   41 1
    94   94   42 1
    95   95   45 1
    96   96   45 1
    97   97   46 1
    98   98   46 1
    99   99   27 1
   100  100   49 1
   101  101   49 1
   102  102   49 1
   103  103   50 1
   104  104   50 1
   105  105   51 1
   106  106   51 1
   107  107   51 1
   108  108   52 1
   109  109   52 1
   110  110   52 1
   111    8   21 1
   112   17   18 1
   113   20   21 1
   114   34   47 1
   115   43   44 1
   116   46   47 1
@<TRIPOS>SUBSTRUCTURE
     1 RES1 1
     2 RES2 27

@<TRIPOS>CRYSIN
   8.1370    7.5190   31.4390  90.0000  95.5350  90.0000   4 1

