# MOL2 file generated by ConQuest
# Please check atom types

@<TRIPOS>MOLECULE
MUWBOW
    41    42     1
SMALL
NO_CHARGES
****
Generated from CSD

@<TRIPOS>ATOM
      1 O1         4.5616    6.1418    0.2904 O.3       1 RES1    0.0000
      2 O2         2.8102    5.3740    1.4486 O.2       1 RES1    0.0000
      3 O3         3.1499   -2.2077   -0.4273 O.2       1 RES1    0.0000
      4 O4         1.3600   -3.2904    0.1186 O.2       1 RES1    0.0000
      5 N1         2.0458   -2.2757    0.1217 N.pl3     1 RES1    0.0000
      6 C1         6.6597    1.5710    1.6786 C.ar      1 RES1    0.0000
      7 H1         5.8140    1.4133    2.0329 H         1 RES1    0.0000
      8 C2         7.6457    0.6027    1.7989 C.ar      1 RES1    0.0000
      9 H2         7.4580   -0.1957    2.2383 H         1 RES1    0.0000
     10 C3         8.9090    0.8174    1.2671 C.ar      1 RES1    0.0000
     11 H3         9.5637    0.1604    1.3384 H         1 RES1    0.0000
     12 C4         9.1901    2.0123    0.6305 C.ar      1 RES1    0.0000
     13 H4        10.0368    2.1620    0.2754 H         1 RES1    0.0000
     14 C5         8.2154    2.9820    0.5213 C.ar      1 RES1    0.0000
     15 H5         8.4179    3.7859    0.1012 H         1 RES1    0.0000
     16 C6         6.9233    2.7807    1.0306 C.ar      1 RES1    0.0000
     17 C7         5.9702    3.8918    0.9233 C.2       1 RES1    0.0000
     18 H6         6.3533    4.7330    0.8225 H         1 RES1    0.0000
     19 C8         4.6153    3.8764    0.9491 C.2       1 RES1    0.0000
     20 C9         3.8909    5.1801    0.9357 C.2       1 RES1    0.0000
     21 C10        3.9220    7.4513    0.2382 C.3       1 RES1    0.0000
     22 H7         3.8502    7.8286    1.1292 H         1 RES1    0.0000
     23 H8         3.0304    7.3775   -0.1385 H         1 RES1    0.0000
     24 C11        4.7840    8.3167   -0.6268 C.3       1 RES1    0.0000
     25 H9         5.6571    8.3912   -0.2352 H         1 RES1    0.0000
     26 H10        4.3914    9.1889   -0.6990 H         1 RES1    0.0000
     27 H11        4.8564    7.9251   -1.4999 H         1 RES1    0.0000
     28 C12        3.8237    2.6477    0.9621 C.2       1 RES1    0.0000
     29 H12        4.2366    1.8916    0.6104 H         1 RES1    0.0000
     30 C13        2.5766    2.4788    1.4188 C.2       1 RES1    0.0000
     31 H13        2.1509    3.2220    1.7828 H         1 RES1    0.0000
     32 C14        1.8276    1.2211    1.3929 C.ar      1 RES1    0.0000
     33 C15        0.5835    1.1576    2.0420 C.ar      1 RES1    0.0000
     34 H14        0.2552    1.9147    2.4728 H         1 RES1    0.0000
     35 C16       -0.1641   -0.0045    2.0546 C.ar      1 RES1    0.0000
     36 H15       -0.9912   -0.0163    2.4802 H         1 RES1    0.0000
     37 C17        0.3058   -1.1473    1.4407 C.ar      1 RES1    0.0000
     38 H16       -0.1870   -1.9364    1.4530 H         1 RES1    0.0000
     39 C18        1.5375   -1.0809    0.8050 C.ar      1 RES1    0.0000
     40 C19        2.2902    0.0730    0.7564 C.ar      1 RES1    0.0000
     41 H17        3.1015    0.0843    0.3015 H         1 RES1    0.0000
@<TRIPOS>BOND
     1    1   20 1
     2    2   20 2
     3    3    5 2
     4    4    5 2
     5    5   39 1
     6    6    7 1
     7    8    6 ar
     8    9    8 1
     9   10    8 ar
    10   11   10 1
    11   12   10 ar
    12   13   12 1
    13   14   12 ar
    14   15   14 1
    15   16    6 ar
    16   17   16 1
    17   18   17 1
    18   19   17 2
    19   20   19 1
    20   21    1 1
    21   22   21 1
    22   23   21 1
    23   24   21 1
    24   25   24 1
    25   26   24 1
    26   27   24 1
    27   28   19 1
    28   29   28 1
    29   30   28 2
    30   31   30 1
    31   32   30 1
    32   33   32 ar
    33   34   33 1
    34   35   33 ar
    35   36   35 1
    36   37   35 ar
    37   38   37 1
    38   39   37 ar
    39   40   32 ar
    40   41   40 1
    41   14   16 ar
    42   39   40 ar
@<TRIPOS>SUBSTRUCTURE
     1 RES1 1

@<TRIPOS>CRYSIN
  16.0350   13.5890    7.4609  90.0000  93.8900  90.0000  14 1

