# MOL2 file generated by ConQuest
# Please check atom types

@<TRIPOS>MOLECULE
MUWKEV
   114   120     2
SMALL
NO_CHARGES
****
Generated from CSD

@<TRIPOS>ATOM
      1 O1         8.1013    6.4710   16.3914 O.3       1 RES1    0.0000
      2 N1         6.7459    7.0600   16.3807 N.3       1 RES1    0.0000
      3 C1         5.9424    6.1129   17.1998 C.3       1 RES1    0.0000
      4 C2         6.5662    4.7433   16.8489 C.3       1 RES1    0.0000
      5 C3         8.0064    5.1373   16.6140 C.2       1 RES1    0.0000
      6 O2         8.9845    4.4469   16.5862 O.2       1 RES1    0.0000
      7 C4         6.0373    4.1666   15.5144 C.3       1 RES1    0.0000
      8 C5         6.6770    2.9070   15.0263 C.2       1 RES1    0.0000
      9 C6         7.2250    2.7662   13.8424 C.2       1 RES1    0.0000
     10 C7         6.4644    3.6974   17.9834 C.3       1 RES1    0.0000
     11 C8         6.7918    4.1777   19.3770 C.ar      1 RES1    0.0000
     12 C9         5.7937    4.3086   20.3411 C.ar      1 RES1    0.0000
     13 C10        6.0462    4.7742   21.6000 C.ar      1 RES1    0.0000
     14 C11        7.3357    5.0990   21.9629 C.ar      1 RES1    0.0000
     15 C12        8.3578    4.9631   21.0447 C.ar      1 RES1    0.0000
     16 C13        8.0983    4.5099   19.7584 C.ar      1 RES1    0.0000
     17 C14        4.4693    6.2919   16.8788 C.ar      1 RES1    0.0000
     18 C15        3.5202    6.0672   17.8845 C.ar      1 RES1    0.0000
     19 C16        2.1768    6.1561   17.6019 C.ar      1 RES1    0.0000
     20 C17        1.7486    6.4685   16.3274 C.ar      1 RES1    0.0000
     21 C18        2.6738    6.7254   15.3391 C.ar      1 RES1    0.0000
     22 C19        4.0252    6.6389   15.6111 C.ar      1 RES1    0.0000
     23 C20        6.8946    8.4098   16.9869 C.3       1 RES1    0.0000
     24 C21        7.6511    8.4506   18.3197 C.3       1 RES1    0.0000
     25 C22        7.4675    9.3335   15.9310 C.ar      1 RES1    0.0000
     26 C23        6.6231   10.0905   15.1379 C.ar      1 RES1    0.0000
     27 C24        7.1142   10.9340   14.1567 C.ar      1 RES1    0.0000
     28 C25        8.4586   11.0414   13.9462 C.ar      1 RES1    0.0000
     29 C26        9.3179   10.2968   14.7340 C.ar      1 RES1    0.0000
     30 C27        8.8398    9.4533   15.7142 C.ar      1 RES1    0.0000
     31 O3         6.5163    7.4182    9.7043 O.3       2 RES2    0.0000
     32 N2         7.4655    8.3332   10.3968 N.3       2 RES2    0.0000
     33 C28        7.6032    7.8207   11.7822 C.3       2 RES2    0.0000
     34 C29        6.2648    7.4849   12.4758 C.3       2 RES2    0.0000
     35 C30        8.5274    6.6414   11.8640 C.ar      2 RES2    0.0000
     36 C31        8.7710    5.8004   10.7968 C.ar      2 RES2    0.0000
     37 C32        9.5924    4.6791   10.9304 C.ar      2 RES2    0.0000
     38 C33       10.1702    4.3889   12.1523 C.ar      2 RES2    0.0000
     39 C34        9.9257    5.2274   13.2402 C.ar      2 RES2    0.0000
     40 C35        9.1173    6.3413   13.0951 C.ar      2 RES2    0.0000
     41 C36        6.8317    9.6694   10.3133 C.3       2 RES2    0.0000
     42 C37        6.0443    9.6225    8.9801 C.3       2 RES2    0.0000
     43 C38        5.8137    8.1344    8.8116 C.2       2 RES2    0.0000
     44 O4         5.1220    7.5713    7.9989 O.2       2 RES2    0.0000
     45 C39        4.6839   10.3560    9.0356 C.3       2 RES2    0.0000
     46 C40        3.7527    9.8720   10.1341 C.ar      2 RES2    0.0000
     47 C41        3.7098   10.5067   11.3873 C.ar      2 RES2    0.0000
     48 C42        2.9004   10.0313   12.3980 C.ar      2 RES2    0.0000
     49 C43        2.0879    8.9384   12.1740 C.ar      2 RES2    0.0000
     50 C44        2.0989    8.3048   10.9461 C.ar      2 RES2    0.0000
     51 C45        2.9273    8.7778    9.9375 C.ar      2 RES2    0.0000
     52 C46        6.8886   10.1152    7.7910 C.3       2 RES2    0.0000
     53 C47        6.2568    9.9806    6.4287 C.2       2 RES2    0.0000
     54 C48        6.2049   10.9414    5.5374 C.2       2 RES2    0.0000
     55 C49        7.8827   10.7562   10.4310 C.ar      2 RES2    0.0000
     56 C50        9.2380   10.4919   10.3048 C.ar      2 RES2    0.0000
     57 C51       10.1632   11.5243   10.3911 C.ar      2 RES2    0.0000
     58 C52        9.7560   12.8148   10.5973 C.ar      2 RES2    0.0000
     59 C53        8.4087   13.0963   10.7420 C.ar      2 RES2    0.0000
     60 C54        7.4745   12.0652   10.6741 C.ar      2 RES2    0.0000
     61 H1         6.0932    6.3117   18.1700 H         1 RES1    0.0000
     62 H2         5.0891    3.9826   15.6352 H         1 RES1    0.0000
     63 H3         6.1640    4.8619   14.8282 H         1 RES1    0.0000
     64 H4         6.6880    2.1660   15.6104 H         1 RES1    0.0000
     65 H5         7.6142    1.9524   13.5840 H         1 RES1    0.0000
     66 H6         7.2299    3.5022   13.2640 H         1 RES1    0.0000
     67 H7         7.0643    2.9478   17.7790 H         1 RES1    0.0000
     68 H8         5.5352    3.3899   18.0207 H         1 RES1    0.0000
     69 H9         4.9075    4.0715   20.0933 H         1 RES1    0.0000
     70 H10        5.3396    4.8656   22.2228 H         1 RES1    0.0000
     71 H11        7.5164    5.4127   22.8449 H         1 RES1    0.0000
     72 H12        9.2370    5.1805   21.2914 H         1 RES1    0.0000
     73 H13        8.7969    4.4025   19.1228 H         1 RES1    0.0000
     74 H14        3.8216    5.8449   18.7602 H         1 RES1    0.0000
     75 H15        1.5440    6.0104   18.2944 H         1 RES1    0.0000
     76 H16        0.8284    6.5043   16.1614 H         1 RES1    0.0000
     77 H17        2.3674    6.9403   14.4621 H         1 RES1    0.0000
     78 H18        4.6559    6.8390   14.9456 H         1 RES1    0.0000
     79 H19        5.9744    8.7161   17.1639 H         1 RES1    0.0000
     80 H20        7.6831    9.3570   18.6428 H         1 RES1    0.0000
     81 H21        7.1930    7.8973   18.9735 H         1 RES1    0.0000
     82 H22        8.5494    8.1085   18.1629 H         1 RES1    0.0000
     83 H23        5.6949   10.0177   15.2975 H         1 RES1    0.0000
     84 H24        6.5223   11.4613   13.6444 H         1 RES1    0.0000
     85 H25        8.7999   11.5959   13.2533 H         1 RES1    0.0000
     86 H26       10.2441   10.3770   14.6043 H         1 RES1    0.0000
     87 H27        9.4416    8.9458   16.2396 H         1 RES1    0.0000
     88 H28        8.0114    8.5444   12.3006 H         2 RES2    0.0000
     89 H29        6.3926    7.4108   13.4346 H         2 RES2    0.0000
     90 H30        5.6071    8.1702   12.2757 H         2 RES2    0.0000
     91 H31        5.9524    6.6291   12.1299 H         2 RES2    0.0000
     92 H32        8.3598    5.9955    9.9649 H         2 RES2    0.0000
     93 H33        9.7760    4.1333   10.1817 H         2 RES2    0.0000
     94 H34       10.6982    3.6270   12.2544 H         2 RES2    0.0000
     95 H35       10.3110    5.0484   14.0817 H         2 RES2    0.0000
     96 H36        8.9736    6.9217   13.8257 H         2 RES2    0.0000
     97 H37        6.1910    9.7682   11.0670 H         2 RES2    0.0000
     98 H38        4.8576   11.3045    9.1863 H         2 RES2    0.0000
     99 H39        4.2487   10.2251    8.1696 H         2 RES2    0.0000
    100 H40        4.2467   11.2748   11.5327 H         2 RES2    0.0000
    101 H41        2.8864   10.4561   13.2391 H         2 RES2    0.0000
    102 H42        1.5450    8.6197   12.8801 H         2 RES2    0.0000
    103 H43        1.5300    7.5824   10.7897 H         2 RES2    0.0000
    104 H44        2.9443    8.3406    9.0974 H         2 RES2    0.0000
    105 H45        7.1112   11.0562    7.9243 H         2 RES2    0.0000
    106 H46        7.6990    9.5830    7.7856 H         2 RES2    0.0000
    107 H47        5.8606    9.1471    6.2107 H         2 RES2    0.0000
    108 H48        6.5872   11.7873    5.7343 H         2 RES2    0.0000
    109 H49        5.7957   10.8117    4.7034 H         2 RES2    0.0000
    110 H50        9.5405    9.6015   10.1675 H         2 RES2    0.0000
    111 H51       11.0865   11.3304   10.2920 H         2 RES2    0.0000
    112 H52       10.3748   13.5076   10.6475 H         2 RES2    0.0000
    113 H53        8.1392   13.9991   10.8892 H         2 RES2    0.0000
    114 H54        6.5583   12.2418   10.7861 H         2 RES2    0.0000
@<TRIPOS>BOND
     1    1    2 1
     2    2    3 1
     3    3    4 1
     4    4    5 1
     5    5    1 1
     6    6    5 2
     7    7    4 1
     8    8    7 1
     9    9    8 2
    10   10    4 1
    11   11   10 1
    12   12   11 ar
    13   13   12 ar
    14   14   13 ar
    15   15   14 ar
    16   16   11 ar
    17   17    3 1
    18   18   17 ar
    19   19   18 ar
    20   20   19 ar
    21   21   20 ar
    22   22   17 ar
    23   23    2 1
    24   24   23 1
    25   25   23 1
    26   26   25 ar
    27   27   26 ar
    28   28   27 ar
    29   29   28 ar
    30   30   25 ar
    31   31   32 1
    32   32   33 1
    33   33   34 1
    34   34   89 1
    35   35   33 1
    36   36   35 ar
    37   37   36 ar
    38   38   37 ar
    39   39   38 ar
    40   40   35 ar
    41   41   32 1
    42   42   41 1
    43   43   31 1
    44   44   43 2
    45   45   42 1
    46   46   45 1
    47   47   46 ar
    48   48   47 ar
    49   49   48 ar
    50   50   49 ar
    51   51   46 ar
    52   52   42 1
    53   53   52 1
    54   54   53 2
    55   55   41 1
    56   56   55 ar
    57   57   56 ar
    58   58   57 ar
    59   59   58 ar
    60   60   55 ar
    61   61    3 1
    62   62    7 1
    63   63    7 1
    64   64    8 1
    65   65    9 1
    66   66    9 1
    67   67   10 1
    68   68   10 1
    69   69   12 1
    70   70   13 1
    71   71   14 1
    72   72   15 1
    73   73   16 1
    74   74   18 1
    75   75   19 1
    76   76   20 1
    77   77   21 1
    78   78   22 1
    79   79   23 1
    80   80   24 1
    81   81   24 1
    82   82   24 1
    83   83   26 1
    84   84   27 1
    85   85   28 1
    86   86   29 1
    87   87   30 1
    88   88   33 1
    89   90   34 1
    90   91   34 1
    91   92   36 1
    92   93   37 1
    93   94   38 1
    94   95   39 1
    95   96   40 1
    96   97   41 1
    97   98   45 1
    98   99   45 1
    99  100   47 1
   100  101   48 1
   101  102   49 1
   102  103   50 1
   103  104   51 1
   104  105   52 1
   105  106   52 1
   106  107   53 1
   107  108   54 1
   108  109   54 1
   109  110   56 1
   110  111   57 1
   111  112   58 1
   112  113   59 1
   113  114   60 1
   114   15   16 ar
   115   21   22 ar
   116   29   30 ar
   117   39   40 ar
   118   42   43 1
   119   50   51 ar
   120   59   60 ar
@<TRIPOS>SUBSTRUCTURE
     1 RES1 1
     2 RES2 31

@<TRIPOS>CRYSIN
   9.9806   12.3492   35.5508  90.0000  90.0000  90.0000  19 1

