# MOL2 file generated by ConQuest
# Please check atom types

@<TRIPOS>MOLECULE
MUWRIG
    35    37     1
SMALL
NO_CHARGES
****
Generated from CSD

@<TRIPOS>ATOM
      1 C1       -16.3595  -12.4079  -12.5807 C.3       1 RES1    0.0000
      2 C2       -15.7660  -12.4331  -13.9726 C.ar      1 RES1    0.0000
      3 C3       -15.7650  -13.3549  -16.2063 C.ar      1 RES1    0.0000
      4 C4       -14.0932  -12.6665  -17.8469 C.1       1 RES1    0.0000
      5 C5       -14.6487  -12.5854  -16.5110 C.ar      1 RES1    0.0000
      6 C6       -16.5074  -10.9884  -11.9635 C.3       1 RES1    0.0000
      7 C7       -14.6415  -11.6669  -14.2967 C.ar      1 RES1    0.0000
      8 O1       -14.0768  -12.5372   -9.6938 O.3       1 RES1    0.0000
      9 C8       -15.4251  -13.1455  -11.5933 C.3       1 RES1    0.0000
     10 C9       -15.3542  -10.8974  -11.0024 C.2       1 RES1    0.0000
     11 C10      -16.3164  -13.2793  -14.9320 C.ar      1 RES1    0.0000
     12 O2       -14.6332   -9.9609  -10.7722 O.2       1 RES1    0.0000
     13 C11      -15.3008  -12.2785  -10.3195 C.3       1 RES1    0.0000
     14 N1       -13.6845  -12.7509  -18.9108 N.1       1 RES1    0.0000
     15 C12      -17.8465  -12.0483  -10.0620 C.3       1 RES1    0.0000
     16 O3       -17.0239  -14.8913  -11.4287 O.2       1 RES1    0.0000
     17 C13      -14.0757  -11.7359  -15.5650 C.ar      1 RES1    0.0000
     18 C14      -16.5064  -12.3563   -9.3642 C.3       1 RES1    0.0000
     19 N2       -15.8574  -14.5606  -11.2787 N.pl3     1 RES1    0.0000
     20 C15      -17.7592  -10.8755  -11.0444 C.3       1 RES1    0.0000
     21 O4       -14.9701  -15.2906  -10.8510 O.2       1 RES1    0.0000
     22 H1       -16.4715  -13.2847   -8.8994 H         1 RES1    0.0000
     23 H2       -16.1634  -13.9314  -16.8620 H         1 RES1    0.0000
     24 H3       -14.2534  -11.0268  -13.6313 H         1 RES1    0.0000
     25 H4       -14.4896  -13.2409  -11.9980 H         1 RES1    0.0000
     26 H5       -14.1918  -12.4627   -8.8514 H         1 RES1    0.0000
     27 H6       -17.2108  -12.8682  -12.6105 H         1 RES1    0.0000
     28 H7       -13.2881  -11.2131  -15.7571 H         1 RES1    0.0000
     29 H8       -17.1390  -13.8547  -14.7363 H         1 RES1    0.0000
     30 H9       -18.5664  -11.8379   -9.3198 H         1 RES1    0.0000
     31 H10      -18.1556  -12.8573  -10.5087 H         1 RES1    0.0000
     32 H11      -16.4817  -10.2266  -12.6585 H         1 RES1    0.0000
     33 H12      -17.7140   -9.9416  -10.4967 H         1 RES1    0.0000
     34 H13      -18.6280  -10.8843  -11.6377 H         1 RES1    0.0000
     35 H14      -16.3277  -11.7173   -8.6472 H         1 RES1    0.0000
@<TRIPOS>BOND
     1    1    2 1
     2    2    7 ar
     3    3    5 ar
     4    4    5 1
     5    5   17 ar
     6    6    1 1
     7    7   17 ar
     8    8   13 1
     9    9    1 1
    10   10    6 1
    11   11    2 ar
    12   12   10 2
    13   13    9 1
    14   14    4 3
    15   15   18 1
    16   16   19 2
    17   17   28 1
    18   18   13 1
    19   19    9 1
    20   20    6 1
    21   21   19 2
    22   22   18 1
    23   23    3 1
    24   24    7 1
    25   25    9 1
    26   26    8 1
    27   27    1 1
    28   29   11 1
    29   30   15 1
    30   31   15 1
    31   32    6 1
    32   33   20 1
    33   34   20 1
    34   35   18 1
    35    3   11 ar
    36   10   13 1
    37   15   20 1
@<TRIPOS>SUBSTRUCTURE
     1 RES1 1

@<TRIPOS>CRYSIN
  10.2690   10.9610   12.0100  90.0000  90.0000  90.0000  19 1

