# MOL2 file generated by ConQuest
# Please check atom types

@<TRIPOS>MOLECULE
MUWZEL
    60    63     1
SMALL
USER_CHARGES
****
Generated from CSD

@<TRIPOS>ATOM
      1 O1         3.4168    7.3356    2.3895 O.3       1 RES1    0.0000
      2 O2         2.3402    9.9526    0.8523 O.2       1 RES1   -1.0000
      3 N1         3.4481    7.0735    3.7748 N.2       1 RES1    0.0000
      4 N2         3.4752    9.6541    0.6460 N.pl3     1 RES1    1.0000
      5 C1         5.3513    6.8527    8.3974 C.ar      1 RES1    0.0000
      6 H1         5.5011    6.7772    9.3126 H         1 RES1    0.0000
      7 C2         6.3404    6.5129    7.5052 C.ar      1 RES1    0.0000
      8 H2         7.1566    6.1961    7.8190 H         1 RES1    0.0000
      9 C3         6.1279    6.6399    6.1458 C.ar      1 RES1    0.0000
     10 H3         6.8074    6.4172    5.5507 H         1 RES1    0.0000
     11 C4         4.9036    7.0986    5.6562 C.ar      1 RES1    0.0000
     12 C5         3.9124    7.4352    6.5770 C.ar      1 RES1    0.0000
     13 H4         3.0917    7.7517    6.2753 H         1 RES1    0.0000
     14 C6         4.1373    7.3050    7.9309 C.ar      1 RES1    0.0000
     15 H5         3.4642    7.5252    8.5334 H         1 RES1    0.0000
     16 C7         4.6353    7.2485    4.2098 C.2       1 RES1    0.0000
     17 C8         5.6466    7.6156    3.1289 C.3       1 RES1    0.0000
     18 C9         4.6525    7.9920    2.0082 C.3       1 RES1    0.0000
     19 H6         4.9672    7.5984    1.1679 H         1 RES1    0.0000
     20 C10        4.4140    9.4349    1.7889 C.3       1 RES1    0.0000
     21 H7         5.2572    9.8774    1.6038 H         1 RES1    0.0000
     22 H8         4.0401    9.8264    2.5940 H         1 RES1    0.0000
     23 C11        6.3812    6.3557    2.6643 C.3       1 RES1    0.0000
     24 H9         6.8960    5.9982    3.3917 H         1 RES1    0.0000
     25 H10        6.9672    6.5766    1.9369 H         1 RES1    0.0000
     26 H11        5.7416    5.7012    2.3737 H         1 RES1    0.0000
     27 C12        6.6267    8.7099    3.5398 C.3       1 RES1    0.0000
     28 H12        6.1394    9.4711    3.8637 H         1 RES1    0.0000
     29 H13        7.1554    8.9675    2.7809 H         1 RES1    0.0000
     30 H14        7.2022    8.3793    4.2338 H         1 RES1    0.0000
     31 O1A        4.0386   11.9044   -2.3895 O.3       1 RES1    0.0000
     32 O2A        5.1151    9.2873   -0.8523 O.2       1 RES1   -1.0000
     33 N1A        4.0072   12.1665   -3.7748 N.2       1 RES1    0.0000
     34 N2A        3.9801    9.5858   -0.6460 N.pl3     1 RES1    1.0000
     35 C1A        2.1041   12.3873   -8.3974 C.ar      1 RES1    0.0000
     36 H1A        1.9542   12.4628   -9.3126 H         1 RES1    0.0000
     37 C2A        1.1150   12.7270   -7.5052 C.ar      1 RES1    0.0000
     38 H2A        0.2987   13.0438   -7.8190 H         1 RES1    0.0000
     39 C3A        1.3274   12.6001   -6.1458 C.ar      1 RES1    0.0000
     40 H3A        0.6479   12.8227   -5.5507 H         1 RES1    0.0000
     41 C4A        2.5517   12.1413   -5.6562 C.ar      1 RES1    0.0000
     42 C5A        3.5429   11.8048   -6.5770 C.ar      1 RES1    0.0000
     43 H4A        4.3636   11.4883   -6.2753 H         1 RES1    0.0000
     44 C6A        3.3181   11.9350   -7.9309 C.ar      1 RES1    0.0000
     45 H5A        3.9911   11.7148   -8.5334 H         1 RES1    0.0000
     46 C7A        2.8200   11.9915   -4.2098 C.2       1 RES1    0.0000
     47 C8A        1.8087   11.6244   -3.1289 C.3       1 RES1    0.0000
     48 C9A        2.8028   11.2480   -2.0082 C.3       1 RES1    0.0000
     49 H6A        2.4881   11.6415   -1.1679 H         1 RES1    0.0000
     50 C10A       3.0413    9.8051   -1.7889 C.3       1 RES1    0.0000
     51 H7A        2.1981    9.3626   -1.6038 H         1 RES1    0.0000
     52 H8A        3.4152    9.4136   -2.5940 H         1 RES1    0.0000
     53 C11A       1.0742   12.8843   -2.6643 C.3       1 RES1    0.0000
     54 H9A        0.5593   13.2418   -3.3917 H         1 RES1    0.0000
     55 H10A       0.4881   12.6633   -1.9369 H         1 RES1    0.0000
     56 H11A       1.7137   13.5387   -2.3737 H         1 RES1    0.0000
     57 C12A       0.8286   10.5301   -3.5398 C.3       1 RES1    0.0000
     58 H12A       1.3160    9.7689   -3.8637 H         1 RES1    0.0000
     59 H13A       0.3000   10.2725   -2.7809 H         1 RES1    0.0000
     60 H14A       0.2531   10.8607   -4.2338 H         1 RES1    0.0000
@<TRIPOS>BOND
     1    1    3 1
     2    2    4 1
     3    3   16 2
     4    4   20 1
     5    5    6 1
     6    7    5 ar
     7    8    7 1
     8    9    7 ar
     9   10    9 1
    10   11    9 ar
    11   12   11 ar
    12   13   12 1
    13   14    5 ar
    14   15   14 1
    15   16   11 1
    16   17   16 1
    17   18    1 1
    18   19   18 1
    19   20   18 1
    20   21   20 1
    21   22   20 1
    22   23   17 1
    23   24   23 1
    24   25   23 1
    25   26   23 1
    26   27   17 1
    27   28   27 1
    28   29   27 1
    29   30   27 1
    30   31   33 1
    31   32   34 1
    32   33   46 2
    33   34    4 2
    34   35   36 1
    35   37   35 ar
    36   38   37 1
    37   39   37 ar
    38   40   39 1
    39   41   39 ar
    40   42   41 ar
    41   43   42 1
    42   44   35 ar
    43   45   44 1
    44   46   41 1
    45   47   46 1
    46   48   31 1
    47   49   48 1
    48   50   34 1
    49   51   50 1
    50   52   50 1
    51   53   47 1
    52   54   53 1
    53   55   53 1
    54   56   53 1
    55   57   47 1
    56   58   57 1
    57   59   57 1
    58   60   57 1
    59   12   14 ar
    60   17   18 1
    61   42   44 ar
    62   47   48 1
    63   48   50 1
@<TRIPOS>SUBSTRUCTURE
     1 RES1 1

@<TRIPOS>CRYSIN
   6.2135    9.6400    9.6920  85.7890  73.0200  86.3070   2 1

