# MOL2 file generated by ConQuest
# Please check atom types

@<TRIPOS>MOLECULE
MUWZOV
    46    49     1
SMALL
NO_CHARGES
****
Generated from CSD

@<TRIPOS>ATOM
      1 O1         2.4617    6.5313    4.4315 O.3       1 RES1    0.0000
      2 O2        -0.5129    4.9054    1.2991 O.3       1 RES1    0.0000
      3 H1        -0.7092    4.7971    0.4661 H         1 RES1    0.0000
      4 N1         1.8349    5.2495    4.5993 N.3       1 RES1    0.0000
      5 N2         0.6059    4.0451    1.3540 N.2       1 RES1    0.0000
      6 C1         1.1592    5.3178    5.9148 C.3       1 RES1    0.0000
      7 C2         2.1523    5.0293    7.0600 C.3       1 RES1    0.0000
      8 H2         1.7353    4.4770    7.7398 H         1 RES1    0.0000
      9 H3         2.9354    4.5681    6.7215 H         1 RES1    0.0000
     10 C3         2.5403    6.3814    7.6389 C.3       1 RES1    0.0000
     11 H4         2.7976    6.3015    8.5704 H         1 RES1    0.0000
     12 H5         3.2728    6.7772    7.1407 H         1 RES1    0.0000
     13 C4         1.2734    7.1997    7.4898 C.3       1 RES1    0.0000
     14 H6         1.4598    8.1494    7.5536 H         1 RES1    0.0000
     15 H7         0.6187    6.9594    8.1653 H         1 RES1    0.0000
     16 C5         0.7855    6.8272    6.0916 C.3       1 RES1    0.0000
     17 H8        -0.1801    6.9691    5.9988 H         1 RES1    0.0000
     18 C6         1.5532    7.5077    4.9786 C.3       1 RES1    0.0000
     19 H9         0.9441    7.8221    4.2922 H         1 RES1    0.0000
     20 H10        2.0458    8.2680    5.3262 H         1 RES1    0.0000
     21 C7         0.0044    4.3093    5.7484 C.3       1 RES1    0.0000
     22 C8        -0.4652    4.6036    4.3185 C.3       1 RES1    0.0000
     23 H11       -1.1446    5.2962    4.3173 H         1 RES1    0.0000
     24 H12       -0.8340    3.8054    3.9090 H         1 RES1    0.0000
     25 C9         0.7910    5.0733    3.5600 C.3       1 RES1    0.0000
     26 H13        0.6024    5.9468    3.1582 H         1 RES1    0.0000
     27 C10        1.2327    4.1273    2.4655 C.2       1 RES1    0.0000
     28 C11        2.3929    3.2059    2.5716 C.ar      1 RES1    0.0000
     29 C12        2.2290    1.8584    2.2778 C.ar      1 RES1    0.0000
     30 H14        1.3869    1.5319    2.0585 H         1 RES1    0.0000
     31 C13        3.3147    0.9989    2.3097 C.ar      1 RES1    0.0000
     32 H15        3.1970    0.0935    2.1336 H         1 RES1    0.0000
     33 C14        4.5746    1.4891    2.6046 C.ar      1 RES1    0.0000
     34 H16        5.3067    0.9151    2.6076 H         1 RES1    0.0000
     35 C15        4.7469    2.8178    2.8927 C.ar      1 RES1    0.0000
     36 H17        5.5950    3.1427    3.0909 H         1 RES1    0.0000
     37 C16        3.6649    3.6772    2.8894 C.ar      1 RES1    0.0000
     38 H18        3.7869    4.5746    3.1003 H         1 RES1    0.0000
     39 C17       -1.1264    4.4851    6.7700 C.3       1 RES1    0.0000
     40 H19       -1.5027    5.3639    6.6824 H         1 RES1    0.0000
     41 H20       -0.7768    4.3738    7.6569 H         1 RES1    0.0000
     42 H21       -1.8079    3.8280    6.6104 H         1 RES1    0.0000
     43 C18        0.5299    2.8750    5.8296 C.3       1 RES1    0.0000
     44 H22       -0.1616    2.2647    5.5640 H         1 RES1    0.0000
     45 H23        0.7980    2.6824    6.7309 H         1 RES1    0.0000
     46 H24        1.2844    2.7767    5.2433 H         1 RES1    0.0000
@<TRIPOS>BOND
     1    1    4 1
     2    2    3 1
     3    4    6 1
     4    5    2 1
     5    6    7 1
     6    7    8 1
     7    9    7 1
     8   10    7 1
     9   11   10 1
    10   12   10 1
    11   13   10 1
    12   14   13 1
    13   15   13 1
    14   16    6 1
    15   17   16 1
    16   18    1 1
    17   19   18 1
    18   20   18 1
    19   21    6 1
    20   22   21 1
    21   23   22 1
    22   24   22 1
    23   25    4 1
    24   26   25 1
    25   27    5 2
    26   28   27 1
    27   29   28 ar
    28   30   29 1
    29   31   29 ar
    30   32   31 1
    31   33   31 ar
    32   34   33 1
    33   35   33 ar
    34   36   35 1
    35   37   28 ar
    36   38   37 1
    37   39   21 1
    38   40   39 1
    39   41   39 1
    40   42   39 1
    41   43   21 1
    42   44   43 1
    43   45   43 1
    44   46   43 1
    45   13   16 1
    46   16   18 1
    47   22   25 1
    48   25   27 1
    49   35   37 ar
@<TRIPOS>SUBSTRUCTURE
     1 RES1 1

@<TRIPOS>CRYSIN
  13.2223    8.0624   16.5867  90.0000 109.4280  90.0000  14 1

