# MOL2 file generated by ConQuest
# Please check atom types

@<TRIPOS>MOLECULE
MUXCIR01
    50    52     1
SMALL
USER_CHARGES
****
Generated from CSD

@<TRIPOS>ATOM
      1 O1         3.9548    3.9982    4.4351 O.2       1 RES1    0.0000
      2 O2         6.7865    2.4141    1.1668 O.2       1 RES1   -1.0000
      3 O3         7.9635    8.5304    3.2902 O.3       1 RES1    0.0000
      4 O4         5.7289   10.8292    1.5993 O.2       1 RES1    0.0000
      5 O5         3.8133    4.8101    1.1396 O.3       1 RES1    0.0000
      6 N1         4.5107    3.2033    3.5973 N.3       1 RES1    0.0000
      7 N2         5.8646    2.4654    2.0466 N.pl3     1 RES1    1.0000
      8 C1         6.1241    4.8611    2.7007 C.ar      1 RES1    0.0000
      9 C2         7.3212    4.9427    3.3612 C.ar      1 RES1    0.0000
     10 H1         7.7031    4.1642    3.6968 H         1 RES1    0.0000
     11 C3         7.9842    6.1491    3.5461 C.ar      1 RES1    0.0000
     12 H2         8.7997    6.1685    3.9925 H         1 RES1    0.0000
     13 C4         7.4377    7.3012    3.0719 C.ar      1 RES1    0.0000
     14 C5         5.6534    8.4796    1.7500 C.ar      1 RES1    0.0000
     15 C6         4.4615    8.3962    1.0965 C.ar      1 RES1    0.0000
     16 H3         4.0775    9.1776    0.7709 H         1 RES1    0.0000
     17 C7         3.7968    7.2013    0.8951 C.ar      1 RES1    0.0000
     18 H4         2.9829    7.1885    0.4453 H         1 RES1    0.0000
     19 C8         4.3444    6.0354    1.3634 C.ar      1 RES1    0.0000
     20 C9         5.5562    6.0431    2.1265 C.ar      1 RES1    0.0000
     21 C10        6.2341    7.2870    2.3028 C.ar      1 RES1    0.0000
     22 C11        5.4725    3.5420    2.7242 C.2       1 RES1    0.0000
     23 C12        4.9910    1.2788    2.3230 C.3       1 RES1    0.0000
     24 C13        4.2833    1.7205    3.6336 C.3       1 RES1    0.0000
     25 C14        9.0757    8.6436    4.1869 C.3       1 RES1    0.0000
     26 H5         9.3438    9.5626    4.2502 H         1 RES1    0.0000
     27 H6         9.8082    8.1193    3.8556 H         1 RES1    0.0000
     28 H7         8.8204    8.3233    5.0556 H         1 RES1    0.0000
     29 C15        6.3129    9.7987    1.7109 C.2       1 RES1    0.0000
     30 H8         7.2401    9.8253    1.7765 H         1 RES1    0.0000
     31 C16        2.6448    4.7349    0.3072 C.3       1 RES1    0.0000
     32 H9         2.3658    3.8199    0.2278 H         1 RES1    0.0000
     33 H10        2.8495    5.0822   -0.5638 H         1 RES1    0.0000
     34 H11        1.9377    5.2531    0.6995 H         1 RES1    0.0000
     35 C17        4.0454    1.1674    1.1230 C.3       1 RES1    0.0000
     36 H12        4.5411    0.8900    0.3486 H         1 RES1    0.0000
     37 H13        3.6414    2.0222    0.9527 H         1 RES1    0.0000
     38 H14        3.3606    0.5228    1.3128 H         1 RES1    0.0000
     39 C18        5.8575    0.0334    2.4289 C.3       1 RES1    0.0000
     40 H15        6.4351    0.1097    3.1928 H         1 RES1    0.0000
     41 H16        6.3883   -0.0561    1.6350 H         1 RES1    0.0000
     42 H17        5.2969   -0.7395    2.5278 H         1 RES1    0.0000
     43 C19        4.9662    1.2197    4.8899 C.3       1 RES1    0.0000
     44 H18        4.4824    1.5249    5.6608 H         1 RES1    0.0000
     45 H19        5.8643    1.5555    4.9210 H         1 RES1    0.0000
     46 H20        4.9835    0.2601    4.8830 H         1 RES1    0.0000
     47 C20        2.7917    1.4324    3.7026 C.3       1 RES1    0.0000
     48 H21        2.4440    1.7442    4.5413 H         1 RES1    0.0000
     49 H22        2.6448    0.4871    3.6266 H         1 RES1    0.0000
     50 H23        2.3452    1.8845    2.9823 H         1 RES1    0.0000
@<TRIPOS>BOND
     1    1    6 1
     2    2    7 1
     3    3   13 1
     4    4   29 2
     5    5   19 1
     6    6   22 1
     7    7   22 2
     8    8    9 ar
     9    9   10 1
    10   11    9 ar
    11   12   11 1
    12   13   11 ar
    13   14   15 ar
    14   15   16 1
    15   17   15 ar
    16   18   17 1
    17   19   17 ar
    18   20    8 ar
    19   21   13 ar
    20   22    8 1
    21   23    7 1
    22   24    6 1
    23   25    3 1
    24   26   25 1
    25   27   25 1
    26   28   25 1
    27   29   14 1
    28   30   29 1
    29   31    5 1
    30   32   31 1
    31   33   31 1
    32   34   31 1
    33   35   23 1
    34   36   35 1
    35   37   35 1
    36   38   35 1
    37   39   23 1
    38   40   39 1
    39   41   39 1
    40   42   39 1
    41   43   24 1
    42   44   43 1
    43   45   43 1
    44   46   43 1
    45   47   24 1
    46   48   47 1
    47   49   47 1
    48   50   47 1
    49   14   21 ar
    50   19   20 ar
    51   20   21 ar
    52   23   24 1
@<TRIPOS>SUBSTRUCTURE
     1 RES1 1

@<TRIPOS>CRYSIN
   6.4253   25.5003   11.5497  90.0000  95.0000  90.0000 231 1

