# MOL2 file generated by ConQuest
# Please check atom types

@<TRIPOS>MOLECULE
MUXNEZ
    41    44     1
SMALL
NO_CHARGES
****
Generated from CSD

@<TRIPOS>ATOM
      1 O1        -0.6360    0.5364   10.8285 O.2       1 RES1    0.0000
      2 O2         3.7892   -3.1355   16.5679 O.2       1 RES1    0.0000
      3 O3         5.6632   -2.0642   16.5564 O.2       1 RES1    0.0000
      4 N1         1.6763    0.4043   10.9403 N.am      1 RES1    0.0000
      5 N2         2.0999    2.2540   12.2871 N.3       1 RES1    0.0000
      6 N3         4.5451   -2.2732   16.1340 N.pl3     1 RES1    0.0000
      7 C1         0.4416    0.8869   11.2756 C.2       1 RES1    0.0000
      8 C2         0.6618    1.9527   12.3398 C.3       1 RES1    0.0000
      9 C3        -0.0821    3.2634   12.0737 C.3       1 RES1    0.0000
     10 H1        -0.7532    3.1449   11.3828 H         1 RES1    0.0000
     11 H2        -0.5157    3.5842   12.8805 H         1 RES1    0.0000
     12 C4         0.9853    4.2236   11.6231 C.3       1 RES1    0.0000
     13 H3         1.1761    4.8720   12.3198 H         1 RES1    0.0000
     14 H4         0.7025    4.6972   10.8253 H         1 RES1    0.0000
     15 C5         2.2055    3.3807   11.3341 C.3       1 RES1    0.0000
     16 H5         2.1968    3.0613   10.4174 H         1 RES1    0.0000
     17 H6         3.0194    3.8860   11.4836 H         1 RES1    0.0000
     18 C6         2.7152    1.0192   11.7910 C.3       1 RES1    0.0000
     19 C7         3.1353    0.1312   12.9471 C.ar      1 RES1    0.0000
     20 C8         4.3123    0.4397   13.6109 C.ar      1 RES1    0.0000
     21 H7         4.7999    1.1878   13.3497 H         1 RES1    0.0000
     22 C9         4.7726   -0.3396   14.6488 C.ar      1 RES1    0.0000
     23 H8         5.5705   -0.1330   15.0805 H         1 RES1    0.0000
     24 C10        4.0341   -1.4195   15.0295 C.ar      1 RES1    0.0000
     25 C11        2.8539   -1.7411   14.4312 C.ar      1 RES1    0.0000
     26 H9         2.3543   -2.4666   14.7309 H         1 RES1    0.0000
     27 C12        2.4110   -0.9686   13.3683 C.ar      1 RES1    0.0000
     28 H10        1.6191   -1.1922   12.9356 H         1 RES1    0.0000
     29 C13        1.9720   -0.5948    9.9787 C.ar      1 RES1    0.0000
     30 C14        3.2509   -1.1325    9.9255 C.ar      1 RES1    0.0000
     31 H11        3.9000   -0.8516   10.5292 H         1 RES1    0.0000
     32 C15        3.5571   -2.0879    8.9722 C.ar      1 RES1    0.0000
     33 H12        4.4110   -2.4562    8.9497 H         1 RES1    0.0000
     34 C16        2.6198   -2.5003    8.0595 C.ar      1 RES1    0.0000
     35 H13        2.8373   -3.1360    7.4158 H         1 RES1    0.0000
     36 C17        1.3616   -1.9655    8.1061 C.ar      1 RES1    0.0000
     37 H14        0.7252   -2.2396    7.4851 H         1 RES1    0.0000
     38 C18        1.0207   -1.0252    9.0592 C.ar      1 RES1    0.0000
     39 H15        0.1568   -0.6813    9.0867 H         1 RES1    0.0000
     40 H16        0.4136    1.5926   13.2238 H         1 RES1    0.0000
     41 H17        3.5224    1.1803   11.2489 H         1 RES1    0.0000
@<TRIPOS>BOND
     1    1    7 2
     2    2    6 2
     3    3    6 2
     4    4    7 1
     5    5    8 1
     6    6   24 1
     7    7    8 1
     8    8    9 1
     9    9   10 1
    10   11    9 1
    11   12    9 1
    12   13   12 1
    13   14   12 1
    14   15    5 1
    15   16   15 1
    16   17   15 1
    17   18    4 1
    18   19   18 1
    19   20   19 ar
    20   21   20 1
    21   22   20 ar
    22   23   22 1
    23   24   22 ar
    24   25   24 ar
    25   26   25 1
    26   27   19 ar
    27   28   27 1
    28   29    4 1
    29   30   29 ar
    30   31   30 1
    31   32   30 ar
    32   33   32 1
    33   34   32 ar
    34   35   34 1
    35   36   34 ar
    36   37   36 1
    37   38   29 ar
    38   39   38 1
    39   40    8 1
    40   41   18 1
    41    5   18 1
    42   12   15 1
    43   25   27 ar
    44   36   38 ar
@<TRIPOS>SUBSTRUCTURE
     1 RES1 1

@<TRIPOS>CRYSIN
   6.6712   14.9403   15.7482  90.0000  90.0000  90.0000  19 1

