# MOL2 file generated by ConQuest
# Please check atom types

@<TRIPOS>MOLECULE
MUXVOS
    54    43     2
SMALL
NO_CHARGES
****
Generated from CSD

@<TRIPOS>ATOM
      1 O1         5.3326    6.9214    9.9181 O.2       1 RES1    0.0000
      2 O2         6.2295    7.5012    8.0553 O.2       1 RES1    0.0000
      3 O3         8.5771    2.0333    6.0996 O.2       1 RES1    0.0000
      4 O4         8.7084    4.0967    5.4846 O.2       1 RES1    0.0000
      5 N1         6.3993    3.0384    9.3496 N.3       1 RES1    0.0000
      6 N2         5.9231    6.6445    8.8616 N.pl3     1 RES1    0.0000
      7 N3         8.2932    3.2189    6.2158 N.pl3     1 RES1    0.0000
      8 C1         6.0141    4.3514    9.5033 C.2       1 RES1    0.0000
      9 C2         6.2546    5.2873    8.5648 C.2       1 RES1    0.0000
     10 C3         6.8270    5.0155    7.2044 C.3       1 RES1    0.0000
     11 C4         7.4001    3.6202    7.2830 C.2       1 RES1    0.0000
     12 C5         7.1325    2.7375    8.2430 C.2       1 RES1    0.0000
     13 C6         5.7676    5.1268    6.1032 C.ar      1 RES1    0.0000
     14 C7         5.9742    5.9173    4.9912 C.ar      1 RES1    0.0000
     15 C8         4.9854    5.9965    4.0187 C.ar      1 RES1    0.0000
     16 C9         3.7846    5.3224    4.1367 C.ar      1 RES1    0.0000
     17 C10        3.6071    4.5240    5.2361 C.ar      1 RES1    0.0000
     18 C11        4.5716    4.4277    6.2158 C.ar      1 RES1    0.0000
     19 C12        2.7040    5.4308    3.0855 C.3       1 RES1    0.0000
     20 C13        5.9679    1.9932   10.3847 C.3       1 RES1    0.0000
     21 C14        6.5145    0.6510    9.9735 C.3       1 RES1    0.0000
     22 C15        4.4631    2.0052   10.3525 C.3       1 RES1    0.0000
     23 C16        6.5130    2.4446   11.6950 C.3       1 RES1    0.0000
     24 H1         5.5733    4.6012   10.2828 H         1 RES1    0.0000
     25 H2         7.5502    5.6525    7.0238 H         1 RES1    0.0000
     26 H3         7.4639    1.8728    8.1518 H         1 RES1    0.0000
     27 H4         6.7678    6.3918    4.8947 H         1 RES1    0.0000
     28 H5         5.1359    6.5191    3.2643 H         1 RES1    0.0000
     29 H6         2.8194    4.0365    5.3237 H         1 RES1    0.0000
     30 H7         4.4202    3.8890    6.9595 H         1 RES1    0.0000
     31 H8         1.8440    5.4579    3.5110 H         1 RES1    0.0000
     32 H9         2.7487    4.6704    2.5010 H         1 RES1    0.0000
     33 H10        2.8338    6.2343    2.5761 H         1 RES1    0.0000
     34 H11        6.1357    0.3952    9.1297 H         1 RES1    0.0000
     35 H12        6.2862   -0.0040   10.6385 H         1 RES1    0.0000
     36 H13        7.4697    0.7052    9.8931 H         1 RES1    0.0000
     37 H14        4.1585    1.7073    9.4926 H         1 RES1    0.0000
     38 H15        4.1469    2.8970   10.5134 H         1 RES1    0.0000
     39 H16        4.1245    1.4184   11.0336 H         1 RES1    0.0000
     40 H17        7.4721    2.4155   11.6700 H         1 RES1    0.0000
     41 H18        6.1936    1.8658   12.3905 H         1 RES1    0.0000
     42 H19        6.2258    3.3443   11.8684 H         1 RES1    0.0000
     43 C17        5.0877    0.9570    9.6714 Du        2 SUP2    0.0000
     44 C18        5.2532    2.5208   11.6110 Du        2 SUP2    0.0000
     45 C19        7.2261    1.2639   10.9102 Du        2 SUP2    0.0000
     46 H20        5.5482    0.6209    8.8991 Du        2 SUP2    0.0000
     47 H21        4.2639    1.3692    9.3997 Du        2 SUP2    0.0000
     48 H22        4.8975    0.2317   10.2720 Du        2 SUP2    0.0000
     49 H23        5.8147    3.1527   12.0633 Du        2 SUP2    0.0000
     50 H24        5.0506    1.7915   12.2010 Du        2 SUP2    0.0000
     51 H25        4.4360    2.9511   11.3447 Du        2 SUP2    0.0000
     52 H26        7.6944    0.8627   10.1755 Du        2 SUP2    0.0000
     53 H27        6.9638    0.5818   11.5342 Du        2 SUP2    0.0000
     54 H28        7.8017    1.8939   11.3500 Du        2 SUP2    0.0000
@<TRIPOS>BOND
     1    1    6 2
     2    2    6 2
     3    3    7 2
     4    4    7 2
     5    5    8 1
     6    6    9 1
     7    7   11 1
     8    8    9 2
     9    9   10 1
    10   10   11 1
    11   11   12 2
    12   12    5 1
    13   13   10 1
    14   14   13 ar
    15   15   14 ar
    16   16   15 ar
    17   17   16 ar
    18   18   13 ar
    19   19   16 1
    20   20    5 1
    21   21   20 1
    22   22   20 1
    23   23   20 1
    24   24    8 1
    25   25   10 1
    26   26   12 1
    27   27   14 1
    28   28   15 1
    29   29   17 1
    30   30   18 1
    31   31   19 1
    32   32   19 1
    33   33   19 1
    34   34   21 1
    35   35   21 1
    36   36   21 1
    37   37   22 1
    38   38   22 1
    39   39   22 1
    40   40   23 1
    41   41   23 1
    42   42   23 1
    43   17   18 ar
@<TRIPOS>SUBSTRUCTURE
     1 RES1 1
     2 SUP2 43

@<TRIPOS>CRYSIN
   8.7980   10.0310   17.9250  90.0000  94.2000  90.0000  14 1

