# MOL2 file generated by ConQuest
# Please check atom types

@<TRIPOS>MOLECULE
MUYCEO
    24    25     1
SMALL
NO_CHARGES
****
Generated from CSD

@<TRIPOS>ATOM
      1 C1         0.7140   12.3333    3.4380 C.ar      1 RES1    0.0000
      2 C2         0.6862   12.3069    2.0453 C.ar      1 RES1    0.0000
      3 H1         0.4038   11.5397    1.6033 H         1 RES1    0.0000
      4 C3         1.0769   13.4181    1.3174 C.ar      1 RES1    0.0000
      5 H2         1.0462   13.3945    0.3884 H         1 RES1    0.0000
      6 C4         1.5078   14.5532    1.9532 C.ar      1 RES1    0.0000
      7 H3         1.7814   15.2892    1.4555 H         1 RES1    0.0000
      8 C5         1.5342   14.6003    3.3280 C.ar      1 RES1    0.0000
      9 H4         1.8275   15.3705    3.7583 H         1 RES1    0.0000
     10 C6         1.1252   13.5028    4.0800 C.ar      1 RES1    0.0000
     11 C7         1.1428   13.6197    5.5599 C.2       1 RES1    0.0000
     12 C8         0.8377   12.4578    6.3573 C.2       1 RES1    0.0000
     13 C9         0.4565   11.3252    5.7424 C.2       1 RES1    0.0000
     14 C10        0.3307   11.1891    4.2831 C.2       1 RES1    0.0000
     15 C11        0.9174   12.5535    7.8539 C.3       1 RES1    0.0000
     16 H5         0.2166   12.0274    8.2469 H         1 RES1    0.0000
     17 H6         0.8165   13.4713    8.1214 H         1 RES1    0.0000
     18 H7         1.7690   12.2254    8.1507 H         1 RES1    0.0000
     19 N1        -0.1375   10.0115    3.9729 N.2       1 RES1    0.0000
     20 O1         1.4105   14.7023    6.1053 O.2       1 RES1    0.0000
     21 O2        -0.3153    9.7598    2.6451 O.3       1 RES1    0.0000
     22 H8        -0.6504    9.0169    2.5502 H         1 RES1    0.0000
     23 O3         0.1449   10.2375    6.4874 O.3       1 RES1    0.0000
     24 H9        -0.0263    9.6065    5.9923 H         1 RES1    0.0000
@<TRIPOS>BOND
     1    1    2 ar
     2    2    3 1
     3    4    2 ar
     4    5    4 1
     5    6    4 ar
     6    7    6 1
     7    8    6 ar
     8    9    8 1
     9   10    1 ar
    10   11   10 1
    11   12   11 1
    12   13   12 2
    13   14    1 1
    14   15   12 1
    15   16   15 1
    16   17   15 1
    17   18   15 1
    18   19   14 2
    19   20   11 2
    20   21   19 1
    21   22   21 1
    22   23   13 1
    23   24   23 1
    24    8   10 ar
    25   13   14 1
@<TRIPOS>SUBSTRUCTURE
     1 RES1 1

@<TRIPOS>CRYSIN
   7.3160   14.7793   17.1846  90.0000  90.0000  90.0000  61 1

