# MOL2 file generated by ConQuest
# Please check atom types

@<TRIPOS>MOLECULE
MUYCAK
   112   118     2
SMALL
NO_CHARGES
****
Generated from CSD

@<TRIPOS>ATOM
      1 O1         5.8581    6.8754   15.2230 O.2       1 RES1    0.0000
      2 O2         4.2435    6.1549   14.0830 O.2       1 RES1    0.0000
      3 O3        10.4007    4.3659   10.7559 O.2       1 RES1    0.0000
      4 O4         8.7341    3.9214    9.3618 O.3       1 RES1    0.0000
      5 N1         5.4285    6.2900   14.2656 N.pl3     1 RES1    0.0000
      6 C1         9.6835    3.4550    8.3477 C.3       1 RES1    0.0000
      7 H1        10.5077    3.9792    8.4361 H         1 RES1    0.0000
      8 C2         9.0933    3.7339    6.9980 C.3       1 RES1    0.0000
      9 H2         8.7913    4.6651    6.9638 H         1 RES1    0.0000
     10 C3         7.9315    2.8217    6.7112 C.3       1 RES1    0.0000
     11 H3         7.6600    2.9237    5.7867 H         1 RES1    0.0000
     12 H4         7.1803    3.0664    7.2748 H         1 RES1    0.0000
     13 C4         8.3156    1.3615    6.9752 C.3       1 RES1    0.0000
     14 C5         9.8215    1.3264    7.1121 C.3       1 RES1    0.0000
     15 H5        10.1126    0.3909    7.1392 H         1 RES1    0.0000
     16 C6        10.0430    1.9598    8.5075 C.3       1 RES1    0.0000
     17 C7        10.5619    2.0350    5.9893 C.3       1 RES1    0.0000
     18 H6        10.3113    1.6438    5.1376 H         1 RES1    0.0000
     19 H7        11.5174    1.9173    6.1063 H         1 RES1    0.0000
     20 C8        10.2238    3.5314    5.9879 C.3       1 RES1    0.0000
     21 H8        11.0087    4.0005    6.3403 H         1 RES1    0.0000
     22 C9         9.0150    1.2264    9.3207 C.3       1 RES1    0.0000
     23 H9         9.3881    0.4001    9.6645 H         1 RES1    0.0000
     24 H10        8.7318    1.7715   10.0711 H         1 RES1    0.0000
     25 C10        7.8792    0.9415    8.4490 C.3       1 RES1    0.0000
     26 H11        7.1025    1.4502    8.7286 H         1 RES1    0.0000
     27 H12        7.6585   -0.0022    8.4789 H         1 RES1    0.0000
     28 C11        9.9719    4.0818    4.5640 C.3       1 RES1    0.0000
     29 H13        9.2637    3.5497    4.1446 H         1 RES1    0.0000
     30 C12       11.2416    3.9434    3.7294 C.3       1 RES1    0.0000
     31 H14       11.0837    4.2875    2.8477 H         1 RES1    0.0000
     32 H15       11.4885    3.0175    3.6738 H         1 RES1    0.0000
     33 H16       11.9525    4.4395    4.1432 H         1 RES1    0.0000
     34 C13        9.5189    5.5382    4.6154 C.3       1 RES1    0.0000
     35 H17        9.3686    5.8585    3.7237 H         1 RES1    0.0000
     36 H18       10.1983    6.0704    5.0363 H         1 RES1    0.0000
     37 H19        8.7044    5.6020    5.1205 H         1 RES1    0.0000
     38 C14       11.4750    1.8085    9.0339 C.3       1 RES1    0.0000
     39 H20       11.5435    2.2205    9.8985 H         1 RES1    0.0000
     40 H21       12.0856    2.2332    8.4276 H         1 RES1    0.0000
     41 H22       11.6926    0.8760    9.1067 H         1 RES1    0.0000
     42 C15        7.7662    0.4440    5.8837 C.3       1 RES1    0.0000
     43 H23        8.0685    0.7506    5.0263 H         1 RES1    0.0000
     44 H24        6.8068    0.4558    5.9094 H         1 RES1    0.0000
     45 H25        8.0793   -0.4520    6.0321 H         1 RES1    0.0000
     46 C16        9.2236    4.3415   10.5205 C.2       1 RES1    0.0000
     47 C17        8.1817    4.7973   11.4650 C.ar      1 RES1    0.0000
     48 C18        6.8482    4.8077   11.1768 C.ar      1 RES1    0.0000
     49 H26        6.5589    4.4910   10.3522 H         1 RES1    0.0000
     50 C19        5.9206    5.2781   12.0842 C.ar      1 RES1    0.0000
     51 H27        5.0127    5.2883   11.8816 H         1 RES1    0.0000
     52 C20        6.3835    5.7334   13.3040 C.ar      1 RES1    0.0000
     53 C21        7.7068    5.7112   13.6236 C.ar      1 RES1    0.0000
     54 H28        7.9882    6.0148   14.4568 H         1 RES1    0.0000
     55 C22        8.6204    5.2451   12.7248 C.ar      1 RES1    0.0000
     56 H29        9.5241    5.2229   12.9417 H         1 RES1    0.0000
     57 O5         1.3273   -3.2488    7.7698 O.2       2 RES2    0.0000
     58 O6         2.9148   -4.0570    6.6570 O.2       2 RES2    0.0000
     59 O7         7.4654   -1.7097   11.2724 O.2       2 RES2    0.0000
     60 O8         5.7274   -1.2408   12.6048 O.3       2 RES2    0.0000
     61 N2         2.4966   -3.4203    7.6143 N.pl3     2 RES2    0.0000
     62 C23        6.6404   -0.7848   13.6636 C.3       2 RES2    0.0000
     63 H30        7.4478   -1.3403   13.6479 H         2 RES2    0.0000
     64 C24        5.9069   -1.0215   14.9719 C.3       2 RES2    0.0000
     65 H31        5.6122   -1.9543   15.0247 H         2 RES2    0.0000
     66 C25        4.7068   -0.0925   15.0760 C.3       2 RES2    0.0000
     67 H32        4.3581   -0.1128   15.9805 H         2 RES2    0.0000
     68 H33        4.0083   -0.3964   14.4768 H         2 RES2    0.0000
     69 C26        5.1064    1.3471   14.7122 C.3       2 RES2    0.0000
     70 C27        6.6318    1.4116   14.8049 C.3       2 RES2    0.0000
     71 H34        6.9172    2.3478   14.7607 H         2 RES2    0.0000
     72 C28        7.0509    0.6952   13.5109 C.3       2 RES2    0.0000
     73 C29        7.1890    0.7791   16.0776 C.3       2 RES2    0.0000
     74 H35        6.7683    1.1851   16.8508 H         2 RES2    0.0000
     75 H36        8.1422    0.9454   16.1304 H         2 RES2    0.0000
     76 C30        6.9316   -0.7305   16.0876 C.3       2 RES2    0.0000
     77 H37        7.7693   -1.1749   15.8407 H         2 RES2    0.0000
     78 C31        6.1804    1.4348   12.5008 C.3       2 RES2    0.0000
     79 H38        6.5817    2.2848   12.2597 H         2 RES2    0.0000
     80 H39        6.0650    0.9050   11.6961 H         2 RES2    0.0000
     81 C32        4.8542    1.6482   13.1928 C.3       2 RES2    0.0000
     82 H40        4.1819    1.0476   12.8332 H         2 RES2    0.0000
     83 H41        4.5507    2.5622   13.0715 H         2 RES2    0.0000
     84 C33        6.5318   -1.2385   17.4772 C.3       2 RES2    0.0000
     85 H42        5.7610   -0.7170   17.7839 H         2 RES2    0.0000
     86 C34        6.1337   -2.6975   17.4501 C.3       2 RES2    0.0000
     87 H43        5.8901   -2.9800   18.3346 H         2 RES2    0.0000
     88 H44        6.8723   -3.2254   17.1376 H         2 RES2    0.0000
     89 H45        5.3852   -2.8145   16.8594 H         2 RES2    0.0000
     90 C35        7.6733   -1.0242   18.4630 C.3       2 RES2    0.0000
     91 H46        7.4117   -1.3460   19.3290 H         2 RES2    0.0000
     92 H47        7.8775   -0.0880   18.5172 H         2 RES2    0.0000
     93 H48        8.4488   -1.5045   18.1648 H         2 RES2    0.0000
     94 C36        8.5406    0.8143   13.2156 C.3       2 RES2    0.0000
     95 H49        8.7761    1.7412   13.1243 H         2 RES2    0.0000
     96 H50        8.7425    0.3509   12.3981 H         2 RES2    0.0000
     97 H51        9.0423    0.4258   13.9361 H         2 RES2    0.0000
     98 C37        4.3863    2.3472   15.6239 C.3       2 RES2    0.0000
     99 H52        4.5649    2.1291   16.5412 H         2 RES2    0.0000
    100 H53        3.4405    2.3028   15.4627 H         2 RES2    0.0000
    101 H54        4.7016    3.2342   15.4384 H         2 RES2    0.0000
    102 C38        6.2667   -1.6575   11.4650 C.2       2 RES2    0.0000
    103 C39        5.2534   -2.0547   10.4706 C.ar      2 RES2    0.0000
    104 C40        5.6974   -2.5258    9.2294 C.ar      2 RES2    0.0000
    105 H55        6.6063   -2.5514    9.0368 H         2 RES2    0.0000
    106 C41        4.7779   -2.9537    8.2906 C.ar      2 RES2    0.0000
    107 H56        5.0672   -3.2746    7.4674 H         2 RES2    0.0000
    108 C42        3.4493   -2.9027    8.5759 C.ar      2 RES2    0.0000
    109 C43        2.9745   -2.4014    9.7844 C.ar      2 RES2    0.0000
    110 H57        2.0617   -2.3507    9.9541 H         2 RES2    0.0000
    111 C44        3.8895   -1.9850   10.7160 C.ar      2 RES2    0.0000
    112 H58        3.5900   -1.6489   11.5306 H         2 RES2    0.0000
@<TRIPOS>BOND
     1    1    5 2
     2    2    5 2
     3    3   46 2
     4    4    6 1
     5    5   52 1
     6    6    7 1
     7    8    6 1
     8    9    8 1
     9   10    8 1
    10   11   10 1
    11   12   10 1
    12   13   10 1
    13   14   13 1
    14   15   14 1
    15   16    6 1
    16   17   14 1
    17   18   17 1
    18   19   17 1
    19   20    8 1
    20   21   20 1
    21   22   16 1
    22   23   22 1
    23   24   22 1
    24   25   13 1
    25   26   25 1
    26   27   25 1
    27   28   20 1
    28   29   28 1
    29   30   28 1
    30   31   30 1
    31   32   30 1
    32   33   30 1
    33   34   28 1
    34   35   34 1
    35   36   34 1
    36   37   34 1
    37   38   16 1
    38   39   38 1
    39   40   38 1
    40   41   38 1
    41   42   13 1
    42   43   42 1
    43   44   42 1
    44   45   42 1
    45   46    4 1
    46   47   46 1
    47   48   47 ar
    48   49   48 1
    49   50   48 ar
    50   51   50 1
    51   52   50 ar
    52   53   52 ar
    53   54   53 1
    54   55   47 ar
    55   56   55 1
    56   57   61 2
    57   58   61 2
    58   59  102 2
    59   60   62 1
    60   61  108 1
    61   62   63 1
    62   64   62 1
    63   65   64 1
    64   66   64 1
    65   67   66 1
    66   68   66 1
    67   69   66 1
    68   70   69 1
    69   71   70 1
    70   72   62 1
    71   73   70 1
    72   74   73 1
    73   75   73 1
    74   76   64 1
    75   77   76 1
    76   78   72 1
    77   79   78 1
    78   80   78 1
    79   81   69 1
    80   82   81 1
    81   83   81 1
    82   84   76 1
    83   85   84 1
    84   86   84 1
    85   87   86 1
    86   88   86 1
    87   89   86 1
    88   90   84 1
    89   91   90 1
    90   92   90 1
    91   93   90 1
    92   94   72 1
    93   95   94 1
    94   96   94 1
    95   97   94 1
    96   98   69 1
    97   99   98 1
    98  100   98 1
    99  101   98 1
   100  102   60 1
   101  103  102 1
   102  104  103 ar
   103  105  104 1
   104  106  104 ar
   105  107  106 1
   106  108  106 ar
   107  109  108 ar
   108  110  109 1
   109  111  103 ar
   110  112  111 1
   111   14   16 1
   112   17   20 1
   113   22   25 1
   114   53   55 ar
   115   70   72 1
   116   73   76 1
   117   78   81 1
   118  109  111 ar
@<TRIPOS>SUBSTRUCTURE
     1 RES1 1
     2 RES2 57

@<TRIPOS>CRYSIN
   7.2530   10.7510   14.6610  84.9800  76.7400  72.6800   1 1

