# MOL2 file generated by ConQuest
# Please check atom types

@<TRIPOS>MOLECULE
MUYHUL
    52    55     1
SMALL
NO_CHARGES
****
Generated from CSD

@<TRIPOS>ATOM
      1 O1         1.8739    6.8730    2.4656 O.3       1 RES1    0.0000
      2 C1         1.3271    4.6180   -0.2938 C.ar      1 RES1    0.0000
      3 H1         1.0798    3.8315    0.1370 H         1 RES1    0.0000
      4 C2         2.0825    5.5498    1.9118 C.3       1 RES1    0.0000
      5 H2         1.4051    4.9459    2.2813 H         1 RES1    0.0000
      6 C3         2.4792    7.2563    3.6204 C.2       1 RES1    0.0000
      7 C4         1.8462    5.6859    0.4249 C.ar      1 RES1    0.0000
      8 O2         2.5632    8.4328    3.8324 O.2       1 RES1    0.0000
      9 C5         2.1444    6.8706   -0.2449 C.ar      1 RES1    0.0000
     10 H3         2.4735    7.5982    0.2329 H         1 RES1    0.0000
     11 O3         0.1791    2.6729   -1.8410 O.2       1 RES1    0.0000
     12 C6         1.1849    4.7489   -1.6674 C.ar      1 RES1    0.0000
     13 N1         0.6850    3.5992   -2.4416 N.pl3     1 RES1    0.0000
     14 C7         2.9112    6.1721    4.5856 C.3       1 RES1    0.0000
     15 C8         3.4990    5.0150    2.3139 C.3       1 RES1    0.0000
     16 C9         3.4127    4.9299    3.8357 C.2       1 RES1    0.0000
     17 O4         3.6761    3.9331    4.4590 O.2       1 RES1    0.0000
     18 C10        1.4931    5.9059   -2.3404 C.ar      1 RES1    0.0000
     19 H4         1.3909    5.9626   -3.2625 H         1 RES1    0.0000
     20 C11        4.0267    6.6564    5.5401 C.3       1 RES1    0.0000
     21 H5         4.3994    5.8857    5.9959 H         1 RES1    0.0000
     22 H6         4.7353    7.0526    5.0109 H         1 RES1    0.0000
     23 O5         0.8063    3.6295   -3.6592 O.2       1 RES1    0.0000
     24 C12        4.6146    5.9908    1.8912 C.3       1 RES1    0.0000
     25 H7         4.5343    6.1714    0.9414 H         1 RES1    0.0000
     26 H8         4.4969    6.8305    2.3635 H         1 RES1    0.0000
     27 C13        1.9566    6.9782   -1.6151 C.ar      1 RES1    0.0000
     28 H9         2.1454    7.7801   -2.0459 H         1 RES1    0.0000
     29 C14        1.6583    5.7645    5.4127 C.3       1 RES1    0.0000
     30 H10        0.9235    5.5818    4.8054 H         1 RES1    0.0000
     31 H11        1.8522    4.9483    5.8987 H         1 RES1    0.0000
     32 C15        3.7444    3.6302    1.6900 C.3       1 RES1    0.0000
     33 H12        3.1088    2.9990    2.0621 H         1 RES1    0.0000
     34 H13        3.5856    3.6813    0.7347 H         1 RES1    0.0000
     35 C16        3.5793    7.6666    6.5832 C.3       1 RES1    0.0000
     36 H14        4.3072    7.8301    7.2025 H         1 RES1    0.0000
     37 H15        3.3662    8.5051    6.1453 H         1 RES1    0.0000
     38 C17        1.2325    6.8368    6.3959 C.3       1 RES1    0.0000
     39 H16        0.4672    6.5241    6.9036 H         1 RES1    0.0000
     40 H17        0.9657    7.6324    5.9099 H         1 RES1    0.0000
     41 C18        6.0182    5.4488    2.1794 C.3       1 RES1    0.0000
     42 H18        6.6820    6.0786    1.8579 H         1 RES1    0.0000
     43 H19        6.1373    5.3487    3.1368 H         1 RES1    0.0000
     44 C19        2.3690    7.1836    7.3530 C.3       1 RES1    0.0000
     45 H20        2.0772    7.8753    7.9671 H         1 RES1    0.0000
     46 H21        2.6059    6.3996    7.8724 H         1 RES1    0.0000
     47 C20        6.2214    4.1000    1.4968 C.3       1 RES1    0.0000
     48 H22        6.1778    4.2160    0.5342 H         1 RES1    0.0000
     49 H23        7.1011    3.7558    1.7184 H         1 RES1    0.0000
     50 C21        5.1676    3.1076    1.9329 C.3       1 RES1    0.0000
     51 H24        5.2805    2.9172    2.8778 H         1 RES1    0.0000
     52 H25        5.2900    2.2776    1.4457 H         1 RES1    0.0000
@<TRIPOS>BOND
     1    1    4 1
     2    2    3 1
     3    4    5 1
     4    6    1 1
     5    7    2 ar
     6    8    6 2
     7    9    7 ar
     8   10    9 1
     9   11   13 2
    10   12    2 ar
    11   13   12 1
    12   14    6 1
    13   15    4 1
    14   16   14 1
    15   17   16 2
    16   18   12 ar
    17   19   18 1
    18   20   14 1
    19   21   20 1
    20   22   20 1
    21   23   13 2
    22   24   15 1
    23   25   24 1
    24   26   24 1
    25   27    9 ar
    26   28   27 1
    27   29   14 1
    28   30   29 1
    29   31   29 1
    30   32   15 1
    31   33   32 1
    32   34   32 1
    33   35   20 1
    34   36   35 1
    35   37   35 1
    36   38   29 1
    37   39   38 1
    38   40   38 1
    39   41   24 1
    40   42   41 1
    41   43   41 1
    42   44   35 1
    43   45   44 1
    44   46   44 1
    45   47   41 1
    46   48   47 1
    47   49   47 1
    48   50   32 1
    49   51   50 1
    50   52   50 1
    51    4    7 1
    52   15   16 1
    53   18   27 ar
    54   38   44 1
    55   47   50 1
@<TRIPOS>SUBSTRUCTURE
     1 RES1 1

@<TRIPOS>CRYSIN
  12.5406   12.2060   12.5150  90.0000  95.7310  90.0000  14 1

