# MOL2 file generated by ConQuest
# Please check atom types

@<TRIPOS>MOLECULE
MUYLAT
    29    30     1
SMALL
NO_CHARGES
****
Generated from CSD

@<TRIPOS>ATOM
      1 O1        -0.5765    1.5985    0.3740 O.2       1 RES1    0.0000
      2 O2         0.7445   -1.1039   -4.5601 O.2       1 RES1    0.0000
      3 O3        -0.7480   -0.0690   -5.7228 O.2       1 RES1    0.0000
      4 N1         1.4766    1.8109   -0.5472 N.am      1 RES1    0.0000
      5 N2         1.1856    1.6252    1.8168 N.2       1 RES1    0.0000
      6 N3         0.0340   -0.1335   -4.7781 N.pl3     1 RES1    0.0000
      7 C1         0.6455    1.6790    0.5685 C.2       1 RES1    0.0000
      8 C2         2.8530    1.8462   -0.4157 C.2       1 RES1    0.0000
      9 C3         3.3623    1.7529    0.8240 C.2       1 RES1    0.0000
     10 C4         2.5124    1.6714    1.9322 C.2       1 RES1    0.0000
     11 C5         3.6986    2.0118   -1.6329 C.3       1 RES1    0.0000
     12 C6         3.0538    1.6371    3.3257 C.3       1 RES1    0.0000
     13 C7         0.8435    1.9400   -1.8317 C.ar      1 RES1    0.0000
     14 C8         0.7593    0.8420   -2.6578 C.ar      1 RES1    0.0000
     15 C9         0.1213    1.0151   -3.8654 C.ar      1 RES1    0.0000
     16 C10       -0.4414    2.2114   -4.2576 C.ar      1 RES1    0.0000
     17 C11       -0.3421    3.2881   -3.4251 C.ar      1 RES1    0.0000
     18 C12        0.3045    3.1566   -2.1993 C.ar      1 RES1    0.0000
     19 H1         4.4391    1.7525    0.9672 H         1 RES1    0.0000
     20 H2         3.7491    3.0487   -1.9001 H         1 RES1    0.0000
     21 H3         3.2524    1.4460   -2.4441 H         1 RES1    0.0000
     22 H4         4.6864    1.6286   -1.4342 H         1 RES1    0.0000
     23 H5         2.3048    1.2355    3.9830 H         1 RES1    0.0000
     24 H6         3.3114    2.6399    3.6282 H         1 RES1    0.0000
     25 H7         3.9330    1.0140    3.3428 H         1 RES1    0.0000
     26 H8         1.1668   -0.1165   -2.3767 H         1 RES1    0.0000
     27 H9        -0.9416    2.2782   -5.1991 H         1 RES1    0.0000
     28 H10       -0.7558    4.2394   -3.7222 H         1 RES1    0.0000
     29 H11        0.3761    4.0074   -1.5325 H         1 RES1    0.0000
@<TRIPOS>BOND
     1    1    7 2
     2    2    6 2
     3    3    6 2
     4    4    7 1
     5    5    7 1
     6    6   15 1
     7    8    4 1
     8    9    8 2
     9   10    5 2
    10   11    8 1
    11   12   10 1
    12   13    4 1
    13   14   13 ar
    14   15   14 ar
    15   16   15 ar
    16   17   16 ar
    17   18   13 ar
    18   19    9 1
    19   20   11 1
    20   21   11 1
    21   22   11 1
    22   23   12 1
    23   24   12 1
    24   25   12 1
    25   26   14 1
    26   27   16 1
    27   28   17 1
    28   29   18 1
    29    9   10 1
    30   17   18 ar
@<TRIPOS>SUBSTRUCTURE
     1 RES1 1

@<TRIPOS>CRYSIN
   7.1260    7.6350   11.3370 102.3300 103.2800  96.7400   2 1

