# MOL2 file generated by ConQuest
# Please check atom types

@<TRIPOS>MOLECULE
MUZCEP
    74    77     1
SMALL
NO_CHARGES
****
Generated from CSD

@<TRIPOS>ATOM
      1 C1         5.8586    4.7767    9.3457 C.ar      1 RES1    0.0000
      2 C2         4.9858    3.7921    9.7442 C.ar      1 RES1    0.0000
      3 C3         4.5260    2.8626    8.7801 C.ar      1 RES1    0.0000
      4 C4         4.9204    3.0242    7.4729 C.ar      1 RES1    0.0000
      5 H1         4.5976    2.4146    6.8193 H         1 RES1    0.0000
      6 C5         5.7873    4.0626    7.0652 C.ar      1 RES1    0.0000
      7 C6         6.0782    4.2656    5.6491 C.ar      1 RES1    0.0000
      8 C7         5.4659    3.4625    4.6545 C.ar      1 RES1    0.0000
      9 H2         4.8996    2.7493    4.9230 H         1 RES1    0.0000
     10 C8         5.6660    3.6840    3.3160 C.ar      1 RES1    0.0000
     11 C9         6.5252    4.7357    2.9129 C.ar      1 RES1    0.0000
     12 C10        7.1461    5.5148    3.8579 C.ar      1 RES1    0.0000
     13 H3         7.7323    6.2069    3.5749 H         1 RES1    0.0000
     14 C11        6.9344    5.3127    5.2469 C.ar      1 RES1    0.0000
     15 C12        7.5943    6.1462    6.2478 C.ar      1 RES1    0.0000
     16 C13        8.5310    7.1470    5.8744 C.ar      1 RES1    0.0000
     17 H4         8.7251    7.2727    4.9532 H         1 RES1    0.0000
     18 C14        9.1658    7.9397    6.8009 C.ar      1 RES1    0.0000
     19 C15        8.8957    7.7367    8.1767 C.ar      1 RES1    0.0000
     20 C16        8.0268    6.7502    8.5546 C.ar      1 RES1    0.0000
     21 H5         7.8946    6.5906    9.4814 H         1 RES1    0.0000
     22 C17        7.3160    5.9564    7.6198 C.ar      1 RES1    0.0000
     23 C18        6.3393    4.9512    8.0247 C.ar      1 RES1    0.0000
     24 C19        4.9586    2.7658   11.8796 C.3       1 RES1    0.0000
     25 H6         5.9453    2.8053   11.9495 H         1 RES1    0.0000
     26 H7         4.7028    1.8800   11.5180 H         1 RES1    0.0000
     27 C20        4.3265    2.9836   13.2353 C.3       1 RES1    0.0000
     28 H8         4.6543    3.8241   13.6176 H         1 RES1    0.0000
     29 H9         4.5627    2.2409   13.8287 H         1 RES1    0.0000
     30 H10        3.3523    3.0268   13.1376 H         1 RES1    0.0000
     31 C21        3.0921    1.0178    8.2669 C.3       1 RES1    0.0000
     32 H11        3.8097    0.5756    7.7477 H         1 RES1    0.0000
     33 H12        2.5109    1.5155    7.6389 H         1 RES1    0.0000
     34 C22        2.2885   -0.0065    9.0165 C.3       1 RES1    0.0000
     35 H13        2.8831   -0.5270    9.5968 H         1 RES1    0.0000
     36 H14        1.8475   -0.6059    8.3785 H         1 RES1    0.0000
     37 H15        1.6122    0.4454    9.5627 H         1 RES1    0.0000
     38 C23        4.1689    1.9270    2.6519 C.3       1 RES1    0.0000
     39 H16        3.4266    2.2820    3.2024 H         1 RES1    0.0000
     40 H17        4.6374    1.2244    3.1683 H         1 RES1    0.0000
     41 C24        3.6395    1.3604    1.3578 C.3       1 RES1    0.0000
     42 H18        3.2480    2.0814    0.8222 H         1 RES1    0.0000
     43 H19        2.9528    0.6881    1.5527 H         1 RES1    0.0000
     44 H20        4.3720    0.9431    0.8590 H         1 RES1    0.0000
     45 C25        7.5305    5.9029    1.0723 C.3       1 RES1    0.0000
     46 H21        8.4594    5.7003    1.3494 H         1 RES1    0.0000
     47 H22        7.2798    6.7915    1.4294 H         1 RES1    0.0000
     48 C26        7.4117    5.8854   -0.4345 C.3       1 RES1    0.0000
     49 H23        7.6351    4.9920   -0.7698 H         1 RES1    0.0000
     50 H24        8.0287    6.5421   -0.8183 H         1 RES1    0.0000
     51 H25        6.4935    6.1104   -0.6924 H         1 RES1    0.0000
     52 C27       10.4925    9.0929    5.1670 C.3       1 RES1    0.0000
     53 H26        9.7081    9.2390    4.5820 H         1 RES1    0.0000
     54 H27       10.9715    8.2854    4.8535 H         1 RES1    0.0000
     55 C28       11.4078   10.2939    5.1238 C.3       1 RES1    0.0000
     56 H28       10.9388   11.0746    5.4856 H         1 RES1    0.0000
     57 H29       11.6701   10.4715    4.1965 H         1 RES1    0.0000
     58 H30       12.2074   10.1143    5.6613 H         1 RES1    0.0000
     59 C29        9.2701    8.5219   10.4259 C.3       1 RES1    0.0000
     60 H31        8.3014    8.3463   10.5358 H         1 RES1    0.0000
     61 H32        9.4645    9.4081   10.8230 H         1 RES1    0.0000
     62 C30       10.0459    7.4739   11.1642 C.3       1 RES1    0.0000
     63 H33        9.7639    6.5849   10.8610 H         1 RES1    0.0000
     64 H34        9.8777    7.5596   12.1265 H         1 RES1    0.0000
     65 H35       11.0024    7.5909   10.9882 H         1 RES1    0.0000
     66 O1         5.5728    6.8524   10.3542 O.2       1 RES1    0.0000
     67 O2         6.8818    5.4270   11.3390 O.2       1 RES1    0.0000
     68 O3         4.4705    3.8248   11.0139 O.3       1 RES1    0.0000
     69 O4         3.6602    1.9178    9.2359 O.3       1 RES1    0.0000
     70 O5         5.0788    2.9811    2.3008 O.3       1 RES1    0.0000
     71 O6         6.6317    4.8965    1.5579 O.3       1 RES1    0.0000
     72 O7        10.0720    8.9241    6.5283 O.3       1 RES1    0.0000
     73 O8         9.5842    8.5553    9.0265 O.3       1 RES1    0.0000
     74 N1         6.1235    5.7589   10.4284 N.pl3     1 RES1    0.0000
@<TRIPOS>BOND
     1    1    2 ar
     2    2    3 ar
     3    3    4 ar
     4    4    5 1
     5    6    4 ar
     6    7    6 1
     7    8    7 ar
     8    9    8 1
     9   10    8 ar
    10   11   10 ar
    11   12   11 ar
    12   13   12 1
    13   14    7 ar
    14   15   14 1
    15   16   15 ar
    16   17   16 1
    17   18   16 ar
    18   19   18 ar
    19   20   19 ar
    20   21   20 1
    21   22   15 ar
    22   23    1 ar
    23   24   25 1
    24   26   24 1
    25   27   24 1
    26   28   27 1
    27   29   27 1
    28   30   27 1
    29   31   32 1
    30   33   31 1
    31   34   31 1
    32   35   34 1
    33   36   34 1
    34   37   34 1
    35   38   39 1
    36   40   38 1
    37   41   38 1
    38   42   41 1
    39   43   41 1
    40   44   41 1
    41   45   46 1
    42   47   45 1
    43   48   45 1
    44   49   48 1
    45   50   48 1
    46   51   48 1
    47   52   53 1
    48   54   52 1
    49   55   52 1
    50   56   55 1
    51   57   55 1
    52   58   55 1
    53   59   60 1
    54   61   59 1
    55   62   59 1
    56   63   62 1
    57   64   62 1
    58   65   62 1
    59   66   74 2
    60   67   74 2
    61   68    2 1
    62   69    3 1
    63   70   10 1
    64   71   11 1
    65   72   18 1
    66   73   19 1
    67   74    1 1
    68    6   23 ar
    69   12   14 ar
    70   20   22 ar
    71   22   23 1
    72   24   68 1
    73   31   69 1
    74   38   70 1
    75   45   71 1
    76   52   72 1
    77   59   73 1
@<TRIPOS>SUBSTRUCTURE
     1 RES1 1

@<TRIPOS>CRYSIN
   9.4054   10.8386   14.5913  70.1430  73.7890  89.6730   2 1

