# MOL2 file generated by ConQuest
# Please check atom types

@<TRIPOS>MOLECULE
MUZPII
    38    38     2
SMALL
NO_CHARGES
****
Generated from CSD

@<TRIPOS>ATOM
      1 O1         1.3842    3.0950    2.8935 O.3       1 RES1    0.0000
      2 O2         6.3118    6.4894    1.9407 O.2       1 RES1    0.0000
      3 O3         4.6893    6.2793    3.3446 O.2       1 RES1    0.0000
      4 N1         5.2340    5.9825    2.2889 N.pl3     1 RES1    0.0000
      5 C1         1.7183    2.7287    1.6213 C.ar      1 RES1    0.0000
      6 C2         2.8301    3.3649    1.0329 C.ar      1 RES1    0.0000
      7 C3         3.2043    2.9729   -0.2683 C.ar      1 RES1    0.0000
      8 H1         3.9576    3.3818   -0.6781 H         1 RES1    0.0000
      9 C4         2.5046    2.0129   -0.9576 C.ar      1 RES1    0.0000
     10 H2         2.7745    1.7591   -1.8323 H         1 RES1    0.0000
     11 C5         1.3938    1.4143   -0.3620 C.ar      1 RES1    0.0000
     12 H3         0.8978    0.7631   -0.8441 H         1 RES1    0.0000
     13 C6         1.0059    1.7550    0.9185 C.ar      1 RES1    0.0000
     14 H4         0.2573    1.3288    1.3189 H         1 RES1    0.0000
     15 C7         3.5371    4.3771    1.7891 C.2       1 RES1    0.0000
     16 H5         3.1858    4.5945    2.6443 H         1 RES1    0.0000
     17 C8         4.6338    5.0347    1.4035 C.2       1 RES1    0.0000
     18 H6         5.0121    4.8737    0.5469 H         1 RES1    0.0000
     19 H7         0.7595    2.7139    3.0650 H         1 RES1    0.0000
     20 O4         2.0594    8.8378    3.4758 O.3       2 RES2    0.0000
     21 O5         5.5105   11.8694    3.0003 O.2       2 RES2    0.0000
     22 O6         5.9845   13.3733    4.4815 O.2       2 RES2    0.0000
     23 N2         5.2925   12.4290    4.0787 N.pl3     2 RES2    0.0000
     24 C9         1.6593    9.2788    4.7051 C.ar      2 RES2    0.0000
     25 C10        2.3585   10.3560    5.2645 C.ar      2 RES2    0.0000
     26 C11        1.9696   10.8022    6.5438 C.ar      2 RES2    0.0000
     27 H8         2.4327   11.5280    6.9433 H         2 RES2    0.0000
     28 C12        0.9289   10.2056    7.2272 C.ar      2 RES2    0.0000
     29 H9         0.6810   10.5175    8.0898 H         2 RES2    0.0000
     30 C13        0.2446    9.1419    6.6416 C.ar      2 RES2    0.0000
     31 H10       -0.4721    8.7277    7.1080 H         2 RES2    0.0000
     32 C14        0.6011    8.6890    5.3935 C.ar      2 RES2    0.0000
     33 H11        0.1225    7.9699    4.9977 H         2 RES2    0.0000
     34 C15        3.4551   10.9599    4.5188 C.2       2 RES2    0.0000
     35 H12        3.6444   10.5941    3.6634 H         2 RES2    0.0000
     36 C16        4.2189   11.9763    4.9203 C.2       2 RES2    0.0000
     37 H13        4.0550   12.3976    5.7556 H         2 RES2    0.0000
     38 H14        1.6720    8.1401    3.2568 H         2 RES2    0.0000
@<TRIPOS>BOND
     1    1    5 1
     2    2    4 2
     3    3    4 2
     4    4   17 1
     5    5    6 ar
     6    6    7 ar
     7    7    8 1
     8    9    7 ar
     9   10    9 1
    10   11    9 ar
    11   12   11 1
    12   13    5 ar
    13   14   13 1
    14   15    6 1
    15   16   15 1
    16   17   15 2
    17   18   17 1
    18   19    1 1
    19   20   24 1
    20   21   23 2
    21   22   23 2
    22   23   36 1
    23   24   25 ar
    24   25   26 ar
    25   26   27 1
    26   28   26 ar
    27   29   28 1
    28   30   28 ar
    29   31   30 1
    30   32   24 ar
    31   33   32 1
    32   34   25 1
    33   35   34 1
    34   36   34 2
    35   37   36 1
    36   38   20 1
    37   11   13 ar
    38   30   32 ar
@<TRIPOS>SUBSTRUCTURE
     1 RES1 1
     2 RES2 20

@<TRIPOS>CRYSIN
   5.2270   11.2130   13.6080  71.2240  84.4700  81.2000   2 1

