# MOL2 file generated by ConQuest
# Please check atom types

@<TRIPOS>MOLECULE
MUZVEJ
    32    30     2
SMALL
NO_CHARGES
****
Generated from CSD

@<TRIPOS>ATOM
      1 C1         0.5847    9.0014    9.6983 C.ar      1 RES1    0.0000
      2 C2         1.5233    8.1855   10.3525 C.ar      1 RES1    0.0000
      3 C3         2.5806    8.8198   10.9866 C.ar      1 RES1    0.0000
      4 C4         2.6927   10.2086   11.0031 C.ar      1 RES1    0.0000
      5 C5         1.7399   11.0016   10.3738 C.ar      1 RES1    0.0000
      6 C6         0.6974   10.3758    9.7148 C.ar      1 RES1    0.0000
      7 C7         1.4517    6.7202   10.4779 C.2       1 RES1    0.0000
      8 C8         0.3299    6.0191   11.2127 C.2       1 RES1    0.0000
      9 N1         0.6626    4.6842   11.2373 N.am      1 RES1    0.0000
     10 C9         1.8967    4.4730   10.6332 C.2       1 RES1    0.0000
     11 C10        2.3680    5.8061   10.1690 C.2       1 RES1    0.0000
     12 N2        -0.5094    8.4195    8.9241 N.pl3     1 RES1    0.0000
     13 O1        -0.5852    7.1971    8.8276 O.2       1 RES1    0.0000
     14 O2        -1.3127    9.1870    8.3836 O.2       1 RES1    0.0000
     15 O3         3.7738   10.6869   11.6687 O.3       1 RES1    0.0000
     16 C11        3.9429   12.1072   11.6909 C.3       1 RES1    0.0000
     17 O4        -0.6442    6.5227   11.7352 O.2       1 RES1    0.0000
     18 C12       -0.0930    3.6590   11.9305 C.3       1 RES1    0.0000
     19 O5         2.4483    3.4000   10.5360 O.2       1 RES1    0.0000
     20 H1         3.2289    8.3035   11.4387 H         1 RES1    0.0000
     21 H2         1.8405   12.0821   10.4113 H         1 RES1    0.0000
     22 H3         0.0495   10.9022    9.2653 H         1 RES1    0.0000
     23 H4         3.1912    5.9597    9.7258 H         1 RES1    0.0000
     24 H5         4.8025   12.2983   12.1465 H         1 RES1    0.0000
     25 H6         3.1792   12.5531   12.1740 H         1 RES1    0.0000
     26 H7         3.9862   12.4507   10.7480 H         1 RES1    0.0000
     27 H8         0.2842    2.8103   11.7771 H         1 RES1    0.0000
     28 H9        -0.0701    3.7990   12.8646 H         1 RES1    0.0000
     29 H10       -0.9718    3.6420   11.6465 H         1 RES1    0.0000
     30 H11        0.4688    3.2131   12.5382 Du        2 SUP2    0.0000
     31 H12       -0.8049    4.0585   12.3973 Du        2 SUP2    0.0000
     32 H13       -0.4323    3.0424   11.3081 Du        2 SUP2    0.0000
@<TRIPOS>BOND
     1    1    2 ar
     2    2    3 ar
     3    3    4 ar
     4    4    5 ar
     5    5    6 ar
     6    6    1 ar
     7    7    2 1
     8    8    7 1
     9    9    8 1
    10   10    9 1
    11   11    7 2
    12   12    1 1
    13   13   12 2
    14   14   12 2
    15   15    4 1
    16   16   15 1
    17   17    8 2
    18   18    9 1
    19   19   10 2
    20   20    3 1
    21   21    5 1
    22   22    6 1
    23   23   11 1
    24   24   16 1
    25   25   16 1
    26   26   16 1
    27   27   18 1
    28   28   18 1
    29   29   18 1
    30   10   11 1
@<TRIPOS>SUBSTRUCTURE
     1 RES1 1
     2 SUP2 30

@<TRIPOS>CRYSIN
   5.8333   11.3778   17.2688  90.0000  95.8027  90.0000 231 1

