# MOL2 file generated by ConQuest
# Please check atom types

@<TRIPOS>MOLECULE
MXIDPO
    26    27     1
SMALL
USER_CHARGES
****
Generated from CSD

@<TRIPOS>ATOM
      1 C1         4.5118    1.5017    2.3066 C.2       1 RES1    0.0000
      2 C2        -0.5428    1.2928    2.5116 C.ar      1 RES1    0.0000
      3 C3         0.2152    2.3850    2.8904 C.ar      1 RES1    0.0000
      4 C4         1.5613    2.4494    2.5234 C.ar      1 RES1    0.0000
      5 C5        -2.4819    2.1287    3.6941 C.3       1 RES1    0.0000
      6 C6         5.8675    1.6050    1.8426 C.2       1 RES1    0.0000
      7 C7         6.8956    1.5880    2.7299 C.2       1 RES1    0.0000
      8 C8         6.6494    1.4920    4.1595 C.2       1 RES1    0.0000
      9 C9         5.2674    1.3973    4.6050 C.2       1 RES1    0.0000
     10 C10        4.2440    1.3887    3.7141 C.2       1 RES1    0.0000
     11 C11        2.1232    1.4179    1.7864 C.ar      1 RES1    0.0000
     12 C12        1.3700    0.3293    1.3801 C.ar      1 RES1    0.0000
     13 C13        0.0263    0.2637    1.7501 C.ar      1 RES1    0.0000
     14 H1         6.0492    1.6889    0.8658 H         1 RES1    0.0000
     15 H2        -3.1800    1.7496    4.0108 H         1 RES1    0.0000
     16 H3        -2.5823    2.9403    2.9600 H         1 RES1    0.0000
     17 H4         7.8425    1.6524    2.3532 H         1 RES1    0.0000
     18 H5         5.0928    1.3730    5.5574 H         1 RES1    0.0000
     19 H6         3.2996    1.2150    4.0626 H         1 RES1    0.0000
     20 H7         1.7933   -0.3281    0.8658 H         1 RES1    0.0000
     21 H8        -0.6456   -0.4495    1.4060 H         1 RES1    0.0000
     22 H9        -1.8650    2.3693    4.4992 H         1 RES1    0.0000
     23 N1         3.5148    1.4580    1.3868 N.pl3     1 RES1    1.0000
     24 O1         3.7371    1.4325    0.1406 O.2       1 RES1   -1.0000
     25 O2         7.5914    1.4847    4.9772 O.2       1 RES1    0.0000
     26 O3        -1.8554    1.1117    2.8246 O.3       1 RES1    0.0000
@<TRIPOS>BOND
     1    1    6 1
     2    2    3 ar
     3    3    4 ar
     4    4   11 ar
     5    5   15 1
     6    6    7 2
     7    7    8 1
     8    8    9 1
     9    9   10 2
    10   10    1 1
    11   11   12 ar
    12   12   13 ar
    13   13    2 ar
    14   14    6 1
    15   16    5 1
    16   17    7 1
    17   18    9 1
    18   19   10 1
    19   20   12 1
    20   21   13 1
    21   22    5 1
    22   23    1 2
    23   24   23 1
    24   25    8 2
    25   26    2 1
    26    5   26 1
    27   11   23 1
@<TRIPOS>SUBSTRUCTURE
     1 RES1 1

@<TRIPOS>CRYSIN
  23.9100   12.1500    7.4000  90.0000  90.0000  90.0000  61 1

