# MOL2 file generated by ConQuest
# Please check atom types

@<TRIPOS>MOLECULE
MXSALO
    21    21     1
SMALL
NO_CHARGES
****
Generated from CSD

@<TRIPOS>ATOM
      1 C1        -0.1226   -0.7647    2.7729 C.ar      1 RES1    0.0000
      2 C2         0.1302   -0.0896    3.9658 C.ar      1 RES1    0.0000
      3 C3        -0.1303    1.2597    4.0620 C.ar      1 RES1    0.0000
      4 C4        -0.6314    1.9744    2.9822 C.ar      1 RES1    0.0000
      5 C5        -0.8746    1.3194    1.7998 C.ar      1 RES1    0.0000
      6 C6        -0.6506   -0.0405    1.7014 C.ar      1 RES1    0.0000
      7 C7         0.1280   -2.1882    2.6076 C.2       1 RES1    0.0000
      8 N1         0.6348   -2.8864    3.5389 N.2       1 RES1    0.0000
      9 O1         0.7965   -4.2309    3.1642 O.3       1 RES1    0.0000
     10 O2         0.6307   -0.7300    5.0770 O.3       1 RES1    0.0000
     11 O3        -1.3363    1.9204    0.6425 O.3       1 RES1    0.0000
     12 C8        -1.6699    3.2861    0.7136 C.3       1 RES1    0.0000
     13 H1        -0.0416    1.6922    4.8719 H         1 RES1    0.0000
     14 H2        -0.7849    2.8739    3.0743 H         1 RES1    0.0000
     15 H3        -0.7452   -0.4941    0.9062 H         1 RES1    0.0000
     16 H4        -0.0955   -2.5859    1.8040 H         1 RES1    0.0000
     17 H5         1.0104   -4.6065    3.9114 H         1 RES1    0.0000
     18 H6         0.9309   -1.4986    4.8426 H         1 RES1    0.0000
     19 H7        -0.9295    3.8110    0.8727 H         1 RES1    0.0000
     20 H8        -1.9567    3.4874   -0.1821 H         1 RES1    0.0000
     21 H9        -2.3258    3.4277    1.3456 H         1 RES1    0.0000
@<TRIPOS>BOND
     1    1    2 ar
     2    2    3 ar
     3    3    4 ar
     4    4    5 ar
     5    5    6 ar
     6    6    1 ar
     7    7    1 1
     8    8    7 2
     9    9    8 1
    10   10    2 1
    11   11    5 1
    12   12   11 1
    13   13    3 1
    14   14    4 1
    15   15    6 1
    16   16    7 1
    17   17    9 1
    18   18   10 1
    19   19   12 1
    20   20   12 1
    21   21   12 1
@<TRIPOS>SUBSTRUCTURE
     1 RES1 1

@<TRIPOS>CRYSIN
   3.9140    9.6310   21.1000  90.0000  97.3300  90.0000  14 1

