# MOL2 file generated by ConQuest
# Please check atom types

@<TRIPOS>MOLECULE
MYIMXY
    75    77     2
SMALL
NO_CHARGES
****
Generated from CSD

@<TRIPOS>ATOM
      1 N1        -2.3975    3.3536   -2.3403 N.3       1 RES1    0.0000
      2 O1        -1.8743    2.4760   -3.0791 O.2       1 RES1    0.0000
      3 C1        -2.2938    3.3098   -0.8625 C.3       1 RES1    0.0000
      4 C2        -2.8432    4.6626   -0.4804 C.3       1 RES1    0.0000
      5 N2        -3.7903    4.9217   -1.6154 N.3       1 RES1    0.0000
      6 O2        -4.6725    5.8278   -1.5691 O.2       1 RES1    0.0000
      7 C3        -3.4443    4.2590   -2.8642 C.3       1 RES1    0.0000
      8 C4        -2.7792    5.1537   -3.9220 C.3       1 RES1    0.0000
      9 C5        -3.8029    6.0486   -4.6370 C.3       1 RES1    0.0000
     10 C6        -4.8921    5.1877   -5.2859 C.3       1 RES1    0.0000
     11 C7        -5.6048    4.3641   -4.2226 C.3       1 RES1    0.0000
     12 C8        -4.5824    3.4601   -3.4640 C.3       1 RES1    0.0000
     13 C9        -0.8592    3.0380   -0.4622 C.3       1 RES1    0.0000
     14 C10       -3.1759    2.1335   -0.3737 C.3       1 RES1    0.0000
     15 C11       -3.6418    4.7231    0.8400 C.3       1 RES1    0.0000
     16 C12       -1.7870    5.7782   -0.4762 C.3       1 RES1    0.0000
     17 H1        -2.2143    5.7039   -3.5118 H         1 RES1    0.0000
     18 H2        -2.3437    4.5736   -4.6917 H         1 RES1    0.0000
     19 H3        -3.3719    6.6514   -5.3098 H         1 RES1    0.0000
     20 H4        -4.2547    6.7889   -3.9894 H         1 RES1    0.0000
     21 H5        -5.6781    5.9005   -5.6891 H         1 RES1    0.0000
     22 H6        -4.4380    4.4871   -5.8858 H         1 RES1    0.0000
     23 H7        -6.0889    4.9401   -3.4275 H         1 RES1    0.0000
     24 H8        -6.1579    3.7956   -4.6075 H         1 RES1    0.0000
     25 H9        -5.1273    3.0025   -2.6971 H         1 RES1    0.0000
     26 H10       -4.2893    2.8635   -4.1158 H         1 RES1    0.0000
     27 H11       -0.8164    2.9708    0.4916 H         1 RES1    0.0000
     28 H12       -0.4113    2.0159   -0.5478 H         1 RES1    0.0000
     29 H13       -0.2958    3.7943   -0.8007 H         1 RES1    0.0000
     30 H14       -2.8934    1.2177   -0.7024 H         1 RES1    0.0000
     31 H15       -2.9997    1.9912    0.6883 H         1 RES1    0.0000
     32 H16       -4.0266    2.2931   -0.5197 H         1 RES1    0.0000
     33 H17       -4.2669    4.0286    0.8428 H         1 RES1    0.0000
     34 H18       -3.0067    4.4567    1.5171 H         1 RES1    0.0000
     35 H19       -3.9329    5.6633    1.0114 H         1 RES1    0.0000
     36 H20       -2.2131    6.5280   -0.3793 H         1 RES1    0.0000
     37 H21       -1.2064    5.8260   -1.2502 H         1 RES1    0.0000
     38 H22       -0.9163    5.2556    0.2107 H         1 RES1    0.0000
     39 N3         0.5713   -2.2588   -3.7618 N.3       2 RES2    0.0000
     40 O3         1.4737   -2.5435   -2.9499 O.2       2 RES2    0.0000
     41 C13       -0.2246   -1.0034   -3.7113 C.3       2 RES2    0.0000
     42 C14       -0.8157   -0.9406   -5.1075 C.3       2 RES2    0.0000
     43 N4        -0.8246   -2.3579   -5.5037 N.3       2 RES2    0.0000
     44 O4        -1.4168   -2.7613   -6.5389 O.2       2 RES2    0.0000
     45 C15        0.0758   -3.2416   -4.7620 C.3       2 RES2    0.0000
     46 C16        1.1735   -3.8286   -5.6104 C.3       2 RES2    0.0000
     47 C17        1.9773   -4.9131   -4.9263 C.3       2 RES2    0.0000
     48 C18        1.0716   -5.9903   -4.3209 C.3       2 RES2    0.0000
     49 C19        0.0628   -5.3725   -3.4135 C.3       2 RES2    0.0000
     50 C20       -0.7724   -4.3766   -4.1327 C.3       2 RES2    0.0000
     51 C21       -1.3055   -1.2079   -2.6198 C.3       2 RES2    0.0000
     52 C22        0.6846    0.1218   -3.2632 C.3       2 RES2    0.0000
     53 C23       -2.1765   -0.3025   -5.2480 C.3       2 RES2    0.0000
     54 C24        0.2496   -0.2031   -6.0908 C.3       2 RES2    0.0000
     55 H23        1.7520   -3.0586   -5.8998 H         2 RES2    0.0000
     56 H24        0.7353   -4.1349   -6.3914 H         2 RES2    0.0000
     57 H25        2.5049   -4.4335   -4.1018 H         2 RES2    0.0000
     58 H26        2.5884   -5.3510   -5.5908 H         2 RES2    0.0000
     59 H27        1.6958   -6.6027   -3.7225 H         2 RES2    0.0000
     60 H28        0.6355   -6.4722   -5.0851 H         2 RES2    0.0000
     61 H29        0.4847   -4.8380   -2.5706 H         2 RES2    0.0000
     62 H30       -0.5621   -6.1034   -3.0482 H         2 RES2    0.0000
     63 H31       -1.3935   -4.0382   -3.5680 H         2 RES2    0.0000
     64 H32       -1.1753   -4.9629   -4.8744 H         2 RES2    0.0000
     65 H33       -1.9455   -0.2436   -2.5987 H         2 RES2    0.0000
     66 H34       -0.9020   -1.4039   -1.7418 H         2 RES2    0.0000
     67 H35       -1.8267   -2.1577   -3.0482 H         2 RES2    0.0000
     68 H36        1.3544    0.1982   -4.2141 H         2 RES2    0.0000
     69 H37        1.0509   -0.1446   -2.3880 H         2 RES2    0.0000
     70 H38        0.1902    1.0392   -3.1747 H         2 RES2    0.0000
     71 H39       -2.8684   -0.9539   -4.4810 H         2 RES2    0.0000
     72 H40       -2.3500   -0.3219   -6.1667 H         2 RES2    0.0000
     73 H41       -2.3087    0.4565   -4.8463 H         2 RES2    0.0000
     74 H42        0.2378    0.9698   -5.9419 H         2 RES2    0.0000
     75 H43       -0.3725   -0.3960   -7.0938 H         2 RES2    0.0000
@<TRIPOS>BOND
     1    1    2 1
     2    3    1 1
     3    4    3 1
     4    5    4 1
     5    6    5 1
     6    7    1 1
     7    8    7 1
     8    9    8 1
     9   10    9 1
    10   11   10 1
    11   12    7 1
    12   13    3 1
    13   14    3 1
    14   15    4 1
    15   16    4 1
    16   17    8 1
    17   18    8 1
    18   19    9 1
    19   20    9 1
    20   21   10 1
    21   22   10 1
    22   23   11 1
    23   24   11 1
    24   25   12 1
    25   26   12 1
    26   27   13 1
    27   28   13 1
    28   29   13 1
    29   30   14 1
    30   31   14 1
    31   32   14 1
    32   33   15 1
    33   34   15 1
    34   35   15 1
    35   36   16 1
    36   37   16 1
    37   38   16 1
    38   39   40 1
    39   41   39 1
    40   42   41 1
    41   43   42 1
    42   44   43 1
    43   45   39 1
    44   46   45 1
    45   47   46 1
    46   48   47 1
    47   49   48 1
    48   50   45 1
    49   51   41 1
    50   52   41 1
    51   53   42 1
    52   54   42 1
    53   55   46 1
    54   56   46 1
    55   57   47 1
    56   58   47 1
    57   59   48 1
    58   60   48 1
    59   61   49 1
    60   62   49 1
    61   63   50 1
    62   64   50 1
    63   65   51 1
    64   66   51 1
    65   67   51 1
    66   68   52 1
    67   69   52 1
    68   70   52 1
    69   71   53 1
    70   72   53 1
    71   73   53 1
    72   74   54 1
    73   75   54 1
    74    5    7 1
    75   11   12 1
    76   43   45 1
    77   49   50 1
@<TRIPOS>SUBSTRUCTURE
     1 RES1 1
     2 RES2 39

@<TRIPOS>CRYSIN
   6.5370   14.3280   14.7240 105.9800  81.5200  96.1900   2 1

