# MOL2 file generated by ConQuest
# Please check atom types

@<TRIPOS>MOLECULE
MYIMXY01
    76    78     2
SMALL
NO_CHARGES
****
Generated from CSD

@<TRIPOS>ATOM
      1 O1         5.7343    7.7213    8.5923 O.2       1 RES1    0.0000
      2 O2         2.9251    4.3590   10.1049 O.2       1 RES1    0.0000
      3 N1         4.8458    6.8251    8.6389 N.3       1 RES1    0.0000
      4 N2         3.4537    5.2394    9.3630 N.3       1 RES1    0.0000
      5 C1         3.3601    5.1828    7.8854 C.3       1 RES1    0.0000
      6 C2         4.6847    6.6162    6.1905 C.3       1 RES1    0.0000
      7 H1         4.9517    7.5188    6.0042 H         1 RES1    0.0000
      8 H2         4.1236    6.2959    5.4815 H         1 RES1    0.0000
      9 H3         5.4644    6.0600    6.2585 H         1 RES1    0.0000
     10 C3         3.9158    6.5752    7.5039 C.3       1 RES1    0.0000
     11 C4         4.4782    6.1521    9.8932 C.3       1 RES1    0.0000
     12 C5         3.8489    7.0734   10.9341 C.3       1 RES1    0.0000
     13 H4         3.2048    7.6498   10.4936 H         1 RES1    0.0000
     14 H5         3.3681    6.5334   11.5812 H         1 RES1    0.0000
     15 C6         4.8559    7.9352   11.6677 C.3       1 RES1    0.0000
     16 H6         4.4050    8.4356   12.3652 H         1 RES1    0.0000
     17 H7         5.2494    8.5706   11.0486 H         1 RES1    0.0000
     18 C7         5.9517    7.0846   12.2836 C.3       1 RES1    0.0000
     19 H8         6.6038    7.6609   12.7137 H         1 RES1    0.0000
     20 H9         5.5688    6.5053   12.9610 H         1 RES1    0.0000
     21 C8         2.8596    7.6839    7.5033 C.3       1 RES1    0.0000
     22 H10        2.3244    7.6166    8.2974 H         1 RES1    0.0000
     23 H11        2.2981    7.5902    6.7306 H         1 RES1    0.0000
     24 H12        3.2945    8.5396    7.4824 H         1 RES1    0.0000
     25 C9         1.9105    4.9404    7.4834 C.3       1 RES1    0.0000
     26 H13        1.6345    4.0730    7.7887 H         1 RES1    0.0000
     27 H14        1.8324    4.9828    6.5269 H         1 RES1    0.0000
     28 H15        1.3516    5.6120    7.8800 H         1 RES1    0.0000
     29 C10        4.2291    4.0229    7.3953 C.3       1 RES1    0.0000
     30 H16        5.1518    4.2173    7.5723 H         1 RES1    0.0000
     31 H17        4.1028    3.9057    6.4510 H         1 RES1    0.0000
     32 H18        3.9776    3.2180    7.8547 H         1 RES1    0.0000
     33 C11        6.6375    6.2452   11.2328 C.3       1 RES1    0.0000
     34 H19        7.3040    5.6825   11.6570 H         1 RES1    0.0000
     35 H20        7.0933    6.8269   10.6046 H         1 RES1    0.0000
     36 C12        5.6517    5.3768   10.4857 C.3       1 RES1    0.0000
     37 H21        5.3069    4.7017   11.0908 H         1 RES1    0.0000
     38 H22        6.1178    4.9193    9.7685 H         1 RES1    0.0000
     39 O3         2.5443    4.4444    4.0710 O.2       2 RES2    0.0000
     40 N3         1.6337    4.1619    3.2488 N.3       2 RES2    0.0000
     41 C13       -0.2544    3.0761    4.3791 C.3       2 RES2    0.0000
     42 H23        0.1340    3.3687    5.2075 H         2 RES2    0.0000
     43 H24       -0.7020    2.2369    4.5147 H         2 RES2    0.0000
     44 H25       -0.8872    3.7310    4.0735 H         2 RES2    0.0000
     45 C14        0.8562    2.9020    3.3232 C.3       2 RES2    0.0000
     46 C15        1.1368    5.1366    2.2703 C.3       2 RES2    0.0000
     47 C16        2.2550    5.7308    1.4105 C.3       2 RES2    0.0000
     48 H26        2.8693    5.0228    1.1621 H         2 RES2    0.0000
     49 H27        1.8679    6.0851    0.5944 H         2 RES2    0.0000
     50 C17        3.0315    6.8342    2.1053 C.3       2 RES2    0.0000
     51 H28        3.5690    6.4452    2.8131 H         2 RES2    0.0000
     52 H29        3.6346    7.2453    1.4670 H         2 RES2    0.0000
     53 C18        2.1450    7.8945    2.6937 C.3       2 RES2    0.0000
     54 H30        1.6937    8.3715    1.9798 H         2 RES2    0.0000
     55 H31        2.6854    8.5318    3.1855 H         2 RES2    0.0000
     56 C19        1.7402    1.7768    3.7812 C.3       2 RES2    0.0000
     57 H32        2.4927    1.6993    3.1897 H         2 RES2    0.0000
     58 H33        1.2423    0.9553    3.7742 H         2 RES2    0.0000
     59 H34        2.0503    1.9555    4.6721 H         2 RES2    0.0000
     60 N4         0.2675    4.2337    1.5097 N.3       2 RES2    0.0000
     61 C20        0.2892    2.8175    1.9052 C.3       2 RES2    0.0000
     62 C21        1.2546    2.0925    0.9457 C.3       2 RES2    0.0000
     63 H35        0.9519    2.2056    0.0407 H         2 RES2    0.0000
     64 H36        1.2778    1.1578    1.1606 H         2 RES2    0.0000
     65 H37        2.1349    2.4647    1.0356 H         2 RES2    0.0000
     66 C22       -1.0858    2.2163    1.7663 C.3       2 RES2    0.0000
     67 H38       -1.7019    2.6951    2.3269 H         2 RES2    0.0000
     68 H39       -1.0602    1.2952    2.0318 H         2 RES2    0.0000
     69 H40       -1.3711    2.2783    0.8515 H         2 RES2    0.0000
     70 C23        0.2956    6.2513    2.8984 C.3       2 RES2    0.0000
     71 H41       -0.2159    6.6896    2.2005 H         2 RES2    0.0000
     72 H42       -0.3334    5.8574    3.5227 H         2 RES2    0.0000
     73 C24        1.1164    7.2801    3.6210 C.3       2 RES2    0.0000
     74 H43        1.5665    6.8647    4.3728 H         2 RES2    0.0000
     75 H44        0.5345    7.9754    3.9639 H         2 RES2    0.0000
     76 O4        -0.3180    4.6469    0.4713 O.2       2 RES2    0.0000
@<TRIPOS>BOND
     1    1    3 1
     2    2    4 1
     3    3   10 1
     4    4    5 1
     5    5   10 1
     6    6    7 1
     7    8    6 1
     8    9    6 1
     9   10    6 1
    10   11    3 1
    11   12   11 1
    12   13   12 1
    13   14   12 1
    14   15   12 1
    15   16   15 1
    16   17   15 1
    17   18   15 1
    18   19   18 1
    19   20   18 1
    20   21   10 1
    21   22   21 1
    22   23   21 1
    23   24   21 1
    24   25    5 1
    25   26   25 1
    26   27   25 1
    27   28   25 1
    28   29    5 1
    29   30   29 1
    30   31   29 1
    31   32   29 1
    32   33   18 1
    33   34   33 1
    34   35   33 1
    35   36   11 1
    36   37   36 1
    37   38   36 1
    38   39   40 1
    39   40   45 1
    40   41   42 1
    41   43   41 1
    42   44   41 1
    43   45   41 1
    44   46   40 1
    45   47   46 1
    46   48   47 1
    47   49   47 1
    48   50   47 1
    49   51   50 1
    50   52   50 1
    51   53   50 1
    52   54   53 1
    53   55   53 1
    54   56   45 1
    55   57   56 1
    56   58   56 1
    57   59   56 1
    58   60   46 1
    59   61   45 1
    60   62   61 1
    61   63   62 1
    62   64   62 1
    63   65   62 1
    64   66   61 1
    65   67   66 1
    66   68   66 1
    67   69   66 1
    68   70   46 1
    69   71   70 1
    70   72   70 1
    71   73   53 1
    72   74   73 1
    73   75   73 1
    74   76   60 1
    75    4   11 1
    76   33   36 1
    77   60   61 1
    78   70   73 1
@<TRIPOS>SUBSTRUCTURE
     1 RES1 1
     2 RES2 39

@<TRIPOS>CRYSIN
   6.5185   14.3425   14.7070  74.2730  81.6440  83.8660   2 1

