# MOL2 file generated by ConQuest
# Please check atom types

@<TRIPOS>MOLECULE
MYXINX
    58    62     2
SMALL
USER_CHARGES
****
Generated from CSD

@<TRIPOS>ATOM
      1 C1         5.4301    3.7375   -1.5275 C.ar      1 RES1    0.0000
      2 C2        10.1790    5.2593   -5.0639 C.ar      1 RES1    0.0000
      3 C3         8.8654    5.3391   -4.4601 C.ar      1 RES1    0.0000
      4 C4         7.1284    4.5358   -3.0254 C.ar      1 RES1    0.0000
      5 C5         6.6897    3.5860   -2.0765 C.ar      1 RES1    0.0000
      6 C6        12.1987    4.0719   -5.4583 C.3       1 RES1    0.0000
      7 C7         4.5906    4.7948   -1.8972 C.ar      1 RES1    0.0000
      8 C8         4.9835    5.7261   -2.8275 C.ar      1 RES1    0.0000
      9 C9         6.2965    5.6169   -3.4019 C.ar      1 RES1    0.0000
     10 C10        8.0283    6.4386   -4.8196 C.ar      1 RES1    0.0000
     11 C11        8.4687    7.4219   -5.7379 C.ar      1 RES1    0.0000
     12 C12        9.7227    7.3230   -6.2575 C.ar      1 RES1    0.0000
     13 C13       10.5756    6.2543   -5.9369 C.ar      1 RES1    0.0000
     14 H1         5.1845    3.1122   -0.9849 H         1 RES1    0.0000
     15 H2         7.3960    2.7892   -1.8015 H         1 RES1    0.0000
     16 H3         4.5937    7.2049   -3.7171 H         1 RES1    0.0000
     17 H4        12.7724    4.8238   -5.2686 H         1 RES1    0.0000
     18 H5        12.6207    3.2502   -5.1252 H         1 RES1    0.0000
     19 H6        12.0441    4.0223   -6.3749 H         1 RES1    0.0000
     20 H7         3.7863    4.8884   -1.5016 H         1 RES1    0.0000
     21 H8         7.9183    8.1034   -5.9436 H         1 RES1    0.0000
     22 H9        10.0482    8.0212   -6.8283 H         1 RES1    0.0000
     23 H10       11.3995    6.2331   -6.2761 H         1 RES1    0.0000
     24 N1         8.3992    4.3925   -3.5700 N.pl3     1 RES1    1.0000
     25 N2         6.7695    6.5438   -4.2906 N.pl3     1 RES1    1.0000
     26 O1         4.1535    6.7135   -3.1977 O.3       1 RES1    0.0000
     27 O2         6.0185    7.5667   -4.6457 O.2       1 RES1   -1.0000
     28 O3         9.0866    3.3823   -3.2126 O.2       1 RES1   -1.0000
     29 O4        10.9531    4.2041   -4.7360 O.3       1 RES1    0.0000
     30 C14        7.0388   10.1594    1.3804 C.ar      2 RES2    0.0000
     31 C15        6.2052   10.8327    2.2964 C.ar      2 RES2    0.0000
     32 C16        6.6145   11.9980    2.8940 C.ar      2 RES2    0.0000
     33 C17        7.9035   12.5341    2.5409 C.ar      2 RES2    0.0000
     34 C18        9.5799   14.2044    2.7737 C.ar      2 RES2    0.0000
     35 C19        9.9928   15.4034    3.3895 C.ar      2 RES2    0.0000
     36 C20       11.1989   15.9343    3.0629 C.ar      2 RES2    0.0000
     37 C21       12.0425   15.2930    2.1319 C.ar      2 RES2    0.0000
     38 C22       11.6842   14.1104    1.5247 C.ar      2 RES2    0.0000
     39 C23       10.3968   13.5358    1.8162 C.ar      2 RES2    0.0000
     40 C24        8.7073   11.8512    1.6022 C.ar      2 RES2    0.0000
     41 C25        8.2765   10.6424    1.0266 C.ar      2 RES2    0.0000
     42 C26       13.8093   13.9296    0.5137 C.3       2 RES2    0.0000
     43 H11        6.6717    9.2954    1.0094 H         2 RES2    0.0000
     44 H12        5.2899   10.3934    2.5412 H         2 RES2    0.0000
     45 H13        9.3611   15.8573    4.0385 H         2 RES2    0.0000
     46 H14       11.4183   16.7704    3.4144 H         2 RES2    0.0000
     47 H15       12.8253   15.7076    1.9108 H         2 RES2    0.0000
     48 H16        8.9178   10.1732    0.4006 H         2 RES2    0.0000
     49 H17        6.3553   13.3823    3.9714 H         2 RES2    0.0000
     50 H18       13.7932   14.8327    0.0547 H         2 RES2    0.0000
     51 H19       14.2718   13.2913   -0.1041 H         2 RES2    0.0000
     52 H20       14.3037   13.9519    1.4757 H         2 RES2    0.0000
     53 N3         8.3547   13.6982    3.0970 N.pl3     2 RES2    1.0000
     54 N4         9.9317   12.3876    1.2115 N.pl3     2 RES2    1.0000
     55 O5         5.8196   12.6119    3.7908 O.3       2 RES2    0.0000
     56 O6         7.6133   14.3380    3.9713 O.2       2 RES2   -1.0000
     57 O7        10.5792   11.7895    0.2833 O.2       2 RES2   -1.0000
     58 O8        12.4880   13.4410    0.6671 O.3       2 RES2    0.0000
@<TRIPOS>BOND
     1    1    5 ar
     2    2    3 ar
     3    3   10 ar
     4    4    5 ar
     5    5   15 1
     6    6   17 1
     7    7    1 ar
     8    8    7 ar
     9    9    4 ar
    10   10   11 ar
    11   11   12 ar
    12   12   13 ar
    13   13    2 ar
    14   14    1 1
    15   16   26 1
    16   18    6 1
    17   19    6 1
    18   20    7 1
    19   21   11 1
    20   22   12 1
    21   23   13 1
    22   24    3 ar
    23   25    9 ar
    24   26    8 1
    25   27   25 1
    26   28   24 1
    27   29    2 1
    28   30   31 ar
    29   31   32 ar
    30   32   33 ar
    31   33   40 ar
    32   34   35 ar
    33   35   36 ar
    34   36   37 ar
    35   37   38 ar
    36   38   39 ar
    37   39   34 ar
    38   40   41 ar
    39   41   30 ar
    40   42   50 1
    41   43   30 1
    42   44   31 1
    43   45   35 1
    44   46   36 1
    45   47   37 1
    46   48   41 1
    47   49   55 1
    48   51   42 1
    49   52   42 1
    50   53   33 ar
    51   54   39 ar
    52   55   32 1
    53   56   53 1
    54   57   54 1
    55   58   38 1
    56    4   24 ar
    57    6   29 1
    58    8    9 ar
    59   10   25 ar
    60   34   53 ar
    61   40   54 ar
    62   42   58 1
@<TRIPOS>SUBSTRUCTURE
     1 RES1 1
     2 RES2 30

@<TRIPOS>CRYSIN
  15.0800   29.3600    4.8700  90.0000  99.9000  90.0000  14 2

