# MOL2 file generated by ConQuest
# Please check atom types

@<TRIPOS>MOLECULE
MZACHX
    13    12     1
SMALL
NO_CHARGES
****
Generated from CSD

@<TRIPOS>ATOM
      1 O1         3.7710    1.7097    1.7092 O.3       1 RES1    0.0000
      2 N1         3.4147    3.0753    1.7092 N.2       1 RES1    0.0000
      3 C1         2.1526    3.2464    1.7092 C.2       1 RES1    0.0000
      4 C2         1.6342    4.6319    1.7092 C.3       1 RES1    0.0000
      5 O2         1.3385    2.1879    1.7092 O.3       1 RES1    0.0000
      6 C3        -0.0878    2.3883    1.7092 C.3       1 RES1    0.0000
      7 H1         4.7581    1.5689    1.7092 H         1 RES1    0.0000
      8 H2         1.0367    4.7255    0.8956 H         1 RES1    0.0000
      9 H3         2.2208    5.4343    1.7092 H         1 RES1    0.0000
     10 H4        -0.3165    2.9487    0.8956 H         1 RES1    0.0000
     11 H5        -0.7148    1.6161    1.7092 H         1 RES1    0.0000
     12 H2I        1.0367    4.7255    2.5229 H         1 RES1    0.0000
     13 H4I       -0.3165    2.9487    2.5229 H         1 RES1    0.0000
@<TRIPOS>BOND
     1    1    2 1
     2    2    3 2
     3    3    4 1
     4    4    8 1
     5    5    3 1
     6    6    5 1
     7    7    1 1
     8    9    4 1
     9   10    6 1
    10   11    6 1
    11   12    4 1
    12   13    6 1
@<TRIPOS>SUBSTRUCTURE
     1 RES1 1

@<TRIPOS>CRYSIN
  10.9130   10.9130    6.8370  90.0000  90.0000 120.0000 176 1

