# MOL2 file generated by ConQuest
# Please check atom types

@<TRIPOS>MOLECULE
NABHEE
    84    90     2
SMALL
NO_CHARGES
****
Generated from CSD

@<TRIPOS>ATOM
      1 C1         0.4774    4.6728   -2.3525 C.ar      1 RES1    0.0000
      2 C2         1.2100    5.6893   -2.9228 C.ar      1 RES1    0.0000
      3 H1         1.5307    5.6074   -3.8128 H         1 RES1    0.0000
      4 C3         1.4690    6.8100   -2.1991 C.ar      1 RES1    0.0000
      5 H2         1.9275    7.5416   -2.5987 H         1 RES1    0.0000
      6 C4         1.0567    6.8863   -0.8641 C.ar      1 RES1    0.0000
      7 C5         0.3473    5.8550   -0.3089 C.ar      1 RES1    0.0000
      8 H3         0.0764    5.9220    0.5984 H         1 RES1    0.0000
      9 C6         0.0132    4.7305   -1.0153 C.ar      1 RES1    0.0000
     10 H4        -0.5005    4.0287   -0.6308 H         1 RES1    0.0000
     11 C7         1.4206    8.1150   -0.0799 C.2       1 RES1    0.0000
     12 C8         1.7930    9.0012    2.1105 C.3       1 RES1    0.0000
     13 H5         1.9957    9.8464    1.6180 H         1 RES1    0.0000
     14 C9         0.7507    9.2227    3.1906 C.3       1 RES1    0.0000
     15 H6        -0.1633    9.1985    2.8104 H         1 RES1    0.0000
     16 H7         0.8894   10.0921    3.6421 H         1 RES1    0.0000
     17 C10        0.9701    8.0592    4.1649 C.3       1 RES1    0.0000
     18 H8         0.5796    8.2584    5.0506 H         1 RES1    0.0000
     19 H9         0.5733    7.2214    3.8149 H         1 RES1    0.0000
     20 C11        2.4815    7.9586    4.2405 C.3       1 RES1    0.0000
     21 H10        2.8313    8.5134    4.9965 H         1 RES1    0.0000
     22 C12        3.0562    6.5326    4.3096 C.3       1 RES1    0.0000
     23 H11        2.5928    5.9108    4.9425 H         1 RES1    0.0000
     24 C13        4.5886    6.6611    4.5040 C.3       1 RES1    0.0000
     25 H12        4.7990    7.2922    5.2385 H         1 RES1    0.0000
     26 H13        4.9934    5.7823    4.7114 H         1 RES1    0.0000
     27 C14        5.1016    7.2009    3.1539 C.3       1 RES1    0.0000
     28 H14        5.5419    8.0796    3.2641 H         1 RES1    0.0000
     29 H15        5.7395    6.5698    2.7348 H         1 RES1    0.0000
     30 C15        3.8148    7.3238    2.3179 C.3       1 RES1    0.0000
     31 C16        3.0374    8.4762    2.8752 C.3       1 RES1    0.0000
     32 H16        3.6610    9.2395    3.0437 H         1 RES1    0.0000
     33 C17        3.0303    6.1137    2.8342 C.3       1 RES1    0.0000
     34 H17        3.5017    5.2574    2.6722 H         1 RES1    0.0000
     35 H18        2.1117    6.0709    2.4670 H         1 RES1    0.0000
     36 N1         0.2211    3.4515   -3.1388 N.pl3     1 RES1    0.0000
     37 O1        -0.4950    2.5896   -2.6549 O.2       1 RES1    0.0000
     38 O2         0.7521    3.3678   -4.2578 O.2       1 RES1    0.0000
     39 O3         1.8691    9.1073   -0.6265 O.2       1 RES1    0.0000
     40 O4         1.2848    7.9642    1.2076 O.3       1 RES1    0.0000
     41 O5         4.0246    7.3145    0.9246 O.3       1 RES1    0.0000
     42 H19        4.3528    8.0499    0.6848 H         1 RES1    0.0000
     43 C18        4.1044    4.2986   -2.0479 C.ar      2 RES2    0.0000
     44 C19        3.8055    4.6169   -0.7474 C.ar      2 RES2    0.0000
     45 H20        3.9877    5.4770   -0.3867 H         2 RES2    0.0000
     46 C20        3.2158    3.6005    0.0216 C.ar      2 RES2    0.0000
     47 H21        2.9667    3.7811    0.9202 H         2 RES2    0.0000
     48 C21        2.9903    2.3457   -0.4990 C.ar      2 RES2    0.0000
     49 C22        3.3062    2.0888   -1.8038 C.ar      2 RES2    0.0000
     50 H22        3.1158    1.2306   -2.1667 H         2 RES2    0.0000
     51 C23        3.9025    3.0587   -2.6138 C.ar      2 RES2    0.0000
     52 H23        4.1552    2.8726   -3.5103 H         2 RES2    0.0000
     53 C24        2.3649    1.2510    0.3132 C.2       2 RES2    0.0000
     54 C25        1.5820    0.6050    2.4864 C.3       2 RES2    0.0000
     55 H24        1.5615   -0.3016    2.0652 H         2 RES2    0.0000
     56 C26        2.3576    0.5901    3.7609 C.3       2 RES2    0.0000
     57 H25        3.3279    0.6758    3.5838 H         2 RES2    0.0000
     58 H26        2.1937   -0.2457    4.2642 H         2 RES2    0.0000
     59 C27        1.8301    1.8095    4.5321 C.3       2 RES2    0.0000
     60 H27        2.2258    2.6473    4.1822 H         2 RES2    0.0000
     61 H28        2.0365    1.7351    5.4956 H         2 RES2    0.0000
     62 C28        0.3033    1.7760    4.2880 C.3       2 RES2    0.0000
     63 H29       -0.1457    1.2361    5.0009 H         2 RES2    0.0000
     64 C29       -0.4406    3.1090    4.0849 C.3       2 RES2    0.0000
     65 H30       -0.2293    3.8146    4.7611 H         2 RES2    0.0000
     66 C30       -1.9302    2.7646    3.9575 C.3       2 RES2    0.0000
     67 H31       -2.4964    3.5744    4.0331 H         2 RES2    0.0000
     68 H32       -2.2098    2.1055    4.6423 H         2 RES2    0.0000
     69 C31       -1.9924    2.1595    2.5339 C.3       2 RES2    0.0000
     70 H33       -2.3737    1.2473    2.5555 H         2 RES2    0.0000
     71 H34       -2.5477    2.7236    1.9377 H         2 RES2    0.0000
     72 C32       -0.5628    2.1298    2.0587 C.3       2 RES2    0.0000
     73 C33        0.1452    1.0705    2.8990 C.3       2 RES2    0.0000
     74 H35       -0.4483    0.2718    2.9962 H         2 RES2    0.0000
     75 C34       -0.0302    3.4590    2.6203 C.3       2 RES2    0.0000
     76 H36       -0.5071    4.2483    2.2617 H         2 RES2    0.0000
     77 H37        0.9473    3.5632    2.5058 H         2 RES2    0.0000
     78 N2         4.7041    5.3802   -2.8860 N.pl3     2 RES2    0.0000
     79 O6         5.0835    5.0582   -4.0029 O.2       2 RES2    0.0000
     80 O7         4.8239    6.4674   -2.4237 O.2       2 RES2    0.0000
     81 O8         2.0931    0.1676   -0.1750 O.2       2 RES2    0.0000
     82 O9         2.2304    1.6010    1.5921 O.3       2 RES2    0.0000
     83 O10       -0.4376    2.0348    0.6459 O.3       2 RES2    0.0000
     84 H38       -0.1134    1.2864    0.4428 H         2 RES2    0.0000
@<TRIPOS>BOND
     1    1    2 ar
     2    2    3 1
     3    4    2 ar
     4    5    4 1
     5    6    4 ar
     6    7    6 ar
     7    8    7 1
     8    9    1 ar
     9   10    9 1
    10   11    6 1
    11   12   13 1
    12   14   12 1
    13   15   14 1
    14   16   14 1
    15   17   14 1
    16   18   17 1
    17   19   17 1
    18   20   17 1
    19   21   20 1
    20   22   20 1
    21   23   22 1
    22   24   22 1
    23   25   24 1
    24   26   24 1
    25   27   24 1
    26   28   27 1
    27   29   27 1
    28   30   27 1
    29   31   12 1
    30   32   31 1
    31   33   22 1
    32   34   33 1
    33   35   33 1
    34   36    1 1
    35   37   36 2
    36   38   36 2
    37   39   11 2
    38   40   11 1
    39   41   30 1
    40   42   41 1
    41   43   44 ar
    42   44   45 1
    43   46   44 ar
    44   47   46 1
    45   48   46 ar
    46   49   48 ar
    47   50   49 1
    48   51   43 ar
    49   52   51 1
    50   53   48 1
    51   54   55 1
    52   56   54 1
    53   57   56 1
    54   58   56 1
    55   59   56 1
    56   60   59 1
    57   61   59 1
    58   62   59 1
    59   63   62 1
    60   64   62 1
    61   65   64 1
    62   66   64 1
    63   67   66 1
    64   68   66 1
    65   69   66 1
    66   70   69 1
    67   71   69 1
    68   72   69 1
    69   73   54 1
    70   74   73 1
    71   75   64 1
    72   76   75 1
    73   77   75 1
    74   78   43 1
    75   79   78 2
    76   80   78 2
    77   81   53 2
    78   82   53 1
    79   83   72 1
    80   84   83 1
    81    7    9 ar
    82   12   40 1
    83   20   31 1
    84   30   31 1
    85   30   33 1
    86   49   51 ar
    87   54   82 1
    88   62   73 1
    89   72   73 1
    90   72   75 1
@<TRIPOS>SUBSTRUCTURE
     1 RES1 1
     2 RES2 43

@<TRIPOS>CRYSIN
   7.6129   18.6167   21.6505  90.0000  93.8350  90.0000  14 1

