# MOL2 file generated by ConQuest
# Please check atom types

@<TRIPOS>MOLECULE
NABMOS
    51    51     3
SMALL
NO_CHARGES
****
Generated from CSD

@<TRIPOS>ATOM
      1 N1         0.2104    6.1383   12.4693 N.pl3     1 RES1    0.0000
      2 C1         1.5493    6.2386   13.0088 C.3       1 RES1    0.0000
      3 C2         1.3563    7.2522   14.0652 C.3       1 RES1    0.0000
      4 N2        -0.0959    7.1574   14.4356 N.pl3     1 RES1    0.0000
      5 C3        -0.9191    6.6070   13.3228 C.3       1 RES1    0.0000
      6 N3        -0.1232    5.1977   11.4693 N.pl3     1 RES1    0.0000
      7 N4        -0.6367    7.9846   15.2698 N.pl3     1 RES1    0.0000
      8 O1        -1.3683    5.0735   11.3276 O.2       1 RES1    0.0000
      9 O2         0.7926    4.6332   10.9652 O.2       1 RES1    0.0000
     10 O3        -1.8895    8.0020   15.3632 O.2       1 RES1    0.0000
     11 O4         0.1581    8.7388   15.8995 O.2       1 RES1    0.0000
     12 N5         0.2115    0.6997   17.0541 N.3       2 RES2    0.0000
     13 C4         1.5482    0.7139   16.4583 C.3       2 RES2    0.0000
     14 C5         1.4327    1.8528   15.3890 C.3       2 RES2    0.0000
     15 N6         0.0469    1.6675   15.0927 N.pl3     2 RES2    0.0000
     16 C6        -0.7479    1.0845   16.1008 C.3       2 RES2    0.0000
     17 N7        -0.0338   -0.2278   17.9350 N.pl3     2 RES2    0.0000
     18 N8        -0.5593    2.6376   14.2537 N.pl3     2 RES2    0.0000
     19 O5         0.9507   -0.7215   18.5309 O.2       2 RES2    0.0000
     20 O6        -1.1655   -0.4479   18.2539 O.2       2 RES2    0.0000
     21 O7         0.1396    3.2544   13.5241 O.2       2 RES2    0.0000
     22 O8        -1.7510    2.5863   14.2086 O.2       2 RES2    0.0000
     23 N9         0.0600    6.1612   17.8046 N.pl3     3 RES3    0.0000
     24 C7        -1.2975    6.1950   18.3586 C.3       3 RES3    0.0000
     25 C8        -1.1710    7.2794   19.4504 C.3       3 RES3    0.0000
     26 N10        0.1712    7.1814   19.7725 N.pl3     3 RES3    0.0000
     27 C9         1.0358    6.6135   18.7434 C.3       3 RES3    0.0000
     28 N11        0.3205    5.2283   16.9285 N.pl3     3 RES3    0.0000
     29 N12        0.7392    8.0609   20.6292 N.pl3     3 RES3    0.0000
     30 O9         1.4436    4.9765   16.6274 O.2       3 RES3    0.0000
     31 O10       -0.6476    4.6735   16.3439 O.2       3 RES3    0.0000
     32 O11        0.0120    8.7377   21.3088 O.2       3 RES3    0.0000
     33 O12        1.9625    8.1132   20.6357 O.2       3 RES3    0.0000
     34 H1         1.8491    5.4015   13.3712 H         1 RES1    0.0000
     35 H2         2.1730    6.5438   12.3469 H         1 RES1    0.0000
     36 H3         1.9058    7.0582   14.8270 H         1 RES1    0.0000
     37 H4         1.5624    8.1307   13.7367 H         1 RES1    0.0000
     38 H5        -1.4457    7.2849   12.8929 H         1 RES1    0.0000
     39 H6        -1.4904    5.8898   13.6063 H         1 RES1    0.0000
     40 H7         2.2166    0.9144   17.1169 H         2 RES2    0.0000
     41 H8         1.7499   -0.1286   16.0428 H         2 RES2    0.0000
     42 H9         1.9963    1.6992   14.6273 H         2 RES2    0.0000
     43 H10        1.6191    2.7193   15.7562 H         2 RES2    0.0000
     44 H11       -1.2222    0.3215   15.7610 H         2 RES2    0.0000
     45 H12       -1.3727    1.7144   16.4663 H         2 RES2    0.0000
     46 H13       -1.9484    6.4304   17.6935 H         3 RES3    0.0000
     47 H14       -1.5275    5.3470   18.7451 H         3 RES3    0.0000
     48 H15       -1.7379    7.0931   20.2009 H         3 RES3    0.0000
     49 H16       -1.3825    8.1481   19.0977 H         3 RES3    0.0000
     50 H17        1.5602    5.8833   19.0816 H         3 RES3    0.0000
     51 H18        1.6180    7.2751   18.3634 H         3 RES3    0.0000
@<TRIPOS>BOND
     1    1    2 1
     2    2    3 1
     3    3    4 1
     4    4    5 1
     5    5    1 1
     6    6    1 1
     7    7    4 1
     8    8    6 2
     9    9    6 2
    10   10    7 2
    11   11    7 2
    12   12   13 1
    13   13   14 1
    14   14   15 1
    15   15   16 1
    16   16   12 1
    17   17   12 1
    18   18   15 1
    19   19   17 2
    20   20   17 2
    21   21   18 2
    22   22   18 2
    23   23   24 1
    24   24   25 1
    25   25   26 1
    26   26   27 1
    27   27   23 1
    28   28   23 1
    29   29   26 1
    30   30   28 2
    31   31   28 2
    32   32   29 2
    33   33   29 2
    34   34    2 1
    35   35    2 1
    36   36    3 1
    37   37    3 1
    38   38    5 1
    39   39    5 1
    40   40   13 1
    41   41   13 1
    42   42   14 1
    43   43   14 1
    44   44   16 1
    45   45   16 1
    46   46   24 1
    47   47   24 1
    48   48   25 1
    49   49   25 1
    50   50   27 1
    51   51   27 1
@<TRIPOS>SUBSTRUCTURE
     1 RES1 1
     2 RES2 12
     3 RES3 23

@<TRIPOS>CRYSIN
  10.9030   10.8990   16.1040  90.0000  90.0000  90.0000  19 1

