# MOL2 file generated by ConQuest
# Please check atom types

@<TRIPOS>MOLECULE
NABMAE
    20    20     1
SMALL
NO_CHARGES
****
Generated from CSD

@<TRIPOS>ATOM
      1 C1        -3.6300    3.2179   13.4741 C.ar      1 RES1    0.0000
      2 C2        -3.4096    2.7429   14.8004 C.ar      1 RES1    0.0000
      3 C3        -2.2175    1.9986   14.9769 C.ar      1 RES1    0.0000
      4 C4        -1.2942    1.7406   13.9638 C.ar      1 RES1    0.0000
      5 C5        -1.5611    2.3045   12.6974 C.ar      1 RES1    0.0000
      6 C6        -2.7194    3.0096   12.4687 C.ar      1 RES1    0.0000
      7 N1        -4.8443    3.9431   13.1196 N.pl3     1 RES1    0.0000
      8 N2        -4.2442    2.9443   15.7981 N.3       1 RES1    0.0000
      9 N3        -1.9649    1.4225   16.3016 N.pl3     1 RES1    0.0000
     10 N4        -0.6652    2.1267   11.5861 N.pl3     1 RES1    0.0000
     11 O1        -4.9855    4.3066   11.9622 O.2       1 RES1    0.0000
     12 O2        -5.6896    4.1532   13.9838 O.2       1 RES1    0.0000
     13 O3        -2.1508    2.1398   17.2794 O.2       1 RES1    0.0000
     14 O4        -1.5886    0.2711   16.3829 O.2       1 RES1    0.0000
     15 O5        -0.1974    1.0285   14.2401 O.3       1 RES1    0.0000
     16 O6         0.3494    1.4242   11.7519 O.2       1 RES1    0.0000
     17 O7        -0.9093    2.6680   10.5300 O.2       1 RES1    0.0000
     18 H1        -2.9300    3.4010   11.6260 H         1 RES1    0.0000
     19 H2        -5.0561    3.4358   15.6538 H         1 RES1    0.0000
     20 H3        -4.0414    2.5991   16.6715 H         1 RES1    0.0000
@<TRIPOS>BOND
     1    1    2 ar
     2    2    3 ar
     3    3    4 ar
     4    4    5 ar
     5    5    6 ar
     6    6    1 ar
     7    7    1 1
     8    8    2 1
     9    9    3 1
    10   10    5 1
    11   11    7 2
    12   12    7 2
    13   13    9 2
    14   14    9 2
    15   15    4 1
    16   16   10 2
    17   17   10 2
    18   18    6 1
    19   19    8 1
    20   20    8 1
@<TRIPOS>SUBSTRUCTURE
     1 RES1 1

@<TRIPOS>CRYSIN
   6.6490    8.7160   15.6210  90.0000 100.6900  90.0000 231 1

