# MOL2 file generated by ConQuest
# Please check atom types

@<TRIPOS>MOLECULE
NABMUY01
    32    31     1
SMALL
NO_CHARGES
****
Generated from CSD

@<TRIPOS>ATOM
      1 O1        -0.4554   -0.5597   -0.9880 O.2       1 RES1    0.0000
      2 O2        -1.9871    0.4122    2.1606 O.2       1 RES1    0.0000
      3 O3        -0.5206    0.2379    3.7388 O.2       1 RES1    0.0000
      4 O4        -1.8775    3.4436    1.0056 O.2       1 RES1    0.0000
      5 O5        -2.4886    3.1476    3.0401 O.2       1 RES1    0.0000
      6 N1         0.0000    0.0000    0.0000 N.pl3     1 RES1    0.0000
      7 N2         0.0000    1.3674    0.0000 N.3       1 RES1    0.0000
      8 N3        -1.0474    0.8239    2.8173 N.pl3     1 RES1    0.0000
      9 N4        -1.7247    2.9882    2.1059 N.pl3     1 RES1    0.0000
     10 C1         0.4715    2.0421    1.1942 C.3       1 RES1    0.0000
     11 C2        -0.4682    2.1697    2.4079 C.3       1 RES1    0.0000
     12 C3         0.2781    2.8234    3.5512 C.3       1 RES1    0.0000
     13 H1         0.6988    2.9301    0.9381 H         1 RES1    0.0000
     14 H2         1.2469    1.6538    1.5538 H         1 RES1    0.0000
     15 H3         1.1040    2.2230    3.7427 H         1 RES1    0.0000
     16 H4         0.5203    3.7690    3.1955 H         1 RES1    0.0000
     17 H5        -0.2464    2.8522    4.3584 H         1 RES1    0.0000
     18 O1A        0.4554   -0.5597    0.9880 O.2       1 RES1    0.0000
     19 C1A       -0.4715    2.0421   -1.1942 C.3       1 RES1    0.0000
     20 C2A        0.4682    2.1697   -2.4079 C.3       1 RES1    0.0000
     21 N3A        1.0474    0.8239   -2.8173 N.pl3     1 RES1    0.0000
     22 O2A        1.9871    0.4122   -2.1606 O.2       1 RES1    0.0000
     23 O3A        0.5206    0.2379   -3.7388 O.2       1 RES1    0.0000
     24 N4A        1.7247    2.9882   -2.1059 N.pl3     1 RES1    0.0000
     25 O4A        1.8775    3.4436   -1.0056 O.2       1 RES1    0.0000
     26 O5A        2.4886    3.1476   -3.0401 O.2       1 RES1    0.0000
     27 C3A       -0.2781    2.8234   -3.5512 C.3       1 RES1    0.0000
     28 H3A       -1.1040    2.2230   -3.7427 H         1 RES1    0.0000
     29 H4A       -0.5203    3.7690   -3.1955 H         1 RES1    0.0000
     30 H5A        0.2464    2.8522   -4.3584 H         1 RES1    0.0000
     31 H1A       -0.6988    2.9301   -0.9381 H         1 RES1    0.0000
     32 H2A       -1.2469    1.6538   -1.5538 H         1 RES1    0.0000
@<TRIPOS>BOND
     1    1    6 2
     2    2    8 2
     3    3    8 2
     4    4    9 2
     5    5    9 2
     6    6    7 1
     7    7   10 1
     8    8   11 1
     9    9   11 1
    10   10   11 1
    11   11   12 1
    12   12   15 1
    13   13   10 1
    14   14   10 1
    15   16   12 1
    16   17   12 1
    17   18    6 2
    18   19    7 1
    19   20   19 1
    20   21   20 1
    21   22   21 2
    22   23   21 2
    23   24   20 1
    24   25   24 2
    25   26   24 2
    26   27   20 1
    27   28   27 1
    28   29   27 1
    29   30   27 1
    30   31   19 1
    31   32   19 1
@<TRIPOS>SUBSTRUCTURE
     1 RES1 1

@<TRIPOS>CRYSIN
  10.7260    5.9920   10.4000  90.0000 110.0100  90.0000   5 1

