# MOL2 file generated by ConQuest
# Please check atom types

@<TRIPOS>MOLECULE
NABMUY
    32    31     1
SMALL
NO_CHARGES
****
Generated from CSD

@<TRIPOS>ATOM
      1 N1        -2.7999    2.4997   14.4989 N.3       1 RES1    0.0000
      2 N2        -2.7999    3.8414   14.4989 N.pl3     1 RES1    0.0000
      3 N3        -1.7748    3.1002   17.2537 N.pl3     1 RES1    0.0000
      4 N4        -1.0808    0.9034   16.6273 N.pl3     1 RES1    0.0000
      5 O1        -3.2445    4.4043   15.4152 O.2       1 RES1    0.0000
      6 O2        -0.7640    3.4502   16.6911 O.2       1 RES1    0.0000
      7 O3        -2.4059    3.7579   18.0463 O.2       1 RES1    0.0000
      8 O4        -0.9249    0.4544   15.5293 O.2       1 RES1    0.0000
      9 O5        -0.3407    0.7358   17.5668 O.2       1 RES1    0.0000
     10 C1        -3.2702    1.8116   15.6936 C.3       1 RES1    0.0000
     11 C2        -2.3438    1.7227   16.8980 C.3       1 RES1    0.0000
     12 C3        -3.0678    1.1324   18.0656 C.3       1 RES1    0.0000
     13 H1        -4.0675    2.2618   15.9836 H         1 RES1    0.0000
     14 H2        -3.4860    0.9123   15.4365 H         1 RES1    0.0000
     15 H3        -3.8604    1.6434   18.2415 H         1 RES1    0.0000
     16 H4        -2.4970    1.1497   18.8369 H         1 RES1    0.0000
     17 H5        -3.3089    0.2248   17.8665 H         1 RES1    0.0000
     18 O1A       -2.3553    4.4043   13.5825 O.2       1 RES1    0.0000
     19 C1A       -2.3296    1.8116   13.3042 C.3       1 RES1    0.0000
     20 C2A       -3.2560    1.7227   12.0998 C.3       1 RES1    0.0000
     21 N3A       -3.8251    3.1002   11.7441 N.pl3     1 RES1    0.0000
     22 O2A       -4.8358    3.4502   12.3066 O.2       1 RES1    0.0000
     23 O3A       -3.1940    3.7579   10.9515 O.2       1 RES1    0.0000
     24 N4A       -4.5190    0.9034   12.3704 N.pl3     1 RES1    0.0000
     25 O4A       -4.6750    0.4544   13.4685 O.2       1 RES1    0.0000
     26 O5A       -5.2591    0.7358   11.4309 O.2       1 RES1    0.0000
     27 C3A       -2.5320    1.1324   10.9322 C.3       1 RES1    0.0000
     28 H3A       -1.7394    1.6434   10.7562 H         1 RES1    0.0000
     29 H4A       -3.1028    1.1497   10.1608 H         1 RES1    0.0000
     30 H5A       -2.2910    0.2248   11.1313 H         1 RES1    0.0000
     31 H1A       -1.5323    2.2618   13.0142 H         1 RES1    0.0000
     32 H2A       -2.1138    0.9123   13.5613 H         1 RES1    0.0000
@<TRIPOS>BOND
     1    1    2 1
     2    2    5 2
     3    3    6 2
     4    4    8 2
     5    7    3 2
     6    9    4 2
     7   10    1 1
     8   11    3 1
     9   12   11 1
    10   13   10 1
    11   14   10 1
    12   15   12 1
    13   16   12 1
    14   17   12 1
    15   18    2 2
    16   19    1 1
    17   20   19 1
    18   21   20 1
    19   22   21 2
    20   23   21 2
    21   24   20 1
    22   25   24 2
    23   26   24 2
    24   27   20 1
    25   28   27 1
    26   29   27 1
    27   30   27 1
    28   31   19 1
    29   32   19 1
    30    4   11 1
    31   10   11 1
@<TRIPOS>SUBSTRUCTURE
     1 RES1 1

@<TRIPOS>CRYSIN
  10.7910    5.9630   19.6890  90.0000 100.9300  90.0000  15 1

