# MOL2 file generated by ConQuest
# Please check atom types

@<TRIPOS>MOLECULE
NACBOJ
    48    51     1
SMALL
NO_CHARGES
****
Generated from CSD

@<TRIPOS>ATOM
      1 N1         1.3381    3.4319    8.3406 N.3       1 RES1    0.0000
      2 N2         2.5313   -3.5996   10.8598 N.pl3     1 RES1    0.0000
      3 O1         2.2503    1.8215    9.7582 O.3       1 RES1    0.0000
      4 O2        -0.5209    1.7157   11.7478 O.3       1 RES1    0.0000
      5 H1        -0.6075    0.9494   12.0278 H         1 RES1    0.0000
      6 O3        -0.6782    0.6840    9.7891 O.2       1 RES1    0.0000
      7 O4         2.5852   -3.9604   12.0212 O.2       1 RES1    0.0000
      8 O5         2.4732   -4.3831    9.9243 O.2       1 RES1    0.0000
      9 C1         2.3262    2.4023    8.3868 C.3       1 RES1    0.0000
     10 C2         2.1269    1.3553    7.3593 C.2       1 RES1    0.0000
     11 H2         1.9547    1.6305    6.4873 H         1 RES1    0.0000
     12 C3         2.1776    0.0623    7.5963 C.2       1 RES1    0.0000
     13 H3         2.0992   -0.5381    6.8899 H         1 RES1    0.0000
     14 C4         2.3531   -0.4387    8.9441 C.ar      1 RES1    0.0000
     15 C5         2.4259   -1.7801    9.2519 C.ar      1 RES1    0.0000
     16 H4         2.4085   -2.4166    8.5738 H         1 RES1    0.0000
     17 C6         2.5244   -2.1708   10.5673 C.ar      1 RES1    0.0000
     18 C7         2.5643   -1.2541   11.5946 C.ar      1 RES1    0.0000
     19 H5         2.6401   -1.5401   12.4768 H         1 RES1    0.0000
     20 C8         2.4916    0.0860   11.3034 C.ar      1 RES1    0.0000
     21 H6         2.5145    0.7161   11.9870 H         1 RES1    0.0000
     22 C9         2.3841    0.4925    9.9854 C.ar      1 RES1    0.0000
     23 C10        3.6749    3.1843    8.2843 C.3       1 RES1    0.0000
     24 C11        3.2711    4.5289    8.8347 C.ar      1 RES1    0.0000
     25 C12        4.0299    5.6127    9.2281 C.ar      1 RES1    0.0000
     26 H7         4.9577    5.5550    9.2576 H         1 RES1    0.0000
     27 C13        3.3789    6.7988    9.5819 C.ar      1 RES1    0.0000
     28 H8         3.8754    7.5341    9.8608 H         1 RES1    0.0000
     29 C14        2.0185    6.8810    9.5195 C.ar      1 RES1    0.0000
     30 H9         1.6035    7.6829    9.7440 H         1 RES1    0.0000
     31 C15        1.2410    5.8090    9.1351 C.ar      1 RES1    0.0000
     32 H10        0.3134    5.8744    9.1011 H         1 RES1    0.0000
     33 C16        1.8908    4.6300    8.7989 C.ar      1 RES1    0.0000
     34 C17       -0.0819    3.1640    8.4298 C.3       1 RES1    0.0000
     35 H11       -0.2652    2.3291    7.9705 H         1 RES1    0.0000
     36 H12       -0.5565    3.8662    7.9580 H         1 RES1    0.0000
     37 C18       -0.6429    3.0695    9.8483 C.3       1 RES1    0.0000
     38 H13       -0.1467    3.6781   10.4164 H         1 RES1    0.0000
     39 H14       -1.5659    3.3704    9.8336 H         1 RES1    0.0000
     40 C19       -0.5974    1.7143   10.4573 C.2       1 RES1    0.0000
     41 C20        4.8073    2.4937    9.0274 C.3       1 RES1    0.0000
     42 H15        5.6155    2.9999    8.9219 H         1 RES1    0.0000
     43 H16        4.9338    1.6115    8.6690 H         1 RES1    0.0000
     44 H17        4.5869    2.4326    9.9595 H         1 RES1    0.0000
     45 C21        4.0793    3.3858    6.8150 C.3       1 RES1    0.0000
     46 H18        3.3234    3.7043    6.3161 H         1 RES1    0.0000
     47 H19        4.3763    2.5507    6.4476 H         1 RES1    0.0000
     48 H20        4.7906    4.0281    6.7640 H         1 RES1    0.0000
@<TRIPOS>BOND
     1    1    9 1
     2    2    7 2
     3    3    9 1
     4    4    5 1
     5    6   40 2
     6    8    2 2
     7    9   10 1
     8   10   11 1
     9   12   10 2
    10   13   12 1
    11   14   12 1
    12   15   14 ar
    13   16   15 1
    14   17    2 1
    15   18   17 ar
    16   19   18 1
    17   20   18 ar
    18   21   20 1
    19   22    3 1
    20   23    9 1
    21   24   23 1
    22   25   24 ar
    23   26   25 1
    24   27   25 ar
    25   28   27 1
    26   29   27 ar
    27   30   29 1
    28   31   29 ar
    29   32   31 1
    30   33    1 1
    31   34    1 1
    32   35   34 1
    33   36   34 1
    34   37   34 1
    35   38   37 1
    36   39   37 1
    37   40    4 1
    38   41   23 1
    39   42   41 1
    40   43   41 1
    41   44   41 1
    42   45   23 1
    43   46   45 1
    44   47   45 1
    45   48   45 1
    46   14   22 ar
    47   15   17 ar
    48   20   22 ar
    49   24   33 ar
    50   31   33 ar
    51   37   40 1
@<TRIPOS>SUBSTRUCTURE
     1 RES1 1

@<TRIPOS>CRYSIN
  11.4060   14.5840   11.3600  90.0000  93.4440  90.0000  14 1

