# MOL2 file generated by ConQuest
# Please check atom types

@<TRIPOS>MOLECULE
NACDIG
    48    51     1
SMALL
NO_CHARGES
****
Generated from CSD

@<TRIPOS>ATOM
      1 N1        10.0040    5.0631    5.1714 N.pl3     1 RES1    0.0000
      2 O1         5.7916    5.4647    9.9814 O.2       1 RES1    0.0000
      3 O2         4.4391    5.2309    8.2203 O.3       1 RES1    0.0000
      4 O3         9.7976    5.1799    3.9912 O.2       1 RES1    0.0000
      5 O4        11.1217    4.9450    5.6429 O.2       1 RES1    0.0000
      6 C1         3.3161    5.4523    9.0900 C.3       1 RES1    0.0000
      7 H1         3.3721    6.3168    9.5490 H         1 RES1    0.0000
      8 C2         2.9726    4.3131   10.0501 C.3       1 RES1    0.0000
      9 H2         2.9944    4.5709   10.9845 H         1 RES1    0.0000
     10 H3         3.4904    3.5069    9.8995 H         1 RES1    0.0000
     11 C3         1.5569    4.2585    9.4553 C.3       1 RES1    0.0000
     12 H4         1.3169    3.3910    9.0947 H         1 RES1    0.0000
     13 H5         0.8690    4.5913   10.0533 H         1 RES1    0.0000
     14 C4         1.9909    5.2608    8.4046 C.2       1 RES1    0.0000
     15 C5         1.4799    5.8282    7.3196 C.2       1 RES1    0.0000
     16 C6         5.6439    5.3020    8.8051 C.2       1 RES1    0.0000
     17 C7         6.7460    5.1811    7.8286 C.ar      1 RES1    0.0000
     18 C8         6.5520    5.2566    6.4594 C.ar      1 RES1    0.0000
     19 H6         5.6877    5.3347    6.1269 H         1 RES1    0.0000
     20 C9         7.6008    5.2196    5.5867 C.ar      1 RES1    0.0000
     21 H7         7.4627    5.2788    4.6687 H         1 RES1    0.0000
     22 C10        8.8680    5.0934    6.1042 C.ar      1 RES1    0.0000
     23 C11        9.1045    5.0114    7.4531 C.ar      1 RES1    0.0000
     24 H8         9.9733    4.9241    7.7755 H         1 RES1    0.0000
     25 C12        8.0501    5.0592    8.3141 C.ar      1 RES1    0.0000
     26 H9         8.1987    5.0101    9.2305 H         1 RES1    0.0000
     27 C13        0.1376    5.5361    6.7537 C.ar      1 RES1    0.0000
     28 C14       -0.5759    4.3976    7.0659 C.ar      1 RES1    0.0000
     29 H10       -0.2255    3.7975    7.6834 H         1 RES1    0.0000
     30 C15       -1.7974    4.1289    6.4828 C.ar      1 RES1    0.0000
     31 H11       -2.2568    3.3541    6.7115 H         1 RES1    0.0000
     32 C16       -2.3328    4.9883    5.5781 C.ar      1 RES1    0.0000
     33 H12       -3.1446    4.7918    5.1683 H         1 RES1    0.0000
     34 C17       -1.6670    6.1409    5.2760 C.ar      1 RES1    0.0000
     35 H13       -2.0415    6.7492    4.6804 H         1 RES1    0.0000
     36 C18       -0.4323    6.4082    5.8537 C.ar      1 RES1    0.0000
     37 H14        0.0184    7.1898    5.6281 H         1 RES1    0.0000
     38 C19        2.3379    6.8244    6.6023 C.ar      1 RES1    0.0000
     39 C20        2.9767    6.5104    5.4306 C.ar      1 RES1    0.0000
     40 H15        2.8258    5.6798    5.0411 H         1 RES1    0.0000
     41 C21        3.8376    7.3930    4.8163 C.ar      1 RES1    0.0000
     42 H16        4.2751    7.1462    4.0325 H         1 RES1    0.0000
     43 C22        4.0466    8.6159    5.3517 C.ar      1 RES1    0.0000
     44 H17        4.6249    9.2140    4.9365 H         1 RES1    0.0000
     45 C23        3.4113    8.9688    6.4969 C.ar      1 RES1    0.0000
     46 H18        3.5506    9.8115    6.8630 H         1 RES1    0.0000
     47 C24        2.5536    8.0774    7.1237 C.ar      1 RES1    0.0000
     48 H19        2.1183    8.3301    7.9059 H         1 RES1    0.0000
@<TRIPOS>BOND
     1    1    4 2
     2    2   16 2
     3    3    6 1
     4    5    1 2
     5    6    7 1
     6    8    6 1
     7    9    8 1
     8   10    8 1
     9   11    8 1
    10   12   11 1
    11   13   11 1
    12   14    6 1
    13   15   14 2
    14   16    3 1
    15   17   16 1
    16   18   17 ar
    17   19   18 1
    18   20   18 ar
    19   21   20 1
    20   22    1 1
    21   23   22 ar
    22   24   23 1
    23   25   17 ar
    24   26   25 1
    25   27   15 1
    26   28   27 ar
    27   29   28 1
    28   30   28 ar
    29   31   30 1
    30   32   30 ar
    31   33   32 1
    32   34   32 ar
    33   35   34 1
    34   36   27 ar
    35   37   36 1
    36   38   15 1
    37   39   38 ar
    38   40   39 1
    39   41   39 ar
    40   42   41 1
    41   43   41 ar
    42   44   43 1
    43   45   43 ar
    44   46   45 1
    45   47   38 ar
    46   48   47 1
    47   11   14 1
    48   20   22 ar
    49   23   25 ar
    50   34   36 ar
    51   45   47 ar
@<TRIPOS>SUBSTRUCTURE
     1 RES1 1

@<TRIPOS>CRYSIN
  18.0830   13.6403    7.8790  90.0000  97.8090  90.0000  14 1

