# MOL2 file generated by ConQuest
# Please check atom types

@<TRIPOS>MOLECULE
NACGAB
    57    61     1
SMALL
NO_CHARGES
****
Generated from CSD

@<TRIPOS>ATOM
      1 C1         0.1756    3.7860    4.2922 C.ar      1 RES1    0.0000
      2 C2         0.8817    3.2639    5.3566 C.ar      1 RES1    0.0000
      3 H1         1.6617    3.6848    5.6386 H         1 RES1    0.0000
      4 C3        -1.4009    1.9953    4.5627 C.ar      1 RES1    0.0000
      5 H2        -2.1795    1.5657    4.2905 H         1 RES1    0.0000
      6 C4        -0.9752    3.1283    3.9024 C.ar      1 RES1    0.0000
      7 H3        -1.4696    3.4544    3.1850 H         1 RES1    0.0000
      8 C5         0.4489    2.1281    6.0082 C.ar      1 RES1    0.0000
      9 H4         0.9388    1.7905    6.7239 H         1 RES1    0.0000
     10 C6        -0.6876    1.5001    5.6113 C.ar      1 RES1    0.0000
     11 H5        -0.9771    0.7349    6.0540 H         1 RES1    0.0000
     12 C7         0.1313    7.4800    3.3361 C.ar      1 RES1    0.0000
     13 C8        -0.0598    6.3038    4.0529 C.ar      1 RES1    0.0000
     14 C9        -0.8693    6.3498    5.1836 C.ar      1 RES1    0.0000
     15 H6        -1.0040    5.5724    5.6752 H         1 RES1    0.0000
     16 C10       -0.4773    8.6475    3.7543 C.ar      1 RES1    0.0000
     17 H7        -0.3440    9.4333    3.2750 H         1 RES1    0.0000
     18 C11       -1.4729    7.5130    5.5922 C.ar      1 RES1    0.0000
     19 H8        -2.0104    7.5186    6.3511 H         1 RES1    0.0000
     20 C12       -1.2813    8.6610    4.8787 C.ar      1 RES1    0.0000
     21 H9        -1.6908    9.4515    5.1486 H         1 RES1    0.0000
     22 C13        0.6223    5.0346    3.5933 C.3       1 RES1    0.0000
     23 H10        0.4655    4.9275    2.6417 H         1 RES1    0.0000
     24 H11        1.5788    5.1337    3.7212 H         1 RES1    0.0000
     25 O1         2.3122    9.2981    2.5198 O.3       1 RES1    0.0000
     26 N1         0.9623    7.4276    2.1586 N.3       1 RES1    0.0000
     27 C14        2.3069    7.8493    2.3532 C.3       1 RES1    0.0000
     28 H12        2.6471    7.4397    3.1755 H         1 RES1    0.0000
     29 C15        3.5088    9.9569    2.4006 C.ar      1 RES1    0.0000
     30 C16        4.6377    7.9195    1.4500 C.3       1 RES1    0.0000
     31 H13        5.1371    7.8397    0.6107 H         1 RES1    0.0000
     32 C17        3.2043    7.4375    1.2029 C.3       1 RES1    0.0000
     33 H14        3.2179    6.4578    1.1682 H         1 RES1    0.0000
     34 C18        4.6460    9.3679    1.8708 C.ar      1 RES1    0.0000
     35 C19        2.6279    7.9434   -0.1124 C.3       1 RES1    0.0000
     36 H15        2.6632    8.9120   -0.1326 H         1 RES1    0.0000
     37 H16        3.1585    7.6061   -0.8510 H         1 RES1    0.0000
     38 C20        3.5109   11.2825    2.8145 C.ar      1 RES1    0.0000
     39 H17        2.7389   11.6607    3.1696 H         1 RES1    0.0000
     40 C21        5.7887   10.1605    1.7541 C.ar      1 RES1    0.0000
     41 H18        6.5640    9.7933    1.3943 H         1 RES1    0.0000
     42 C22        0.3484    7.9196    0.9125 C.3       1 RES1    0.0000
     43 H19        0.2926    8.8880    0.9338 H         1 RES1    0.0000
     44 H20       -0.5505    7.5651    0.8261 H         1 RES1    0.0000
     45 C23        1.1866    7.4815   -0.2661 C.3       1 RES1    0.0000
     46 H21        0.8146    7.8517   -1.0818 H         1 RES1    0.0000
     47 H22        1.1636    6.5139   -0.3361 H         1 RES1    0.0000
     48 C24        4.6533   12.0350    2.6997 C.ar      1 RES1    0.0000
     49 H23        4.6591   12.9200    2.9850 H         1 RES1    0.0000
     50 C25        5.7913   11.4771    2.1612 C.ar      1 RES1    0.0000
     51 H24        6.5628   11.9896    2.0713 H         1 RES1    0.0000
     52 C26        5.3625    7.0929    2.5223 C.3       1 RES1    0.0000
     53 H25        6.2266    7.4933    2.7045 H         1 RES1    0.0000
     54 H26        4.8459    7.1110    3.3436 H         1 RES1    0.0000
     55 N2         5.5558    5.6878    2.0973 N.pl3     1 RES1    0.0000
     56 O2         4.9307    4.8347    2.6642 O.2       1 RES1    0.0000
     57 O3         6.3349    5.4850    1.1871 O.2       1 RES1    0.0000
@<TRIPOS>BOND
     1    1    2 ar
     2    2    3 1
     3    4    5 1
     4    6    1 ar
     5    7    6 1
     6    8    2 ar
     7    9    8 1
     8   10    4 ar
     9   11   10 1
    10   12   13 ar
    11   13   14 ar
    12   14   15 1
    13   16   12 ar
    14   17   16 1
    15   18   14 ar
    16   19   18 1
    17   20   16 ar
    18   21   20 1
    19   22    1 1
    20   23   22 1
    21   24   22 1
    22   25   27 1
    23   26   12 1
    24   27   26 1
    25   28   27 1
    26   29   25 1
    27   30   31 1
    28   32   27 1
    29   33   32 1
    30   34   29 ar
    31   35   32 1
    32   36   35 1
    33   37   35 1
    34   38   29 ar
    35   39   38 1
    36   40   34 ar
    37   41   40 1
    38   42   26 1
    39   43   42 1
    40   44   42 1
    41   45   35 1
    42   46   45 1
    43   47   45 1
    44   48   38 ar
    45   49   48 1
    46   50   40 ar
    47   51   50 1
    48   52   30 1
    49   53   52 1
    50   54   52 1
    51   55   52 1
    52   56   55 2
    53   57   55 2
    54    4    6 ar
    55    8   10 ar
    56   13   22 1
    57   18   20 ar
    58   30   32 1
    59   30   34 1
    60   42   45 1
    61   48   50 ar
@<TRIPOS>SUBSTRUCTURE
     1 RES1 1

@<TRIPOS>CRYSIN
   8.9828   10.4604   12.0419  84.8880  80.1350  82.6590   2 1

