# MOL2 file generated by ConQuest
# Please check atom types

@<TRIPOS>MOLECULE
NADHOP
    64    64     3
SMALL
NO_CHARGES
****
Generated from CSD

@<TRIPOS>ATOM
      1 C1         7.7675    5.6768    0.4423 C.3       1 RES1    0.0000
      2 C2         6.4895    3.7458    1.3981 C.3       1 RES1    0.0000
      3 C3         6.8188    2.4637   -0.7811 C.3       1 RES1    0.0000
      4 C4         8.1759    4.4039   -1.7196 C.3       1 RES1    0.0000
      5 C5         8.7878    3.3819    0.4790 C.3       1 RES1    0.0000
      6 C6         7.3898    2.8245    0.5933 C.3       1 RES1    0.0000
      7 C7         8.6531    4.6765   -0.3021 C.3       1 RES1    0.0000
      8 C8         4.6040   -1.2698    6.8720 C.3       2 RES2    0.0000
      9 C9         3.0844   -2.0332    4.9452 C.3       2 RES2    0.0000
     10 C10        3.7432    0.1037    3.6766 C.3       2 RES2    0.0000
     11 C11        5.1968    0.8315    5.5321 C.3       2 RES2    0.0000
     12 C12        2.7887    0.2400    6.0046 C.3       2 RES2    0.0000
     13 C13        2.7960   -0.5637    4.6885 C.3       2 RES2    0.0000
     14 C14        4.2248    0.1610    6.5138 C.3       2 RES2    0.0000
     15 N1         6.4983    5.0497    0.7314 N.3       1 RES1    0.0000
     16 N2         6.9330    3.6297   -1.6549 N.3       1 RES1    0.0000
     17 N3         5.4281    5.8719    0.9601 N.pl3     1 RES1    0.0000
     18 N4         6.2318    3.5445   -2.8243 N.pl3     1 RES1    0.0000
     19 N5        10.0424    5.3036   -0.3841 N.pl3     1 RES1    0.0000
     20 N6         7.4513    1.5005    1.3614 N.pl3     1 RES1    0.0000
     21 N7         4.3200   -2.1400    5.7241 N.3       2 RES2    0.0000
     22 N8         5.0827    0.1920    4.2289 N.3       2 RES2    0.0000
     23 N9         4.8250   -3.4129    5.8234 N.pl3     2 RES2    0.0000
     24 N10        5.9874   -0.8006    3.8902 N.pl3     2 RES2    0.0000
     25 N11        4.3478    0.9848    7.7954 N.pl3     2 RES2    0.0000
     26 N12        1.4273   -0.4584    4.0282 N.pl3     2 RES2    0.0000
     27 O1         5.5819    7.0705    0.7616 O.2       1 RES1    0.0000
     28 O2         4.3858    5.3516    1.3334 O.2       1 RES1    0.0000
     29 O3         6.5319    4.3157   -3.7240 O.2       1 RES1    0.0000
     30 O4         5.3227    2.7331   -2.8804 O.2       1 RES1    0.0000
     31 O5        10.5430    5.4801   -1.4672 O.2       1 RES1    0.0000
     32 O6        10.5928    5.5916    0.6365 O.2       1 RES1    0.0000
     33 O7         8.3969    0.7789    1.1133 O.2       1 RES1    0.0000
     34 O8         8.1407    1.1923    2.0670 Du        3 SUP3    0.0000
     35 O9         6.3489    0.8315    1.3010 O.2       1 RES1    0.0000
     36 O10        6.8628    1.3921    2.3302 Du        3 SUP3    0.0000
     37 O11        7.0326   -0.8408    4.5137 O.2       2 RES2    0.0000
     38 O12        5.6829   -1.5392    2.9689 O.2       2 RES2    0.0000
     39 O13        5.6624   -3.6204    6.7015 O.2       2 RES2    0.0000
     40 O14        4.4210   -4.2367    5.0099 O.2       2 RES2    0.0000
     41 O15        0.9647    0.6628    3.8858 O.2       2 RES2    0.0000
     42 O16        0.8783   -1.4850    3.6442 O.2       2 RES2    0.0000
     43 O17        5.2671    0.7154    8.5355 O.2       2 RES2    0.0000
     44 O18        3.6451    1.9201    7.9572 O.2       2 RES2    0.0000
     45 H1         7.6269    6.4541   -0.1036 H         1 RES1    0.0000
     46 H2         8.1934    5.9369    1.2644 H         1 RES1    0.0000
     47 H3         6.8232    3.8310    2.2935 H         1 RES1    0.0000
     48 H4         5.5965    3.3943    1.4219 H         1 RES1    0.0000
     49 H5         5.8951    2.2159   -0.6926 H         1 RES1    0.0000
     50 H6         7.3122    1.7297   -1.1543 H         1 RES1    0.0000
     51 H7         8.8434    3.9038   -2.1964 H         1 RES1    0.0000
     52 H8         8.0163    5.2355   -2.1727 H         1 RES1    0.0000
     53 H9         9.1508    3.5538    1.3507 H         1 RES1    0.0000
     54 H10        9.3572    2.7672    0.0108 H         1 RES1    0.0000
     55 H11        4.0901   -1.5578    7.6314 H         2 RES2    0.0000
     56 H12        5.5379   -1.3116    7.0856 H         2 RES2    0.0000
     57 H13        3.1884   -2.4931    4.1102 H         2 RES2    0.0000
     58 H14        2.3583   -2.4234    5.4372 H         2 RES2    0.0000
     59 H15        3.4241    0.9864    3.4781 H         2 RES2    0.0000
     60 H16        3.7666   -0.4181    2.8718 H         2 RES2    0.0000
     61 H17        6.0957    0.7371    5.8557 H         2 RES2    0.0000
     62 H18        4.9817    1.7637    5.4523 H         2 RES2    0.0000
     63 H19        2.1827   -0.1518    6.6368 H         2 RES2    0.0000
     64 H20        2.5384    1.1521    5.8406 H         2 RES2    0.0000
@<TRIPOS>BOND
     1    1    7 1
     2    2    6 1
     3    3    6 1
     4    4    7 1
     5    5    6 1
     6    6   20 1
     7    7    5 1
     8    8   14 1
     9    9   13 1
    10   10   13 1
    11   11   14 1
    12   12   13 1
    13   13   26 1
    14   14   12 1
    15   15    1 1
    16   16    3 1
    17   17   15 1
    18   18   16 1
    19   19    7 1
    20   20   33 2
    21   21    8 1
    22   22   10 1
    23   23   21 1
    24   24   22 1
    25   25   14 1
    26   26   41 2
    27   27   17 2
    28   28   17 2
    29   29   18 2
    30   30   18 2
    31   31   19 2
    32   32   19 2
    33   35   20 2
    34   37   24 2
    35   38   24 2
    36   39   23 2
    37   40   23 2
    38   42   26 2
    39   43   25 2
    40   44   25 2
    41   45    1 1
    42   46    1 1
    43   47    2 1
    44   48    2 1
    45   49    3 1
    46   50    3 1
    47   51    4 1
    48   52    4 1
    49   53    5 1
    50   54    5 1
    51   55    8 1
    52   56    8 1
    53   57    9 1
    54   58    9 1
    55   59   10 1
    56   60   10 1
    57   61   11 1
    58   62   11 1
    59   63   12 1
    60   64   12 1
    61    2   15 1
    62    4   16 1
    63    9   21 1
    64   11   22 1
@<TRIPOS>SUBSTRUCTURE
     1 RES1 1
     2 RES2 8
     3 SUP3 34

@<TRIPOS>CRYSIN
  14.6390   15.4850   21.5760  90.0000  90.0000  90.0000  61 1

