# MOL2 file generated by ConQuest
# Please check atom types

@<TRIPOS>MOLECULE
NADLEJ
    49    52     1
SMALL
NO_CHARGES
****
Generated from CSD

@<TRIPOS>ATOM
      1 O1         8.8764    3.4787    1.9390 O.3       1 RES1    0.0000
      2 O2         7.3920   -0.3209    2.4349 O.3       1 RES1    0.0000
      3 O3        11.0869    1.2839    2.3083 O.3       1 RES1    0.0000
      4 O4        12.9519    2.4004    1.9022 O.2       1 RES1    0.0000
      5 N1         7.9131    2.6270    2.6474 N.3       1 RES1    0.0000
      6 C1         8.0167    0.3005    3.5592 C.3       1 RES1    0.0000
      7 H1         7.3341    0.5715    4.2000 H         1 RES1    0.0000
      8 C2         8.7867    1.5360    3.1186 C.3       1 RES1    0.0000
      9 H2         9.3382    1.8452    3.8607 H         1 RES1    0.0000
     10 C3         9.6928    1.3085    1.9126 C.3       1 RES1    0.0000
     11 H3         9.4998    0.4714    1.4855 H         1 RES1    0.0000
     12 C4        11.7802    2.2588    1.6795 C.2       1 RES1    0.0000
     13 C5        10.9077    3.0122    0.7466 C.3       1 RES1    0.0000
     14 H4        11.1240    2.7716   -0.1604 H         1 RES1    0.0000
     15 H5        11.0346    3.9592    0.9166 H         1 RES1    0.0000
     16 C6         9.5109    2.5528    1.0593 C.3       1 RES1    0.0000
     17 H6         8.9644    2.3819    0.2768 H         1 RES1    0.0000
     18 C7         8.9340   -0.7196    4.1747 C.3       1 RES1    0.0000
     19 H7         9.3708   -0.3527    4.9478 H         1 RES1    0.0000
     20 H8         9.5973   -1.0059    3.5180 H         1 RES1    0.0000
     21 H9         8.4240   -1.4957    4.4515 H         1 RES1    0.0000
     22 C8         7.4052    3.4650    3.7314 C.3       1 RES1    0.0000
     23 H10        8.1234    3.8199    4.2878 H         1 RES1    0.0000
     24 H11        6.9257    2.8587    4.3198 H         1 RES1    0.0000
     25 C9         6.5397    4.5874    3.2202 C.ar      1 RES1    0.0000
     26 C10        6.8678    5.9067    3.4473 C.ar      1 RES1    0.0000
     27 H12        7.6419    6.1158    3.9096 H         1 RES1    0.0000
     28 C11        6.0887    6.9224    2.9525 C.ar      1 RES1    0.0000
     29 H13        6.3477    7.8064    3.1095 H         1 RES1    0.0000
     30 C12        4.9734    6.6448    2.2192 C.ar      1 RES1    0.0000
     31 H14        4.4248    7.3132    1.8535 H         1 RES1    0.0000
     32 C13        4.6107    5.3363    2.0097 C.ar      1 RES1    0.0000
     33 H15        3.8306    5.1349    1.5429 H         1 RES1    0.0000
     34 C14        5.3817    4.3141    2.5080 C.ar      1 RES1    0.0000
     35 H16        5.1339    3.4182    2.4207 H         1 RES1    0.0000
     36 C15        6.0176   -0.0523    2.2875 C.3       1 RES1    0.0000
     37 H17        5.8967    0.9122    2.2165 H         1 RES1    0.0000
     38 H18        5.5574   -0.3494    3.0943 H         1 RES1    0.0000
     39 C16        5.4863   -0.7087    1.0586 C.ar      1 RES1    0.0000
     40 C17        4.1252   -0.6303    0.7850 C.ar      1 RES1    0.0000
     41 H19        3.6132   -0.1285    1.3775 H         1 RES1    0.0000
     42 C18        3.6000   -1.1920   -0.3393 C.ar      1 RES1    0.0000
     43 H20        2.6888   -1.1376   -0.5318 H         1 RES1    0.0000
     44 C19        4.3944   -1.8604   -1.2121 C.ar      1 RES1    0.0000
     45 H21        4.0764   -2.2697   -1.9869 H         1 RES1    0.0000
     46 C20        5.7454   -1.9540   -0.9656 C.ar      1 RES1    0.0000
     47 H22        6.3203   -2.4733   -1.4838 H         1 RES1    0.0000
     48 C21        6.2848   -1.3760    0.1680 C.ar      1 RES1    0.0000
     49 H23        7.1949   -1.4555    0.3579 H         1 RES1    0.0000
@<TRIPOS>BOND
     1    1    5 1
     2    2    6 1
     3    3   10 1
     4    4   12 2
     5    5    8 1
     6    6    7 1
     7    8    6 1
     8    9    8 1
     9   10    8 1
    10   11   10 1
    11   12    3 1
    12   13   12 1
    13   14   13 1
    14   15   13 1
    15   16    1 1
    16   17   16 1
    17   18    6 1
    18   19   18 1
    19   20   18 1
    20   21   18 1
    21   22    5 1
    22   23   22 1
    23   24   22 1
    24   25   22 1
    25   26   25 ar
    26   27   26 1
    27   28   26 ar
    28   29   28 1
    29   30   28 ar
    30   31   30 1
    31   32   30 ar
    32   33   32 1
    33   34   25 ar
    34   35   34 1
    35   36    2 1
    36   37   36 1
    37   38   36 1
    38   39   36 1
    39   40   39 ar
    40   41   40 1
    41   42   40 ar
    42   43   42 1
    43   44   42 ar
    44   45   44 1
    45   46   44 ar
    46   47   46 1
    47   48   39 ar
    48   49   48 1
    49   10   16 1
    50   13   16 1
    51   32   34 ar
    52   46   48 ar
@<TRIPOS>SUBSTRUCTURE
     1 RES1 1

@<TRIPOS>CRYSIN
  10.1580   10.8860   16.8810  90.0000  90.0000  90.0000  19 1

