# MOL2 file generated by ConQuest
# Please check atom types

@<TRIPOS>MOLECULE
NADMEN
    61    65     1
SMALL
NO_CHARGES
****
Generated from CSD

@<TRIPOS>ATOM
      1 C1         5.6768    9.5280    8.9466 C.ar      1 RES1    0.0000
      2 H1         5.3085   10.3651    8.7790 H         1 RES1    0.0000
      3 C2         5.3063    8.8176   10.0686 C.ar      1 RES1    0.0000
      4 H2         4.6789    9.1733   10.6548 H         1 RES1    0.0000
      5 C3         5.8663    7.5741   10.3266 C.ar      1 RES1    0.0000
      6 C4         5.9007    5.6194   11.6679 C.3       1 RES1    0.0000
      7 H3         5.7701    5.0897   10.8769 H         1 RES1    0.0000
      8 H4         5.4217    5.2253   12.4000 H         1 RES1    0.0000
      9 H5         6.8371    5.6531   11.8784 H         1 RES1    0.0000
     10 C5         6.7967    7.0423    9.4553 C.ar      1 RES1    0.0000
     11 H6         7.1803    6.2124    9.6267 H         1 RES1    0.0000
     12 C6         7.1530    7.7578    8.3247 C.ar      1 RES1    0.0000
     13 H7         7.7729    7.4011    7.7300 H         1 RES1    0.0000
     14 C7         6.6010    8.9850    8.0731 C.ar      1 RES1    0.0000
     15 C8         3.2178    9.1569    3.7309 C.3       1 RES1    0.0000
     16 H8         2.8892    8.3380    4.1079 H         1 RES1    0.0000
     17 H9         3.3098    9.0581    2.7802 H         1 RES1    0.0000
     18 H10        2.5999    9.8675    3.9194 H         1 RES1    0.0000
     19 C9         4.8974    9.1109    5.5842 C.2       1 RES1    0.0000
     20 C10        6.2734    9.7205    5.7539 C.2       1 RES1    0.0000
     21 C11        6.6451   10.2938    4.5966 C.2       1 RES1    0.0000
     22 C12        5.5374   10.1671    3.6549 C.2       1 RES1    0.0000
     23 C13        9.4598   10.6750    2.2926 C.ar      1 RES1    0.0000
     24 H11        9.3461   11.5865    2.1441 H         1 RES1    0.0000
     25 C14       10.2735    9.9360    1.4454 C.ar      1 RES1    0.0000
     26 H12       10.7091   10.3431    0.7321 H         1 RES1    0.0000
     27 C15       10.4224    8.5910    1.6800 C.ar      1 RES1    0.0000
     28 C16        9.7668    7.9455    2.7004 C.ar      1 RES1    0.0000
     29 H13        9.8584    7.0277    2.8219 H         1 RES1    0.0000
     30 C17        8.9667    8.6962    3.5425 C.ar      1 RES1    0.0000
     31 H14        8.5215    8.2771    4.2432 H         1 RES1    0.0000
     32 C18        8.8157   10.0663    3.3600 C.ar      1 RES1    0.0000
     33 C19        7.9924   10.8921    4.3477 C.3       1 RES1    0.0000
     34 H15        7.8789   11.7974    3.9911 H         1 RES1    0.0000
     35 C20        8.6939   10.9744    5.6899 C.2       1 RES1    0.0000
     36 C21        9.9436   11.7411    5.7117 C.2       1 RES1    0.0000
     37 C22       10.8562   11.6212    6.8954 C.3       1 RES1    0.0000
     38 H16       10.8412   12.4619    7.3785 H         1 RES1    0.0000
     39 H17       11.7602   11.4883    6.5701 H         1 RES1    0.0000
     40 C23       10.5321   10.5025    7.8740 C.3       1 RES1    0.0000
     41 C24       10.9442    9.1374    7.3206 C.3       1 RES1    0.0000
     42 H18       10.5025    8.9855    6.4822 H         1 RES1    0.0000
     43 H19       10.6944    8.4506    7.9428 H         1 RES1    0.0000
     44 H20       11.8955    9.1199    7.1888 H         1 RES1    0.0000
     45 C25       11.2533   10.7565    9.1953 C.3       1 RES1    0.0000
     46 H21       12.2020   10.7443    9.0496 H         1 RES1    0.0000
     47 H22       11.0171   10.0721    9.8256 H         1 RES1    0.0000
     48 H23       10.9946   11.6144    9.5423 H         1 RES1    0.0000
     49 C26        9.0211   10.5164    8.1125 C.3       1 RES1    0.0000
     50 H24        8.7842    9.7833    8.7015 H         1 RES1    0.0000
     51 H25        8.7757   11.3440    8.5535 H         1 RES1    0.0000
     52 C27        8.2504   10.3916    6.8378 C.2       1 RES1    0.0000
     53 N1         7.0252    9.7076    6.8895 N.pl3     1 RES1    0.0000
     54 N2         4.5124    9.4733    4.3127 N.am      1 RES1    0.0000
     55 N3        11.3596    7.8259    0.8357 N.pl3     1 RES1    0.0000
     56 O1         5.4214    6.9306   11.4410 O.3       1 RES1    0.0000
     57 O2         4.2727    8.4179    6.3384 O.2       1 RES1    0.0000
     58 O3         5.4641   10.5672    2.5142 O.2       1 RES1    0.0000
     59 O4        11.3842    6.6234    0.9558 O.2       1 RES1    0.0000
     60 O5        12.0711    8.4328    0.0644 O.2       1 RES1    0.0000
     61 O6        10.2361   12.4743    4.7706 O.2       1 RES1    0.0000
@<TRIPOS>BOND
     1    1    2 1
     2    3    1 ar
     3    4    3 1
     4    5    3 ar
     5    6    7 1
     6    8    6 1
     7    9    6 1
     8   10    5 ar
     9   11   10 1
    10   12   10 ar
    11   13   12 1
    12   14    1 ar
    13   15   16 1
    14   17   15 1
    15   18   15 1
    16   19   20 1
    17   20   21 2
    18   21   22 1
    19   22   54 1
    20   23   24 1
    21   25   23 ar
    22   26   25 1
    23   27   25 ar
    24   28   27 ar
    25   29   28 1
    26   30   28 ar
    27   31   30 1
    28   32   23 ar
    29   33   21 1
    30   34   33 1
    31   35   33 1
    32   36   35 1
    33   37   36 1
    34   38   37 1
    35   39   37 1
    36   40   37 1
    37   41   40 1
    38   42   41 1
    39   43   41 1
    40   44   41 1
    41   45   40 1
    42   46   45 1
    43   47   45 1
    44   48   45 1
    45   49   40 1
    46   50   49 1
    47   51   49 1
    48   52   35 2
    49   53   14 1
    50   54   15 1
    51   55   27 1
    52   56    5 1
    53   57   19 2
    54   58   22 2
    55   59   55 2
    56   60   55 2
    57   61   36 2
    58    6   56 1
    59   12   14 ar
    60   19   54 1
    61   20   53 1
    62   30   32 ar
    63   32   33 1
    64   49   52 1
    65   52   53 1
@<TRIPOS>SUBSTRUCTURE
     1 RES1 1

@<TRIPOS>CRYSIN
   9.8773   10.7530   12.1284  72.6320  84.7940  80.2030   2 1

