# MOL2 file generated by ConQuest
# Please check atom types

@<TRIPOS>MOLECULE
NADROZ
   137   140     2
SMALL
NO_CHARGES
****
Generated from CSD

@<TRIPOS>ATOM
      1 N1         0.2078    3.5121    8.2256 N.3       1 RES1    0.0000
      2 C1         1.5505    3.7991    8.0370 C.2       1 RES1    0.0000
      3 C2         2.2941    4.8931    8.7321 C.3       1 RES1    0.0000
      4 C3         3.8031    4.6166    8.6981 C.3       1 RES1    0.0000
      5 C4         4.5662    5.8937    9.0049 C.3       1 RES1    0.0000
      6 C5         4.1743    3.5246    9.7114 C.3       1 RES1    0.0000
      7 N2         4.1935    4.1619    7.3314 N.3       1 RES1    0.0000
      8 O1         5.4127    4.3746    6.9755 O.2       1 RES1    0.0000
      9 C6         3.4887    3.0795    6.5720 C.3       1 RES1    0.0000
     10 C7         3.5072    3.4856    5.0964 C.3       1 RES1    0.0000
     11 C8         4.2439    1.7542    6.7438 C.3       1 RES1    0.0000
     12 C9         2.0709    2.9950    7.0789 C.2       1 RES1    0.0000
     13 C10        1.0113    2.1434    6.6047 C.ar      1 RES1    0.0000
     14 C11        0.9077    1.1176    5.6539 C.ar      1 RES1    0.0000
     15 C12       -0.3203    0.5311    5.4400 C.ar      1 RES1    0.0000
     16 C13       -1.4525    0.9529    6.1387 C.ar      1 RES1    0.0000
     17 C14       -1.3901    1.9343    7.1074 C.ar      1 RES1    0.0000
     18 C15       -0.1371    2.5075    7.3380 C.ar      1 RES1    0.0000
     19 N3        -0.0318    2.0385   12.3379 N.3       1 RES1    0.0000
     20 C16        1.0537    1.1176   12.6695 C.3       1 RES1    0.0000
     21 C17        1.3019    0.0445   11.6443 C.3       1 RES1    0.0000
     22 O2         2.1958    0.5094   10.6351 O.3       1 RES1    0.0000
     23 C18        2.6807   -0.5213    9.7772 C.3       1 RES1    0.0000
     24 C19        1.7308   -0.9118    8.6945 C.3       1 RES1    0.0000
     25 O3         0.7326   -1.7929    9.1972 O.3       1 RES1    0.0000
     26 C20       -0.3740   -1.9023    8.3108 C.3       1 RES1    0.0000
     27 C21       -0.5272    2.7100   13.5479 C.3       1 RES1    0.0000
     28 C22        0.2670    2.9519   11.2349 C.3       1 RES1    0.0000
     29 C23       -0.9621    3.2021   10.4018 C.3       1 RES1    0.0000
     30 H1        -1.1849    2.3379   10.0222 H         1 RES1    0.0000
     31 H2        -1.4116    3.8194   10.9703 Du        2 SUP2    0.0000
     32 O4        -2.0875    3.5848   11.1089 O.3       1 RES1    0.0000
     33 H3        -2.3260    3.0498   11.7689 H         1 RES1    0.0000
     34 O5        -1.8649    2.4811   10.1392 Du        2 SUP2    0.0000
     35 H4        -2.0200    1.8672   10.9394 Du        2 SUP2    0.0000
     36 C24       -0.7028    4.1084    9.1992 C.3       1 RES1    0.0000
     37 H5         2.0150    5.0103    9.6613 H         1 RES1    0.0000
     38 H6         2.0713    5.7486    8.2773 H         1 RES1    0.0000
     39 H7         4.4558    6.5159    8.3809 H         1 RES1    0.0000
     40 H8         4.2186    6.3002    9.8980 H         1 RES1    0.0000
     41 H9         5.5784    5.7765    8.9445 H         1 RES1    0.0000
     42 H10        3.5610    2.7546    9.6365 H         1 RES1    0.0000
     43 H11        5.0997    3.2998    9.5959 H         1 RES1    0.0000
     44 H12        4.0830    3.8621   10.6171 H         1 RES1    0.0000
     45 H13        3.0309    4.3375    4.9321 H         1 RES1    0.0000
     46 H14        4.3814    3.6239    4.7811 H         1 RES1    0.0000
     47 H15        3.0867    2.7375    4.5241 H         1 RES1    0.0000
     48 H16        4.2463    1.4616    7.7182 H         1 RES1    0.0000
     49 H17        3.8047    1.0345    6.2237 H         1 RES1    0.0000
     50 H18        5.1603    1.8618    6.3860 H         1 RES1    0.0000
     51 H19        1.6203    0.8156    5.1350 H         1 RES1    0.0000
     52 H20       -0.3840   -0.1749    4.8059 H         1 RES1    0.0000
     53 H21       -2.2607    0.5312    5.9532 H         1 RES1    0.0000
     54 H22       -2.1688    2.1966    7.6100 H         1 RES1    0.0000
     55 H23        0.7958    0.6353   13.5046 H         1 RES1    0.0000
     56 H24        1.9122    1.6107   12.7856 H         1 RES1    0.0000
     57 H25        1.7514   -0.7748   12.0800 H         1 RES1    0.0000
     58 H26        0.4794   -0.2329   11.2144 H         1 RES1    0.0000
     59 H27        2.9712   -1.3103   10.3556 H         1 RES1    0.0000
     60 H28        3.5307   -0.1545    9.3164 H         1 RES1    0.0000
     61 H29        2.1634   -1.3639    7.9684 H         1 RES1    0.0000
     62 H30        1.3251   -0.0794    8.2840 H         1 RES1    0.0000
     63 H31       -0.0894   -2.3179    7.4748 H         1 RES1    0.0000
     64 H32       -0.6977   -0.9250    8.0563 H         1 RES1    0.0000
     65 H33       -0.9260    3.4919   13.2567 H         1 RES1    0.0000
     66 H34        0.2604    2.9467   14.2147 H         1 RES1    0.0000
     67 H35        0.9687    2.5915   10.6486 H         1 RES1    0.0000
     68 H36        0.6330    3.8288   11.5773 H         1 RES1    0.0000
     69 H37       -1.5352    4.3557    8.7777 H         1 RES1    0.0000
     70 H38       -0.3078    4.9330    9.5193 H         1 RES1    0.0000
     71 C21B      -1.4489   -2.7100    8.9936 C.3       1 RES1    0.0000
     72 N3B       -1.9443   -2.0385   10.2037 N.3       1 RES1    0.0000
     73 C16B      -3.0298   -1.1176    9.8721 C.3       1 RES1    0.0000
     74 C17B      -3.2779   -0.0445   10.8973 C.3       1 RES1    0.0000
     75 O2B       -4.1719   -0.5094   11.9064 O.3       1 RES1    0.0000
     76 C18B      -4.6568    0.5213   12.7644 C.3       1 RES1    0.0000
     77 C19B      -3.7069    0.9118   13.8470 C.3       1 RES1    0.0000
     78 O3B       -2.7087    1.7929   13.3444 O.3       1 RES1    0.0000
     79 C20B      -1.6021    1.9023   14.2307 C.3       1 RES1    0.0000
     80 H31B      -1.8867    2.3179   15.0668 H         1 RES1    0.0000
     81 H32B      -1.2784    0.9250   14.4852 H         1 RES1    0.0000
     82 H29B      -4.1395    1.3639   14.5731 H         1 RES1    0.0000
     83 H30B      -3.3012    0.0794   14.2575 H         1 RES1    0.0000
     84 H27B      -4.9473    1.3103   12.1860 H         1 RES1    0.0000
     85 H28B      -5.5068    0.1545   13.2251 H         1 RES1    0.0000
     86 H25B      -3.7275    0.7748   10.4615 H         1 RES1    0.0000
     87 H26B      -2.4555    0.2329   11.3271 H         1 RES1    0.0000
     88 H23B      -2.7719   -0.6353    9.0369 H         1 RES1    0.0000
     89 H24B      -3.8883   -1.6107    9.7560 H         1 RES1    0.0000
     90 C22B      -2.2431   -2.9519   11.3066 C.3       1 RES1    0.0000
     91 C23B      -1.0140   -3.2021   12.1398 C.3       1 RES1    0.0000
     92 H1B       -0.7912   -2.3379   12.5194 H         1 RES1    0.0000
     93 O4B        0.1114   -3.5848   11.4326 O.3       1 RES1    0.0000
     94 H3B        0.3499   -3.0498   10.7726 H         1 RES1    0.0000
     95 C24B      -1.2733   -4.1084   13.3423 C.3       1 RES1    0.0000
     96 N1B       -2.1839   -3.5121   14.3159 N.pl3     1 RES1    0.0000
     97 C1B       -3.5266   -3.7991   14.5046 C.2       1 RES1    0.0000
     98 C2B       -4.2702   -4.8931   13.8094 C.3       1 RES1    0.0000
     99 C3B       -5.7792   -4.6166   13.8434 C.3       1 RES1    0.0000
    100 C4B       -6.5423   -5.8937   13.5367 C.3       1 RES1    0.0000
    101 H7B       -6.4319   -6.5159   14.1606 H         1 RES1    0.0000
    102 H8B       -6.1947   -6.3002   12.6436 H         1 RES1    0.0000
    103 H9B       -7.5545   -5.7765   13.5971 H         1 RES1    0.0000
    104 C5B       -6.1504   -3.5246   12.8302 C.3       1 RES1    0.0000
    105 H10B      -5.5371   -2.7546   12.9050 H         1 RES1    0.0000
    106 H11B      -7.0758   -3.2998   12.9456 H         1 RES1    0.0000
    107 H12B      -6.0590   -3.8621   11.9245 H         1 RES1    0.0000
    108 N2B       -6.1696   -4.1619   15.2101 N.3       1 RES1    0.0000
    109 O1B       -7.3888   -4.3746   15.5661 O.2       1 RES1    0.0000
    110 C6B       -5.4648   -3.0795   15.9696 C.3       1 RES1    0.0000
    111 C7B       -5.4833   -3.4856   17.4451 C.3       1 RES1    0.0000
    112 H13B      -5.0070   -4.3375   17.6095 H         1 RES1    0.0000
    113 H14B      -6.3575   -3.6239   17.7605 H         1 RES1    0.0000
    114 H15B      -5.0628   -2.7375   18.0175 H         1 RES1    0.0000
    115 C8B       -6.2200   -1.7542   15.7978 C.3       1 RES1    0.0000
    116 H16B      -6.2224   -1.4616   14.8233 H         1 RES1    0.0000
    117 H17B      -5.7808   -1.0345   16.3178 H         1 RES1    0.0000
    118 H18B      -7.1364   -1.8618   16.1555 H         1 RES1    0.0000
    119 C9B       -4.0470   -2.9950   15.4626 C.2       1 RES1    0.0000
    120 C10B      -2.9874   -2.1434   15.9369 C.ar      1 RES1    0.0000
    121 C11B      -2.8838   -1.1176   16.8877 C.ar      1 RES1    0.0000
    122 C12B      -1.6558   -0.5311   17.1016 C.ar      1 RES1    0.0000
    123 C13B      -0.5236   -0.9529   16.4028 C.ar      1 RES1    0.0000
    124 C14B      -0.5860   -1.9343   15.4342 C.ar      1 RES1    0.0000
    125 C15B      -1.8390   -2.5075   15.2036 C.ar      1 RES1    0.0000
    126 H22B       0.1928   -2.1966   14.9315 H         1 RES1    0.0000
    127 H21B       0.2846   -0.5312   16.5883 H         1 RES1    0.0000
    128 H20B      -1.5921    0.1749   17.7357 H         1 RES1    0.0000
    129 H19B      -3.5964   -0.8156   17.4066 H         1 RES1    0.0000
    130 H5B       -3.9911   -5.0103   12.8802 H         1 RES1    0.0000
    131 H6B       -4.0474   -5.7486   14.2643 H         1 RES1    0.0000
    132 H37B      -0.4409   -4.3557   13.7639 H         1 RES1    0.0000
    133 H38B      -1.6683   -4.9330   13.0223 H         1 RES1    0.0000
    134 H35B      -2.9448   -2.5915   11.8929 H         1 RES1    0.0000
    135 H36B      -2.6091   -3.8288   10.9642 H         1 RES1    0.0000
    136 H33B      -1.0501   -3.4919    9.2849 H         1 RES1    0.0000
    137 H34B      -2.2365   -2.9467    8.3268 H         1 RES1    0.0000
@<TRIPOS>BOND
     1    1    2 1
     2    2    3 1
     3    3    4 1
     4    4    5 1
     5    5   39 1
     6    6    4 1
     7    7    4 1
     8    8    7 1
     9    9    7 1
    10   10    9 1
    11   11    9 1
    12   12    2 2
    13   13   12 1
    14   14   13 ar
    15   15   14 ar
    16   16   15 ar
    17   17   16 ar
    18   18    1 1
    19   19   20 1
    20   20   21 1
    21   21   22 1
    22   22   23 1
    23   23   24 1
    24   24   25 1
    25   25   26 1
    26   26   63 1
    27   27   19 1
    28   28   19 1
    29   29   28 1
    30   30   29 1
    31   32   29 1
    32   33   32 1
    33   36    1 1
    34   37    3 1
    35   38    3 1
    36   40    5 1
    37   41    5 1
    38   42    6 1
    39   43    6 1
    40   44    6 1
    41   45   10 1
    42   46   10 1
    43   47   10 1
    44   48   11 1
    45   49   11 1
    46   50   11 1
    47   51   14 1
    48   52   15 1
    49   53   16 1
    50   54   17 1
    51   55   20 1
    52   56   20 1
    53   57   21 1
    54   58   21 1
    55   59   23 1
    56   60   23 1
    57   61   24 1
    58   62   24 1
    59   64   26 1
    60   65   27 1
    61   66   27 1
    62   67   28 1
    63   68   28 1
    64   69   36 1
    65   70   36 1
    66   71   26 1
    67   72   71 1
    68   73   72 1
    69   74   73 1
    70   75   74 1
    71   76   75 1
    72   77   76 1
    73   78   77 1
    74   79   27 1
    75   80   79 1
    76   81   79 1
    77   82   77 1
    78   83   77 1
    79   84   76 1
    80   85   76 1
    81   86   74 1
    82   87   74 1
    83   88   73 1
    84   89   73 1
    85   90   72 1
    86   91   90 1
    87   92   91 1
    88   93   91 1
    89   94   93 1
    90   95   91 1
    91   96   95 1
    92   97   96 1
    93   98   97 1
    94   99   98 1
    95  100   99 1
    96  101  100 1
    97  102  100 1
    98  103  100 1
    99  104   99 1
   100  105  104 1
   101  106  104 1
   102  107  104 1
   103  108   99 1
   104  109  108 1
   105  110  108 1
   106  111  110 1
   107  112  111 1
   108  113  111 1
   109  114  111 1
   110  115  110 1
   111  116  115 1
   112  117  115 1
   113  118  115 1
   114  119   97 2
   115  120  119 1
   116  121  120 ar
   117  122  121 ar
   118  123  122 ar
   119  124  123 ar
   120  125   96 1
   121  126  124 1
   122  127  123 1
   123  128  122 1
   124  129  121 1
   125  130   98 1
   126  131   98 1
   127  132   95 1
   128  133   95 1
   129  134   90 1
   130  135   90 1
   131  136   71 1
   132  137   71 1
   133    9   12 1
   134   13   18 ar
   135   17   18 ar
   136   29   36 1
   137   78   79 1
   138  110  119 1
   139  120  125 ar
   140  124  125 ar
@<TRIPOS>SUBSTRUCTURE
     1 RES1 1
     2 SUP2 31

@<TRIPOS>CRYSIN
   9.5590   10.7310   22.6280  90.0000  95.0100  90.0000  14 1

