# MOL2 file generated by ConQuest
# Please check atom types

@<TRIPOS>MOLECULE
NAGFOQ
    64    66     2
SMALL
NO_CHARGES
****
Generated from CSD

@<TRIPOS>ATOM
      1 O1         7.8706    4.0886    1.9621 O.3       1 RES1    0.0000
      2 O2         4.8258    2.8154    0.6308 O.3       1 RES1    0.0000
      3 O3         7.0802    0.6795    1.2196 O.3       1 RES1    0.0000
      4 O4         9.0584    1.5246    1.9177 O.2       1 RES1    0.0000
      5 O5         7.3986    6.3268    2.2217 O.3       1 RES1    0.0000
      6 N1         3.9058    3.9519    0.4464 N.2       1 RES1    0.0000
      7 C1         4.5202    5.0284    0.8360 C.2       1 RES1    0.0000
      8 C2         5.8433    4.7217    1.2906 C.2       1 RES1    0.0000
      9 C3         7.0364    5.1349    1.8259 C.2       1 RES1    0.0000
     10 C4         7.1977    2.9275    1.5239 C.2       1 RES1    0.0000
     11 C5         5.9627    3.3414    1.1278 C.2       1 RES1    0.0000
     12 C6         3.8523    6.3560    0.7594 C.3       1 RES1    0.0000
     13 H1         2.9032    6.2323    0.5521 H         1 RES1    0.0000
     14 H2         4.2735    6.8927    0.0550 H         1 RES1    0.0000
     15 H3         3.9415    6.8165    1.6188 H         1 RES1    0.0000
     16 C7         7.9058    1.6720    1.5865 C.2       1 RES1    0.0000
     17 C8         7.6653   -0.6413    1.2066 C.3       1 RES1    0.0000
     18 H4         7.0282   -1.2763    0.8182 H         1 RES1    0.0000
     19 H5         7.8786   -0.9123    2.1247 H         1 RES1    0.0000
     20 H6         8.4854   -0.6303    0.6708 H         1 RES1    0.0000
     21 C9         8.7564    6.5337    2.7268 C.3       1 RES1    0.0000
     22 H7         9.4184    6.4036    2.0023 H         1 RES1    0.0000
     23 H8         8.9556    5.8938    3.4562 H         1 RES1    0.0000
     24 C10        8.8110    7.9427    3.2389 C.3       1 RES1    0.0000
     25 H9         9.7274    8.1257    3.5661 H         1 RES1    0.0000
     26 H10        8.1951    8.0239    4.0096 H         1 RES1    0.0000
     27 C11        8.4399    9.0025    2.1996 C.3       1 RES1    0.0000
     28 H11        8.8935    9.8500    2.4370 H         1 RES1    0.0000
     29 H12        8.7830    8.7150    1.3178 H         1 RES1    0.0000
     30 C12        7.0002    9.2594    2.0822 C.1       1 RES1    0.0000
     31 C13        5.8496    9.5112    2.0023 C.1       1 RES1    0.0000
     32 H13        4.9240    9.7139    1.9373 H         1 RES1    0.0000
     33 O6         5.6204    1.9844    4.4313 O.3       2 RES2    0.0000
     34 O7         8.2349    4.0964    5.6009 O.3       2 RES2    0.0000
     35 O8         8.9869    1.0694    5.2344 O.3       2 RES2    0.0000
     36 O9         7.3046   -0.2877    4.5727 O.2       2 RES2    0.0000
     37 O10        3.8524    3.4510    4.2451 O.3       2 RES2    0.0000
     38 N2         7.6829    5.4529    5.7454 N.2       2 RES2    0.0000
     39 C14        6.4387    5.4259    5.3648 C.2       2 RES2    0.0000
     40 C15        6.0718    4.1050    4.9554 C.2       2 RES2    0.0000
     41 C16        5.1090    3.2308    4.5254 C.2       2 RES2    0.0000
     42 C17        6.9799    2.0346    4.8267 C.2       2 RES2    0.0000
     43 C18        7.2210    3.3409    5.1377 C.2       2 RES2    0.0000
     44 C19        5.6072    6.6570    5.3811 C.3       2 RES2    0.0000
     45 H14        6.1352    7.4038    5.7333 H         2 RES2    0.0000
     46 H15        4.8229    6.5133    5.9519 H         2 RES2    0.0000
     47 H16        5.3141    6.8662    4.4705 H         2 RES2    0.0000
     48 C20        7.7289    0.8168    4.8497 C.2       2 RES2    0.0000
     49 C21        9.8634   -0.0720    5.2899 C.3       2 RES2    0.0000
     50 H17        9.4897   -0.7423    5.8982 H         2 RES2    0.0000
     51 H18       10.7449    0.2093    5.6146 H         2 RES2    0.0000
     52 H19        9.9540   -0.4581    4.3943 H         2 RES2    0.0000
     53 C22        3.0183    2.3485    3.7635 C.3       2 RES2    0.0000
     54 H20        3.1504    1.5463    4.3281 H         2 RES2    0.0000
     55 H21        3.2581    2.1197    2.8304 H         2 RES2    0.0000
     56 C23        1.5902    2.8093    3.8372 C.3       2 RES2    0.0000
     57 H22        1.3837    3.0543    4.7740 H         2 RES2    0.0000
     58 H23        1.0008    2.0532    3.5899 H         2 RES2    0.0000
     59 C24        1.2628    4.0021    2.9353 C.3       2 RES2    0.0000
     60 H24        1.7244    3.8766    2.0685 H         2 RES2    0.0000
     61 H25        0.2891    4.0025    2.7567 H         2 RES2    0.0000
     62 C25        1.6350    5.3068    3.4750 C.1       2 RES2    0.0000
     63 C26        1.8907    6.3797    3.9059 C.1       2 RES2    0.0000
     64 H26        2.0973    7.2405    4.2506 H         2 RES2    0.0000
@<TRIPOS>BOND
     1    1    9 1
     2    2    6 1
     3    3   16 1
     4    4   16 2
     5    5    9 1
     6    6    7 2
     7    7    8 1
     8    8    9 2
     9   10    1 1
    10   11    2 1
    11   12    7 1
    12   13   12 1
    13   14   12 1
    14   15   12 1
    15   16   10 1
    16   17    3 1
    17   18   17 1
    18   19   17 1
    19   20   17 1
    20   21    5 1
    21   22   21 1
    22   23   21 1
    23   24   21 1
    24   25   24 1
    25   26   24 1
    26   27   24 1
    27   28   27 1
    28   29   27 1
    29   30   27 1
    30   31   30 3
    31   32   31 1
    32   33   41 1
    33   34   38 1
    34   35   48 1
    35   36   48 2
    36   37   41 1
    37   38   39 2
    38   39   40 1
    39   40   41 2
    40   42   33 1
    41   43   34 1
    42   44   39 1
    43   45   44 1
    44   46   44 1
    45   47   44 1
    46   48   42 1
    47   49   35 1
    48   50   49 1
    49   51   49 1
    50   52   49 1
    51   53   37 1
    52   54   53 1
    53   55   53 1
    54   56   53 1
    55   57   56 1
    56   58   56 1
    57   59   56 1
    58   60   59 1
    59   61   59 1
    60   62   59 1
    61   63   62 3
    62   64   63 1
    63    8   11 1
    64   10   11 2
    65   40   43 1
    66   42   43 2
@<TRIPOS>SUBSTRUCTURE
     1 RES1 1
     2 RES2 33

@<TRIPOS>CRYSIN
  10.1710   10.7290   13.4290  69.0700  86.2200  66.2700   2 1

