# MOL2 file generated by ConQuest
# Please check atom types

@<TRIPOS>MOLECULE
NAGFOS
   163   167     4
SMALL
NO_CHARGES
****
Generated from CSD

@<TRIPOS>ATOM
      1 O1         6.1085    7.6473    1.1682 O.3       1 RES1    0.0000
      2 O2         2.2952   12.1568    2.6373 O.3       1 RES1    0.0000
      3 O3         1.0636    8.9551    3.2586 O.3       1 RES1    0.0000
      4 O4         2.4057    6.0860    2.9457 O.2       1 RES1    0.0000
      5 O5         3.6276    7.0946    4.5028 O.3       1 RES1    0.0000
      6 O6         5.6310    5.8951    2.4413 O.2       1 RES1    0.0000
      7 C1         3.0989    6.9605   -0.0729 C.3       1 RES1    0.0000
      8 H1         2.4638    6.2801    0.2005 H         1 RES1    0.0000
      9 H2         3.9332    6.5360   -0.3281 H         1 RES1    0.0000
     10 N1         3.0488   12.6268    1.5511 N.2       1 RES1    0.0000
     11 O7         0.6732   10.8838    4.3145 O.2       1 RES1    0.0000
     12 O8         2.1538    9.0977   -0.6107 O.3       1 RES1    0.0000
     13 C2         5.3530    6.9646    1.9962 C.2       1 RES1    0.0000
     14 C3         2.6708   10.4198    1.2913 C.2       1 RES1    0.0000
     15 C4         3.2640    6.8632    3.2556 C.2       1 RES1    0.0000
     16 C5         3.3090    7.9816    1.0057 C.2       1 RES1    0.0000
     17 C6         1.2134   10.2444    3.4607 C.2       1 RES1    0.0000
     18 C7         2.0909   10.8463    2.4352 C.2       1 RES1    0.0000
     19 C8         4.0559    7.7080    2.2727 C.3       1 RES1    0.0000
     20 H3         4.2710    8.5638    2.6996 H         1 RES1    0.0000
     21 C9         3.2486   11.6309    0.7444 C.2       1 RES1    0.0000
     22 C10        2.7390    9.1203    0.6426 C.2       1 RES1    0.0000
     23 C11        0.1268    8.3043    4.1534 C.3       1 RES1    0.0000
     24 H4         0.0763    7.3703    3.9392 H         1 RES1    0.0000
     25 H5        -0.7405    8.7038    4.0532 H         1 RES1    0.0000
     26 H6         0.4248    8.4102    5.0604 H         1 RES1    0.0000
     27 C12        2.5414    7.8235   -1.2047 C.3       1 RES1    0.0000
     28 H7         3.2152    7.9620   -1.8883 H         1 RES1    0.0000
     29 H8         1.7724    7.3926   -1.6103 H         1 RES1    0.0000
     30 C13        7.3458    7.0195    0.7687 C.3       1 RES1    0.0000
     31 H9         7.8193    7.5982    0.1671 H         1 RES1    0.0000
     32 H10        7.1548    6.1881    0.3281 H         1 RES1    0.0000
     33 H11        7.8855    6.8539    1.5450 H         1 RES1    0.0000
     34 C14        3.9733   11.7778   -0.5044 C.3       1 RES1    0.0000
     35 H12        4.2416   12.6928   -0.6122 H         1 RES1    0.0000
     36 H13        3.4072   11.5211   -1.2351 H         1 RES1    0.0000
     37 H14        4.7521   11.2165   -0.4907 H         1 RES1    0.0000
     38 C15        3.0379    6.2788    5.5298 C.3       1 RES1    0.0000
     39 H15        3.3817    6.5447    6.3866 H         1 RES1    0.0000
     40 H16        3.2536    5.3569    5.3703 H         1 RES1    0.0000
     41 H17        2.0842    6.3919    5.5207 H         1 RES1    0.0000
     42 O9        -2.4842   -9.7026   10.2225 O.2       2 RES2    0.0000
     43 O10        0.7861   -9.8963   10.5461 O.2       2 RES2    0.0000
     44 O11       -0.2997   -8.7441   12.1139 O.3       2 RES2    0.0000
     45 O12        2.5653   -4.9669   11.9058 O.2       2 RES2    0.0000
     46 O13        1.0059   -3.6912   10.1618 O.3       2 RES2    0.0000
     47 O14        2.1884   -6.9141   10.8773 O.3       2 RES2    0.0000
     48 O15        1.1272   -6.8019    6.9487 O.3       2 RES2    0.0000
     49 N2         0.2833   -3.2251    9.0710 N.2       2 RES2    0.0000
     50 C16        0.2046   -8.9143    7.5154 C.3       2 RES2    0.0000
     51 H18       -0.6437   -9.3086    7.2571 H         2 RES2    0.0000
     52 H19        0.8126   -9.6178    7.7903 H         2 RES2    0.0000
     53 C17        0.0246   -9.0306   10.8530 C.2       2 RES2    0.0000
     54 C18        0.5743   -6.7589    8.2005 C.2       2 RES2    0.0000
     55 C19        0.6485   -5.4474    8.8370 C.2       2 RES2    0.0000
     56 C20        0.0227   -7.8971    8.6016 C.2       2 RES2    0.0000
     57 C21       -0.7082   -8.1217    9.8883 C.3       2 RES2    0.0000
     58 H20       -0.8426   -7.2525   10.3228 H         2 RES2    0.0000
     59 C22        1.2100   -5.0210    9.9855 C.2       2 RES2    0.0000
     60 C23       -2.0723   -8.7530    9.6452 C.2       2 RES2    0.0000
     61 C24        2.0656   -5.6104   11.0444 C.2       2 RES2    0.0000
     62 C25        0.7863   -8.0980    6.4003 C.3       2 RES2    0.0000
     63 H21        1.5777   -8.5312    6.0448 H         2 RES2    0.0000
     64 H22        0.1404   -8.0014    5.6832 H         2 RES2    0.0000
     65 C26        0.0949   -4.2405    8.2871 C.2       2 RES2    0.0000
     66 C27        3.0915   -7.5658   11.8025 C.3       2 RES2    0.0000
     67 H23        3.1209   -8.5066   11.6126 H         2 RES2    0.0000
     68 H24        2.7820   -7.4308   12.7018 H         2 RES2    0.0000
     69 H25        3.9713   -7.1922   11.7083 H         2 RES2    0.0000
     70 C28        0.2310   -9.6030   13.1348 C.3       2 RES2    0.0000
     71 H26       -0.0689   -9.3015   13.9962 H         2 RES2    0.0000
     72 H27        1.1901   -9.5808   13.1044 H         2 RES2    0.0000
     73 H28       -0.0737  -10.5011   12.9874 H         2 RES2    0.0000
     74 C29       -0.6216   -4.0864    6.9852 C.3       2 RES2    0.0000
     75 H29       -0.8837   -3.1706    6.8712 H         2 RES2    0.0000
     76 H30       -1.4018   -4.6455    6.9806 H         2 RES2    0.0000
     77 H31       -0.0395   -4.3445    6.2666 H         2 RES2    0.0000
     78 O16       -2.7500   -8.0925    8.7216 O.3       2 RES2    0.0000
     79 C30       -4.0376   -8.6218    8.3600 C.3       2 RES2    0.0000
     80 H32       -4.4349   -8.0654    7.6870 H         2 RES2    0.0000
     81 H33       -4.6048   -8.6397    9.1348 H         2 RES2    0.0000
     82 H34       -3.9328   -9.5133    8.0197 H         2 RES2    0.0000
     83 O17        1.4966    0.3825    6.7223 O.3       3 RES3    0.0000
     84 O18       -1.0206   -0.3949    4.5803 O.3       3 RES3    0.0000
     85 N3         0.9819   -2.2247    0.9677 N.2       3 RES3    0.0000
     86 O19        0.2318   -2.5112    2.0995 O.3       3 RES3    0.0000
     87 O20        3.4537    2.5872    5.7789 O.2       3 RES3    0.0000
     88 O21        0.0304    1.9005    1.4235 O.3       3 RES3    0.0000
     89 O22       -1.3701   -2.5769    4.2263 O.2       3 RES3    0.0000
     90 O23        0.2471    2.1161    6.1116 O.2       3 RES3    0.0000
     91 O24        3.9558    1.8833    3.7372 O.3       3 RES3    0.0000
     92 C31        1.1331    1.7922    3.4090 C.2       3 RES3    0.0000
     93 C32        0.0141   -1.3482    2.7482 C.2       3 RES3    0.0000
     94 C33        1.8715    1.2208    4.5803 C.3       3 RES3    0.0000
     95 H35        2.0724    0.2797    4.3950 H         3 RES3    0.0000
     96 C34        1.1001    1.3039    5.8822 C.2       3 RES3    0.0000
     97 C35        0.6046    1.1034    2.3988 C.2       3 RES3    0.0000
     98 C36        3.1867    1.9696    4.7854 C.2       3 RES3    0.0000
     99 C37       -0.8609   -1.5341    3.9514 C.2       3 RES3    0.0000
    100 C38        0.5719   -0.3151    2.1117 C.2       3 RES3    0.0000
    101 C39        0.3802    3.2630    1.7546 C.3       3 RES3    0.0000
    102 H36       -0.3982    3.8384    1.6832 H         3 RES3    0.0000
    103 H37        1.0633    3.5923    1.1500 H         3 RES3    0.0000
    104 C40        1.8898   -0.2736   -0.1443 C.3       3 RES3    0.0000
    105 H38        2.1782   -0.9317   -0.7809 H         3 RES3    0.0000
    106 H39        2.6544    0.1872    0.2081 H         3 RES3    0.0000
    107 H40        1.3070    0.3553   -0.5758 H         3 RES3    0.0000
    108 C41        1.1710   -0.9343    0.9495 C.2       3 RES3    0.0000
    109 C42        0.8936    3.2519    3.1675 C.3       3 RES3    0.0000
    110 H41        1.7141    3.7629    3.2480 H         3 RES3    0.0000
    111 H42        0.2350    3.6078    3.7843 H         3 RES3    0.0000
    112 C43        0.9235    0.4133    8.0577 C.3       3 RES3    0.0000
    113 H43        1.2880   -0.3053    8.5788 H         3 RES3    0.0000
    114 H44       -0.0295    0.3153    7.9985 H         3 RES3    0.0000
    115 H45        1.1336    1.2524    8.4755 H         3 RES3    0.0000
    116 C44        5.2267    2.5711    3.7691 C.3       3 RES3    0.0000
    117 H46        5.6903    2.4267    2.9411 H         3 RES3    0.0000
    118 H47        5.7553    2.2328    4.4952 H         3 RES3    0.0000
    119 H48        5.0788    3.5114    3.8936 H         3 RES3    0.0000
    120 C45       -1.9501   -0.4314    5.6939 C.3       3 RES3    0.0000
    121 H49       -2.0050    0.4403    6.0934 H         3 RES3    0.0000
    122 H50       -1.6434   -1.0646    6.3471 H         3 RES3    0.0000
    123 H51       -2.8178   -0.6918    5.3764 H         3 RES3    0.0000
    124 O25        3.6719   -2.2865   14.3289 O.3       4 RES4    0.0000
    125 O26        1.5349   -0.3994   13.4310 O.2       4 RES4    0.0000
    126 O27        1.2448   -0.7317   11.2540 O.3       4 RES4    0.0000
    127 O28        4.9132   -5.1400    9.6574 O.3       4 RES4    0.0000
    128 O29        5.1148   -0.7117    9.0148 O.3       4 RES4    0.0000
    129 O30        6.1546   -3.0392   12.1564 O.3       4 RES4    0.0000
    130 O31        4.9047   -0.5203   13.6802 O.2       4 RES4    0.0000
    131 C46        1.9349   -0.7897   12.3767 C.2       4 RES4    0.0000
    132 O32        6.5143   -5.2117   11.8101 O.2       4 RES4    0.0000
    133 N4         4.1911   -4.8380    8.5150 N.2       4 RES4    0.0000
    134 C47        7.0822   -3.0685   13.2685 C.3       4 RES4    0.0000
    135 H52        7.1259   -2.1992   13.6711 H         4 RES4    0.0000
    136 H53        7.9530   -3.3183   12.9510 H         4 RES4    0.0000
    137 H54        6.7823   -3.7081   13.9172 H         4 RES4    0.0000
    138 C48        3.2923   -1.4648   12.1610 C.3       4 RES4    0.0000
    139 C49        4.6016   -2.9381    9.6680 C.2       4 RES4    0.0000
    140 C50        5.1520   -3.9980   10.3213 C.2       4 RES4    0.0000
    141 C51        5.9940   -4.1712   11.5062 C.2       4 RES4    0.0000
    142 C52        4.0102   -0.8596   10.9958 C.2       4 RES4    0.0000
    143 C53        4.0682   -1.3412   13.4569 C.2       4 RES4    0.0000
    144 C54        4.0140   -3.5377    8.5028 C.2       4 RES4    0.0000
    145 C55        4.7573    0.6536    9.3733 C.3       4 RES4    0.0000
    146 H55        4.0807    0.9947    8.7687 H         4 RES4    0.0000
    147 H56        5.5356    1.2298    9.3232 H         4 RES4    0.0000
    148 C56        4.5560   -1.5159    9.9795 C.2       4 RES4    0.0000
    149 C57        4.2225    0.6133   10.7937 C.3       4 RES4    0.0000
    150 H57        4.8668    0.9694   11.4257 H         4 RES4    0.0000
    151 H58        3.3899    1.1058   10.8743 H         4 RES4    0.0000
    152 C58        3.3084   -2.8531    7.4090 C.3       4 RES4    0.0000
    153 H59        3.0203   -3.4992    6.7603 H         4 RES4    0.0000
    154 H60        3.9001   -2.2241    6.9928 H         4 RES4    0.0000
    155 H61        2.5446   -2.3911    7.7615 H         4 RES4    0.0000
    156 C59       -0.0399   -0.1082   11.3194 C.3       4 RES4    0.0000
    157 H62       -0.4470   -0.1230   10.4489 H         4 RES4    0.0000
    158 H63        0.0595    0.8016   11.6095 H         4 RES4    0.0000
    159 H64       -0.5957   -0.5835   11.9407 H         4 RES4    0.0000
    160 C60        4.2426   -2.1963   15.6612 C.3       4 RES4    0.0000
    161 H65        3.9003   -2.9094   16.2050 H         4 RES4    0.0000
    162 H66        4.0046   -1.3531   16.0546 H         4 RES4    0.0000
    163 H67        5.1983   -2.2654   15.6065 H         4 RES4    0.0000
@<TRIPOS>BOND
     1    1   13 1
     2    2   10 1
     3    3   17 1
     4    4   15 2
     5    5   15 1
     6    6   13 2
     7    7    8 1
     8    9    7 1
     9   10   21 2
    10   11   17 2
    11   12   22 1
    12   13   19 1
    13   14   18 2
    14   15   19 1
    15   16    7 1
    16   17   18 1
    17   18    2 1
    18   19   16 1
    19   20   19 1
    20   21   14 1
    21   22   14 1
    22   23    3 1
    23   24   23 1
    24   25   23 1
    25   26   23 1
    26   27    7 1
    27   28   27 1
    28   29   27 1
    29   30    1 1
    30   31   30 1
    31   32   30 1
    32   33   30 1
    33   34   21 1
    34   35   34 1
    35   36   34 1
    36   37   34 1
    37   38    5 1
    38   39   38 1
    39   40   38 1
    40   41   38 1
    41   42   60 2
    42   43   53 2
    43   44   53 1
    44   45   61 2
    45   46   49 1
    46   47   61 1
    47   48   54 1
    48   49   65 2
    49   50   51 1
    50   52   50 1
    51   53   57 1
    52   54   55 1
    53   55   59 2
    54   56   50 1
    55   57   56 1
    56   58   57 1
    57   59   46 1
    58   60   57 1
    59   61   59 1
    60   62   48 1
    61   63   62 1
    62   64   62 1
    63   65   55 1
    64   66   47 1
    65   67   66 1
    66   68   66 1
    67   69   66 1
    68   70   44 1
    69   71   70 1
    70   72   70 1
    71   73   70 1
    72   74   65 1
    73   75   74 1
    74   76   74 1
    75   77   74 1
    76   78   60 1
    77   79   78 1
    78   80   79 1
    79   81   79 1
    80   82   79 1
    81   83   96 1
    82   84   99 1
    83   85   86 1
    84   86   93 1
    85   87   98 2
    86   88   97 1
    87   89   99 2
    88   90   96 2
    89   91   98 1
    90   92   94 1
    91   93   99 1
    92   94   95 1
    93   96   94 1
    94   97   92 2
    95   98   94 1
    96  100   93 2
    97  101   88 1
    98  102  101 1
    99  103  101 1
   100  104  105 1
   101  106  104 1
   102  107  104 1
   103  108   85 2
   104  109   92 1
   105  110  109 1
   106  111  109 1
   107  112   83 1
   108  113  112 1
   109  114  112 1
   110  115  112 1
   111  116   91 1
   112  117  116 1
   113  118  116 1
   114  119  116 1
   115  120   84 1
   116  121  120 1
   117  122  120 1
   118  123  120 1
   119  124  143 1
   120  125  131 2
   121  126  131 1
   122  127  133 1
   123  128  145 1
   124  129  134 1
   125  130  143 2
   126  131  138 1
   127  132  141 2
   128  133  144 2
   129  134  135 1
   130  136  134 1
   131  137  134 1
   132  138  142 1
   133  139  140 2
   134  140  127 1
   135  141  129 1
   136  142  148 2
   137  143  138 1
   138  144  139 1
   139  145  146 1
   140  147  145 1
   141  148  128 1
   142  149  142 1
   143  150  149 1
   144  151  149 1
   145  152  144 1
   146  153  152 1
   147  154  152 1
   148  155  152 1
   149  156  126 1
   150  157  156 1
   151  158  156 1
   152  159  156 1
   153  160  124 1
   154  161  160 1
   155  162  160 1
   156  163  160 1
   157   12   27 1
   158   16   22 2
   159   50   62 1
   160   54   56 2
   161   97  100 1
   162  100  108 1
   163  101  109 1
   164  104  108 1
   165  139  148 1
   166  140  141 1
   167  145  149 1
@<TRIPOS>SUBSTRUCTURE
     1 RES1 1
     2 RES2 42
     3 RES3 83
     4 RES4 124

@<TRIPOS>CRYSIN
   7.8730   13.3820   16.0280 108.3400  90.4200  97.9200   1 1

