# MOL2 file generated by ConQuest
# Please check atom types

@<TRIPOS>MOLECULE
NAGGOU01
    19    20     1
SMALL
NO_CHARGES
****
Generated from CSD

@<TRIPOS>ATOM
      1 O1         2.3279    3.9698    5.2003 O.2       1 RES1    0.0000
      2 O2         2.8998    2.4233    3.8005 O.2       1 RES1    0.0000
      3 N1         0.7874   -1.1445    8.5443 N.pl3     1 RES1    0.0000
      4 N2         0.9929   -2.4656    8.2977 N.2       1 RES1    0.0000
      5 N3         0.4860   -3.1127    9.2979 N.2       1 RES1    0.0000
      6 N4        -0.0553   -2.2451   10.2147 N.2       1 RES1    0.0000
      7 N5         2.4481    2.7931    4.8815 N.pl3     1 RES1    0.0000
      8 C1         0.1482   -1.0390    9.7296 C.2       1 RES1    0.0000
      9 H1        -0.1121   -0.2258   10.1463 H         1 RES1    0.0000
     10 C2         1.2044   -0.1456    7.6131 C.ar      1 RES1    0.0000
     11 C3         1.1122    1.2011    7.9772 C.ar      1 RES1    0.0000
     12 H2         0.7715    1.4501    8.8277 H         1 RES1    0.0000
     13 C4         1.5293    2.1693    7.0698 C.ar      1 RES1    0.0000
     14 H3         1.4773    3.0919    7.2893 H         1 RES1    0.0000
     15 C5         2.0227    1.7610    5.8372 C.ar      1 RES1    0.0000
     16 C6         2.1103    0.4262    5.4639 C.ar      1 RES1    0.0000
     17 H4         2.4517    0.1817    4.6123 H         1 RES1    0.0000
     18 C7         1.6862   -0.5449    6.3667 C.ar      1 RES1    0.0000
     19 H5         1.7244   -1.4663    6.1366 H         1 RES1    0.0000
@<TRIPOS>BOND
     1    1    7 2
     2    2    7 2
     3    3    4 1
     4    4    5 2
     5    5    6 1
     6    6    8 2
     7    7   15 1
     8    8    3 1
     9    9    8 1
    10   10    3 1
    11   11   10 ar
    12   12   11 1
    13   13   11 ar
    14   14   13 1
    15   15   13 ar
    16   16   15 ar
    17   17   16 1
    18   18   10 ar
    19   19   18 1
    20   16   18 ar
@<TRIPOS>SUBSTRUCTURE
     1 RES1 1

@<TRIPOS>CRYSIN
   7.2094    7.7337   14.2011  90.0000  93.2150  90.0000  14 1

