# MOL2 file generated by ConQuest
# Please check atom types

@<TRIPOS>MOLECULE
NAGGOU
    19    20     1
SMALL
NO_CHARGES
****
Generated from CSD

@<TRIPOS>ATOM
      1 C1         5.7193    1.7604   12.8991 C.ar      1 RES1    0.0000
      2 C2         5.2368    2.1461   14.1226 C.ar      1 RES1    0.0000
      3 H1         5.1838    3.0470   14.3460 H         1 RES1    0.0000
      4 C3         4.8342    1.1829   15.0139 C.ar      1 RES1    0.0000
      5 H2         4.5034    1.4230   15.8499 H         1 RES1    0.0000
      6 C4         4.9269   -0.1480   14.6518 C.ar      1 RES1    0.0000
      7 C5         5.4031   -0.5291   13.4108 C.ar      1 RES1    0.0000
      8 H3         5.4491   -1.4284   13.1786 H         1 RES1    0.0000
      9 C6         5.8078    0.4403   12.5244 C.ar      1 RES1    0.0000
     10 H4         6.1357    0.2073   11.6860 H         1 RES1    0.0000
     11 C7         3.8990   -1.0692   16.7514 C.2       1 RES1    0.0000
     12 H5         3.6484   -0.2759   17.1672 H         1 RES1    0.0000
     13 N1         4.5153   -1.1533   15.5780 N.pl3     1 RES1    0.0000
     14 N2         4.7138   -2.4630   15.3220 N.2       1 RES1    0.0000
     15 N3         4.2173   -3.1101   16.3183 N.2       1 RES1    0.0000
     16 N4         3.6981   -2.2599   17.2338 N.2       1 RES1    0.0000
     17 N5         6.1311    2.7984   11.9449 N.pl3     1 RES1    0.0000
     18 O1         6.0242    3.9611   12.2689 O.2       1 RES1    0.0000
     19 O2         6.5604    2.4485   10.8706 O.2       1 RES1    0.0000
@<TRIPOS>BOND
     1    1    2 ar
     2    2    3 1
     3    4    2 ar
     4    5    4 1
     5    6    4 ar
     6    7    6 ar
     7    8    7 1
     8    9    1 ar
     9   10    9 1
    10   11   12 1
    11   13    6 1
    12   14   13 1
    13   15   14 2
    14   16   11 2
    15   17    1 1
    16   18   17 2
    17   19   17 2
    18    7    9 ar
    19   11   13 1
    20   15   16 1
@<TRIPOS>SUBSTRUCTURE
     1 RES1 1

@<TRIPOS>CRYSIN
   7.3812    7.7928   14.1401  90.0000  91.6800  90.0000  14 1

