# MOL2 file generated by ConQuest
# Please check atom types

@<TRIPOS>MOLECULE
NAGYAY
    25    26     1
SMALL
USER_CHARGES
****
Generated from CSD

@<TRIPOS>ATOM
      1 O1        -1.2245    4.6524    4.2536 O.2       1 RES1   -1.0000
      2 O2         1.8205    4.0320   -0.1488 O.2       1 RES1   -1.0000
      3 O3         0.9453   -0.5449    1.4429 O.3       1 RES1    0.0000
      4 N1        -0.4880    4.5095    3.1971 N.pl3     1 RES1    1.0000
      5 N2         1.0763    4.1691    0.9061 N.pl3     1 RES1    1.0000
      6 C1        -0.1312    3.2238    2.7744 C.ar      1 RES1    0.0000
      7 C2        -0.0579    5.5749    2.4906 C.ar      1 RES1    0.0000
      8 C3         0.7240    5.3813    1.3598 C.ar      1 RES1    0.0000
      9 H1         1.0243    6.1464    0.8838 H         1 RES1    0.0000
     10 C4         0.6350    3.0396    1.6065 C.ar      1 RES1    0.0000
     11 C5         0.9713    1.7600    1.1701 C.ar      1 RES1    0.0000
     12 H2         1.4793    1.6401    0.3758 H         1 RES1    0.0000
     13 C6         0.5555    0.6675    1.9090 C.ar      1 RES1    0.0000
     14 C7        -0.2059    0.8439    3.0904 C.ar      1 RES1    0.0000
     15 H3        -0.4823    0.0884    3.5955 H         1 RES1    0.0000
     16 C8        -0.5426    2.1072    3.5022 C.ar      1 RES1    0.0000
     17 H4        -1.0606    2.2235    4.2905 H         1 RES1    0.0000
     18 C9        -0.4351    6.9288    2.9746 C.3       1 RES1    0.0000
     19 H5        -1.4103    6.9876    3.0535 H         1 RES1    0.0000
     20 H6        -0.1180    7.6037    2.3378 H         1 RES1    0.0000
     21 H7        -0.0262    7.0881    3.8505 H         1 RES1    0.0000
     22 C10        0.5147   -1.7154    2.1564 C.3       1 RES1    0.0000
     23 H8         0.8703   -1.6909    3.0687 H         1 RES1    0.0000
     24 H9         0.8445   -2.5164    1.6996 H         1 RES1    0.0000
     25 H10       -0.4644   -1.7369    2.1868 H         1 RES1    0.0000
@<TRIPOS>BOND
     1    1    4 1
     2    2    5 1
     3    3   13 1
     4    4    6 ar
     5    5    8 ar
     6    6   10 ar
     7    7    4 ar
     8    8    7 ar
     9    9    8 1
    10   10    5 ar
    11   11   10 ar
    12   12   11 1
    13   13   11 ar
    14   14   13 ar
    15   15   14 1
    16   16    6 ar
    17   17   16 1
    18   18    7 1
    19   19   18 1
    20   20   18 1
    21   21   18 1
    22   22    3 1
    23   23   22 1
    24   24   22 1
    25   25   22 1
    26   14   16 ar
@<TRIPOS>SUBSTRUCTURE
     1 RES1 1

@<TRIPOS>CRYSIN
   3.9268   12.1040   18.9480  90.0000  94.7090  90.0000 231 1

