# MOL2 file generated by ConQuest
# Please check atom types

@<TRIPOS>MOLECULE
NAHCUU
    33    37     1
SMALL
NO_CHARGES
****
Generated from CSD

@<TRIPOS>ATOM
      1 O1        17.9318    2.4665    2.3332 O.2       1 RES1    0.0000
      2 O2        19.9953    1.0758   -4.4104 O.2       1 RES1    0.0000
      3 O3        21.8848    1.7032   -3.4087 O.2       1 RES1    0.0000
      4 O4        19.2891    5.9635    1.8899 O.3       1 RES1    0.0000
      5 N1        17.2204    4.2739    1.1528 N.am      1 RES1    0.0000
      6 N2        20.6543    1.4971   -3.5049 N.pl3     1 RES1    0.0000
      7 C1        17.3120    5.2070   -0.0412 C.3       1 RES1    0.0000
      8 C2        16.3587    6.3871    0.3024 C.3       1 RES1    0.0000
      9 C3        16.0684    6.1787    1.7233 C.ar      1 RES1    0.0000
     10 C4        15.3505    7.0326    2.6631 C.ar      1 RES1    0.0000
     11 C5        15.1583    6.5683    3.9516 C.ar      1 RES1    0.0000
     12 C6        15.6003    5.3588    4.3846 C.ar      1 RES1    0.0000
     13 C7        16.3038    4.4891    3.5135 C.ar      1 RES1    0.0000
     14 C8        16.5130    4.9692    2.1734 C.ar      1 RES1    0.0000
     15 C9        16.9197    7.7573   -0.1409 C.3       1 RES1    0.0000
     16 C10       15.0105    6.1402   -0.4965 C.3       1 RES1    0.0000
     17 C11       17.8834    3.1528    1.2559 C.2       1 RES1    0.0000
     18 C12       18.5686    2.5956    0.0258 C.ar      1 RES1    0.0000
     19 C13       17.8337    2.2559   -1.0944 C.ar      1 RES1    0.0000
     20 C14       18.5542    1.8097   -2.2232 C.ar      1 RES1    0.0000
     21 C15       19.8959    1.8686   -2.1665 C.ar      1 RES1    0.0000
     22 C16       20.6556    2.1517   -1.0137 C.ar      1 RES1    0.0000
     23 C17       19.9037    2.5209    0.0704 C.ar      1 RES1    0.0000
     24 C18       18.7190    5.5558   -0.3660 C.ar      1 RES1    0.0000
     25 C19       19.6893    5.8322    0.5670 C.ar      1 RES1    0.0000
     26 C20       21.0479    6.0383    0.2766 C.ar      1 RES1    0.0000
     27 C21       21.4965    5.8729   -0.9793 C.ar      1 RES1    0.0000
     28 C22       20.5223    5.5989   -2.0359 C.ar      1 RES1    0.0000
     29 C23       21.0035    5.3996   -3.3932 C.ar      1 RES1    0.0000
     30 C24       20.0986    5.1504   -4.3966 C.ar      1 RES1    0.0000
     31 C25       18.7399    5.1119   -4.1337 C.ar      1 RES1    0.0000
     32 C26       18.2587    5.2705   -2.8349 C.ar      1 RES1    0.0000
     33 C27       19.1754    5.4856   -1.7490 C.ar      1 RES1    0.0000
@<TRIPOS>BOND
     1    1   17 2
     2    2    6 2
     3    3    6 2
     4    4   25 1
     5    5    7 1
     6    6   21 1
     7    7    8 1
     8    8    9 1
     9    9   10 ar
    10   10   11 ar
    11   11   12 ar
    12   12   13 ar
    13   13   14 ar
    14   14    5 1
    15   15    8 1
    16   16    8 1
    17   17    5 1
    18   18   17 1
    19   19   18 ar
    20   20   19 ar
    21   21   20 ar
    22   22   21 ar
    23   23   18 ar
    24   24    7 1
    25   25   24 ar
    26   26   25 ar
    27   27   26 ar
    28   28   27 ar
    29   29   28 ar
    30   30   29 ar
    31   31   30 ar
    32   32   31 ar
    33   33   24 ar
    34    9   14 ar
    35   22   23 ar
    36   28   33 ar
    37   32   33 ar
@<TRIPOS>SUBSTRUCTURE
     1 RES1 1

@<TRIPOS>CRYSIN
  26.1530   26.1530   17.1810  90.0000  90.0000 120.0000 233 1

