# MOL2 file generated by ConQuest
# Please check atom types

@<TRIPOS>MOLECULE
NAHCOO
    66    74     2
SMALL
NO_CHARGES
****
Generated from CSD

@<TRIPOS>ATOM
      1 N1         0.9000   12.7968    7.4192 N.am      1 RES1    0.0000
      2 C1        -0.5288   12.5904    7.8200 C.3       1 RES1    0.0000
      3 C2        -0.8732   11.1320    7.3453 C.3       1 RES1    0.0000
      4 C3         0.3860   10.6866    6.7118 C.ar      1 RES1    0.0000
      5 C4         0.6553    9.4901    6.0485 C.ar      1 RES1    0.0000
      6 C5         1.9101    9.2856    5.4481 C.ar      1 RES1    0.0000
      7 C6         2.8894   10.2279    5.5817 C.ar      1 RES1    0.0000
      8 C7         2.6595   11.4340    6.2371 C.ar      1 RES1    0.0000
      9 C8         1.3951   11.6251    6.7794 C.ar      1 RES1    0.0000
     10 C9        -1.2999   10.2164    8.4817 C.3       1 RES1    0.0000
     11 C10       -1.9965   11.1989    6.2843 C.3       1 RES1    0.0000
     12 C11        1.6293   13.8882    7.7225 C.2       1 RES1    0.0000
     13 O1         2.8479   13.9207    7.5606 O.2       1 RES1    0.0000
     14 C12        0.9798   15.1211    8.2444 C.ar      1 RES1    0.0000
     15 C13        0.0299   15.8130    7.5292 C.ar      1 RES1    0.0000
     16 C14       -0.3998   17.0440    7.9112 C.ar      1 RES1    0.0000
     17 C15        0.0829   17.5639    9.0523 C.ar      1 RES1    0.0000
     18 C16        1.0142   16.9063    9.8728 C.ar      1 RES1    0.0000
     19 C17        1.4427   15.6601    9.4751 C.ar      1 RES1    0.0000
     20 N2        -0.3363   18.9382    9.4343 N.pl3     1 RES1    0.0000
     21 O2        -1.3534   19.3759    9.0036 O.2       1 RES1    0.0000
     22 O3         0.4386   19.5345   10.1903 O.2       1 RES1    0.0000
     23 C18       -0.7849   12.9555    9.2535 C.ar      1 RES1    0.0000
     24 C19       -1.9171   13.7200    9.4814 C.ar      1 RES1    0.0000
     25 O4        -2.7553   13.9570    8.4613 O.3       1 RES1    0.0000
     26 C20       -2.1812   14.2476   10.7562 C.ar      1 RES1    0.0000
     27 C21       -1.3440   14.0182   11.7748 C.ar      1 RES1    0.0000
     28 C22       -0.2250   13.1772   11.6239 C.ar      1 RES1    0.0000
     29 C23        0.6367   12.8886   12.7163 C.ar      1 RES1    0.0000
     30 C24        1.6814   12.0323   12.5403 C.ar      1 RES1    0.0000
     31 C25        1.9605   11.4627   11.2954 C.ar      1 RES1    0.0000
     32 C26        1.1801   11.7704   10.2296 C.ar      1 RES1    0.0000
     33 C27        0.0706   12.6324   10.3460 C.ar      1 RES1    0.0000
     34 N3        -3.0056    7.2519   14.2913 N.am      2 RES2    0.0000
     35 C28       -1.5090    7.1773   14.1656 C.3       2 RES2    0.0000
     36 C29       -1.1228    8.5287   13.4299 C.3       2 RES2    0.0000
     37 C30       -2.4648    9.1021   13.0747 C.ar      2 RES2    0.0000
     38 C31       -2.7345   10.2891   12.3752 C.ar      2 RES2    0.0000
     39 C32       -4.0521   10.6809   12.2086 C.ar      2 RES2    0.0000
     40 C33       -5.0535    9.9527   12.7760 C.ar      2 RES2    0.0000
     41 C34       -4.8292    8.7867   13.4834 C.ar      2 RES2    0.0000
     42 C35       -3.5196    8.3777   13.6248 C.ar      2 RES2    0.0000
     43 C36       -0.2641    8.3165   12.2070 C.3       2 RES2    0.0000
     44 C37       -0.3967    9.4041   14.4548 C.3       2 RES2    0.0000
     45 C38       -3.7439    6.2560   14.8462 C.2       2 RES2    0.0000
     46 O5        -4.9786    6.2178   14.6984 O.2       2 RES2    0.0000
     47 C39       -3.0229    5.2487   15.6604 C.ar      2 RES2    0.0000
     48 C40       -2.3030    5.5832   16.7340 C.ar      2 RES2    0.0000
     49 C41       -1.6341    4.6256   17.4948 C.ar      2 RES2    0.0000
     50 C42       -1.7477    3.3411   17.1018 C.ar      2 RES2    0.0000
     51 C43       -2.4826    2.9264   16.0282 C.ar      2 RES2    0.0000
     52 C44       -3.1716    3.8897   15.2910 C.ar      2 RES2    0.0000
     53 N4        -0.9951    2.3109   17.8830 N.pl3     2 RES2    0.0000
     54 O6        -0.3383    2.6435   18.7963 O.2       2 RES2    0.0000
     55 O7        -1.0752    1.1698   17.4822 O.2       2 RES2    0.0000
     56 C45       -1.0470    5.8871   13.4960 C.ar      2 RES2    0.0000
     57 C46        0.1320    5.3653   13.9927 C.ar      2 RES2    0.0000
     58 O8         0.7536    6.0094   15.0332 O.3       2 RES2    0.0000
     59 C47        0.7093    4.1688   13.5148 C.ar      2 RES2    0.0000
     60 C48        0.0869    3.5112   12.5057 C.ar      2 RES2    0.0000
     61 C49       -1.1223    3.9681   11.9571 C.ar      2 RES2    0.0000
     62 C50       -1.7640    3.2532   10.8992 C.ar      2 RES2    0.0000
     63 C51       -2.9273    3.6584   10.3601 C.ar      2 RES2    0.0000
     64 C52       -3.4785    4.8626   10.8332 C.ar      2 RES2    0.0000
     65 C53       -2.8744    5.6023   11.8204 C.ar      2 RES2    0.0000
     66 C54       -1.6693    5.1971   12.4161 C.ar      2 RES2    0.0000
@<TRIPOS>BOND
     1    1    2 1
     2    2    3 1
     3    3    4 1
     4    4    5 ar
     5    5    6 ar
     6    6    7 ar
     7    7    8 ar
     8    8    9 ar
     9    9    1 1
    10   10    3 1
    11   11    3 1
    12   12    1 1
    13   13   12 2
    14   14   12 1
    15   15   14 ar
    16   16   15 ar
    17   17   16 ar
    18   18   17 ar
    19   19   14 ar
    20   20   17 1
    21   21   20 2
    22   22   20 2
    23   23    2 1
    24   24   23 ar
    25   25   24 1
    26   26   24 ar
    27   27   26 ar
    28   28   27 ar
    29   29   28 ar
    30   30   29 ar
    31   31   30 ar
    32   32   31 ar
    33   33   23 ar
    34   34   35 1
    35   35   36 1
    36   36   37 1
    37   37   38 ar
    38   38   39 ar
    39   39   40 ar
    40   40   41 ar
    41   41   42 ar
    42   42   34 1
    43   43   36 1
    44   44   36 1
    45   45   34 1
    46   46   45 2
    47   47   45 1
    48   48   47 ar
    49   49   48 ar
    50   50   49 ar
    51   51   50 ar
    52   52   47 ar
    53   53   50 1
    54   54   53 2
    55   55   53 2
    56   56   35 1
    57   57   56 ar
    58   58   57 1
    59   59   57 ar
    60   60   59 ar
    61   61   60 ar
    62   62   61 ar
    63   63   62 ar
    64   64   63 ar
    65   65   64 ar
    66   66   56 ar
    67    4    9 ar
    68   18   19 ar
    69   28   33 ar
    70   32   33 ar
    71   37   42 ar
    72   51   52 ar
    73   61   66 ar
    74   65   66 ar
@<TRIPOS>SUBSTRUCTURE
     1 RES1 1
     2 RES2 34

@<TRIPOS>CRYSIN
  15.0890   19.1140   16.9650  90.0000 112.1000  90.0000  14 1

