# MOL2 file generated by ConQuest
# Please check atom types

@<TRIPOS>MOLECULE
NAHGAG
   318   308     5
SMALL
NO_CHARGES
****
Generated from CSD

@<TRIPOS>ATOM
      1 C1        -0.3543    3.6939    8.5816 C.ar      1 RES1    0.0000
      2 C2         0.3064    3.7255    7.3536 C.ar      1 RES1    0.0000
      3 C3         0.3112    2.6105    6.5187 C.ar      1 RES1    0.0000
      4 C4        -0.3140    1.4390    6.9189 C.ar      1 RES1    0.0000
      5 H1        -0.3013    0.6742    6.3547 H         1 RES1    0.0000
      6 C5        -0.9600    1.3888    8.1498 C.ar      1 RES1    0.0000
      7 H2        -1.3872    0.5844    8.4208 H         1 RES1    0.0000
      8 C6        -0.9892    2.4877    8.9792 C.ar      1 RES1    0.0000
      9 H3        -1.4343    2.4398    9.8167 H         1 RES1    0.0000
     10 O1         0.9405    4.8518    6.9033 O.3       1 RES1    0.0000
     11 H4         0.8861    5.4548    7.4838 H         1 RES1    0.0000
     12 O2         0.9692    2.8018    5.3294 O.3       1 RES1    0.0000
     13 C7        -0.4320    4.8518    9.4575 C.2       1 RES1    0.0000
     14 H5        -0.8966    4.7900   10.2853 H         1 RES1    0.0000
     15 N1         0.1257    5.9619    9.1168 N.2       1 RES1    0.0000
     16 O3        -0.0265    6.9394   10.1151 O.3       1 RES1    0.0000
     17 C8         0.4324    8.2151    9.6218 C.3       1 RES1    0.0000
     18 H6         1.0953    8.0728    8.8992 H         1 RES1    0.0000
     19 H7         0.8757    8.7131   10.3536 H         1 RES1    0.0000
     20 C9        -0.7254    9.0229    9.0905 C.3       1 RES1    0.0000
     21 H8        -1.3811    9.1691    9.8167 H         1 RES1    0.0000
     22 H9        -0.3965    9.9085    8.7950 H         1 RES1    0.0000
     23 O4        -1.3786    8.3664    7.9881 O.3       1 RES1    0.0000
     24 N2        -0.5285    8.3927    6.8415 N.2       1 RES1    0.0000
     25 C10       -0.8520    7.4421    6.0495 C.2       1 RES1    0.0000
     26 H10       -1.4846    6.7945    6.3352 H         1 RES1    0.0000
     27 C11       -0.2682    7.3362    4.7112 C.ar      1 RES1    0.0000
     28 C12        0.6140    8.2735    4.2091 C.ar      1 RES1    0.0000
     29 C13        1.0211    8.2046    2.8669 C.ar      1 RES1    0.0000
     30 C14        0.5481    7.1992    2.0515 C.ar      1 RES1    0.0000
     31 C15       -0.3020    6.2134    2.5783 C.ar      1 RES1    0.0000
     32 H11       -0.6003    5.4969    2.0304 H         1 RES1    0.0000
     33 C16       -0.6979    6.2925    3.8824 C.ar      1 RES1    0.0000
     34 H12       -1.2748    5.6251    4.2332 H         1 RES1    0.0000
     35 O5         1.1079    9.3108    4.9608 O.3       1 RES1    0.0000
     36 H13        0.7833    9.2746    5.7332 H         1 RES1    0.0000
     37 O6         1.8552    9.2047    2.4290 O.3       1 RES1    0.0000
     38 H14        2.0896    9.0470    1.6367 H         1 RES1    0.0000
     39 C17        0.9219    7.0930    0.6387 C.2       1 RES1    0.0000
     40 H15        0.5962    6.3692    0.1139 H         1 RES1    0.0000
     41 N3         1.6879    7.9737    0.1087 N.2       1 RES1    0.0000
     42 O7         1.9153    7.6772   -1.2543 O.3       1 RES1    0.0000
     43 C18        2.7172    8.7301   -1.8475 C.3       1 RES1    0.0000
     44 H16        3.6095    8.7610   -1.4219 H         1 RES1    0.0000
     45 H17        2.2774    9.6077   -1.7180 H         1 RES1    0.0000
     46 C19        2.8543    8.4266   -3.3218 C.3       1 RES1    0.0000
     47 H18        1.9801    8.1086   -3.6605 H         1 RES1    0.0000
     48 H19        3.0721    9.2683   -3.7972 H         1 RES1    0.0000
     49 O8         3.8571    7.4435   -3.6436 O.3       1 RES1    0.0000
     50 N4         3.5062    6.2159   -3.0592 N.2       1 RES1    0.0000
     51 C20        4.3230    5.2855   -3.3898 C.2       1 RES1    0.0000
     52 H20        5.0253    5.4753   -4.0022 H         1 RES1    0.0000
     53 C21        4.1884    3.9340   -2.8367 C.ar      1 RES1    0.0000
     54 C22        3.3175    3.6565   -1.7597 C.ar      1 RES1    0.0000
     55 C23        3.2948    2.3673   -1.2234 C.ar      1 RES1    0.0000
     56 C24        4.1039    1.3770   -1.7421 C.ar      1 RES1    0.0000
     57 H21        4.0834    0.5055   -1.3633 H         1 RES1    0.0000
     58 C25        4.9503    1.6461   -2.8149 C.ar      1 RES1    0.0000
     59 H22        5.4905    0.9550   -3.1822 H         1 RES1    0.0000
     60 C26        4.9998    2.9142   -3.3391 C.ar      1 RES1    0.0000
     61 H23        5.5959    3.1011   -4.0542 H         1 RES1    0.0000
     62 O9         2.4957    4.5985   -1.2179 O.3       1 RES1    0.0000
     63 H24        2.6951    5.3537   -1.5260 H         1 RES1    0.0000
     64 O10        2.4473    1.9955   -0.1770 O.3       1 RES1    0.0000
     65 C27        2.5127    2.8270    0.9813 C.3       1 RES1    0.0000
     66 H25        1.9039    3.6006    0.8688 H         1 RES1    0.0000
     67 H26        3.4333    3.1757    1.0868 H         1 RES1    0.0000
     68 C28        2.1244    2.0589    2.1999 C.2       1 RES1    0.0000
     69 H27        2.5700    1.2387    2.3818 H         1 RES1    0.0000
     70 C29        1.1926    2.4657    3.0322 C.2       1 RES1    0.0000
     71 H28        0.7313    3.2639    2.8015 H         1 RES1    0.0000
     72 C30        0.7884    1.7908    4.3084 C.3       1 RES1    0.0000
     73 H29       -0.1559    1.4982    4.2657 H         1 RES1    0.0000
     74 H30        1.3617    1.0035    4.4870 H         1 RES1    0.0000
     75 C31        3.9791    2.4467    7.4974 C.ar      2 RES2    0.0000
     76 C32        4.8084    2.6755    6.3736 C.ar      2 RES2    0.0000
     77 C33        4.9341    1.6822    5.4033 C.ar      2 RES2    0.0000
     78 C34        4.2618    0.4855    5.5422 C.ar      2 RES2    0.0000
     79 H31        4.3671   -0.1882    4.8807 H         2 RES2    0.0000
     80 C35        3.4300    0.2520    6.6374 C.ar      2 RES2    0.0000
     81 H32        2.9671   -0.5735    6.7256 H         2 RES2    0.0000
     82 C36        3.2897    1.2398    7.5954 C.ar      2 RES2    0.0000
     83 H33        2.7110    1.0926    8.3330 H         2 RES2    0.0000
     84 O11        5.5216    3.8248    6.2210 O.3       2 RES2    0.0000
     85 H34        5.4030    4.3189    6.8916 H         2 RES2    0.0000
     86 O12        5.7600    1.8173    4.3015 O.3       2 RES2    0.0000
     87 C37        3.8816    3.4117    8.5767 C.2       2 RES2    0.0000
     88 H35        3.3052    3.2360    9.3124 H         2 RES2    0.0000
     89 N5         4.5582    4.4976    8.5562 N.2       2 RES2    0.0000
     90 O13        4.4136    5.2495    9.7484 O.3       2 RES2    0.0000
     91 C38        4.9534    6.5658    9.5278 C.3       2 RES2    0.0000
     92 H36        5.6287    6.5259    8.8048 H         2 RES2    0.0000
     93 H37        5.4062    6.8769   10.3504 H         2 RES2    0.0000
     94 C39        3.8805    7.5415    9.1530 C.3       2 RES2    0.0000
     95 H38        3.2615    7.6509    9.9176 H         2 RES2    0.0000
     96 H39        4.2942    8.4234    8.9675 H         2 RES2    0.0000
     97 O14        3.1283    7.1209    7.9910 O.3       2 RES2    0.0000
     98 N6         3.8402    7.4219    6.8024 N.2       2 RES2    0.0000
     99 C40        3.4154    6.6686    5.8474 C.2       2 RES2    0.0000
    100 H40        2.7796    5.9893    6.0358 H         2 RES2    0.0000
    101 C41        3.8959    6.8429    4.4743 C.ar      2 RES2    0.0000
    102 C42        4.7023    7.9049    4.0946 C.ar      2 RES2    0.0000
    103 C43        5.1153    8.0200    2.7573 C.ar      2 RES2    0.0000
    104 C44        4.7286    7.0802    1.8212 C.ar      2 RES2    0.0000
    105 C45        3.8999    6.0194    2.2178 C.ar      2 RES2    0.0000
    106 H41        3.6341    5.3691    1.5781 H         2 RES2    0.0000
    107 C46        3.4684    5.9066    3.5105 C.ar      2 RES2    0.0000
    108 H42        2.8842    5.1996    3.7581 H         2 RES2    0.0000
    109 O15        5.1303    8.8684    4.9601 O.3       2 RES2    0.0000
    110 H43        4.8983    8.6660    5.7430 H         2 RES2    0.0000
    111 O16        5.9162    9.0871    2.4498 O.3       2 RES2    0.0000
    112 H44        6.1796    9.0194    1.6562 H         2 RES2    0.0000
    113 C47        5.1542    7.1251    0.4181 C.2       2 RES2    0.0000
    114 H45        4.8671    6.4504   -0.1855 H         2 RES2    0.0000
    115 N7         5.9194    8.0800    0.0026 N.2       2 RES2    0.0000
    116 O17        6.1725    7.9059   -1.3754 O.3       2 RES2    0.0000
    117 C48        7.0156    8.9748   -1.8687 C.3       2 RES2    0.0000
    118 H46        7.9408    8.8612   -1.5358 H         2 RES2    0.0000
    119 H47        6.6748    9.8510   -1.5553 H         2 RES2    0.0000
    120 C49        6.9946    8.9187   -3.3761 C.3       2 RES2    0.0000
    121 H48        6.0777    8.6927   -3.6735 H         2 RES2    0.0000
    122 H49        7.2117    9.8175   -3.7289 H         2 RES2    0.0000
    123 O18        7.9160    7.9594   -3.9475 O.3       2 RES2    0.0000
    124 N8         7.7079    6.7028   -3.3488 N.2       2 RES2    0.0000
    125 C50        8.3625    5.7685   -3.9332 C.2       2 RES2    0.0000
    126 H50        8.8619    5.9490   -4.7213 H         2 RES2    0.0000
    127 C51        8.3311    4.4248   -3.3732 C.ar      2 RES2    0.0000
    128 C52        7.7830    4.1657   -2.1010 C.ar      2 RES2    0.0000
    129 C53        7.8296    2.8627   -1.5745 C.ar      2 RES2    0.0000
    130 C54        8.4100    1.8458   -2.2897 C.ar      2 RES2    0.0000
    131 H51        8.4424    0.9709   -1.9230 H         2 RES2    0.0000
    132 C55        8.9525    2.0861   -3.5541 C.ar      2 RES2    0.0000
    133 H52        9.3452    1.3770   -4.0477 H         2 RES2    0.0000
    134 C56        8.9169    3.3501   -4.0786 C.ar      2 RES2    0.0000
    135 H53        9.2942    3.5077   -4.9360 H         2 RES2    0.0000
    136 O19        7.1875    5.1157   -1.3399 O.3       2 RES2    0.0000
    137 H54        7.1923    5.8486   -1.7505 H         2 RES2    0.0000
    138 O20        7.2619    2.7693   -0.3270 O.3       2 RES2    0.0000
    139 C57        7.2816    1.4927    0.3075 C.3       2 RES2    0.0000
    140 H55        8.2151    1.1780    0.4132 H         2 RES2    0.0000
    141 H56        6.7893    0.8315   -0.2408 H         2 RES2    0.0000
    142 C58        6.6241    1.6365    1.6650 C.2       2 RES2    0.0000
    143 H57        6.5918    0.8701    2.2256 H         2 RES2    0.0000
    144 C59        6.0946    2.7529    2.1215 C.2       2 RES2    0.0000
    145 H58        6.0913    3.4983    1.5325 H         2 RES2    0.0000
    146 C60        5.5001    2.9627    3.4702 C.3       2 RES2    0.0000
    147 H59        5.8920    3.7722    3.8850 H         2 RES2    0.0000
    148 H60        4.5233    3.1002    3.3872 H         2 RES2    0.0000
    149 C61        6.3492    1.2513   23.5888 C.ar      3 RES3    0.0000
    150 C62        5.5448    1.5475   22.4675 C.ar      3 RES3    0.0000
    151 C63        5.4731    0.6406   21.4123 C.ar      3 RES3    0.0000
    152 C64        6.1396   -0.5606   21.4797 C.ar      3 RES3    0.0000
    153 H61        6.0482   -1.1888   20.7723 H         3 RES3    0.0000
    154 C65        6.9505   -0.8680   22.5795 C.ar      3 RES3    0.0000
    155 H62        7.4250   -1.6907   22.6140 H         3 RES3    0.0000
    156 C66        7.0498    0.0441   23.6151 C.ar      3 RES3    0.0000
    157 H63        7.6060   -0.1545   24.3580 H         3 RES3    0.0000
    158 O21        4.8109    2.7018   22.3803 O.3       3 RES3    0.0000
    159 H64        4.9303    3.1618   23.0727 H         3 RES3    0.0000
    160 O22        4.6658    0.8624   20.3060 O.3       3 RES3    0.0000
    161 C67        6.4153    2.1304   24.7455 C.2       3 RES3    0.0000
    162 H65        6.9696    1.9033   25.4838 H         3 RES3    0.0000
    163 N9         5.7193    3.2155   24.7673 N.2       3 RES3    0.0000
    164 O23        5.8439    3.9015   26.0018 O.3       3 RES3    0.0000
    165 C68        5.3099    5.2333   25.8147 C.3       3 RES3    0.0000
    166 H66        4.8635    5.5296   26.6454 H         3 RES3    0.0000
    167 H67        4.6346    5.2200   25.0901 H         3 RES3    0.0000
    168 C69        6.4078    6.1976   25.4614 C.3       3 RES3    0.0000
    169 H68        6.0139    7.0919   25.3114 H         3 RES3    0.0000
    170 H69        7.0343    6.2661   26.2257 H         3 RES3    0.0000
    171 O24        7.1478    5.8039   24.2809 O.3       3 RES3    0.0000
    172 N10        6.4502    6.1659   23.1089 N.2       3 RES3    0.0000
    173 C70        6.8910    5.4749   22.1015 C.2       3 RES3    0.0000
    174 H70        7.5248    4.7849   22.2593 H         3 RES3    0.0000
    175 C71        6.4463    5.7241   20.7446 C.ar      3 RES3    0.0000
    176 C72        5.6347    6.8145   20.4092 C.ar      3 RES3    0.0000
    177 C73        5.2632    7.0193   19.0787 C.ar      3 RES3    0.0000
    178 C74        5.6830    6.1566   18.0778 C.ar      3 RES3    0.0000
    179 C75        6.5224    5.0826   18.4156 C.ar      3 RES3    0.0000
    180 H71        6.8285    4.4937   17.7365 H         3 RES3    0.0000
    181 C76        6.9061    4.8769   19.7226 C.ar      3 RES3    0.0000
    182 H72        7.4862    4.1553   19.9361 H         3 RES3    0.0000
    183 O25        5.1567    7.6970   21.3391 O.3       3 RES3    0.0000
    184 H73        5.5214    7.5458   22.0803 H         3 RES3    0.0000
    185 O26        4.4566    8.0951   18.8252 O.3       3 RES3    0.0000
    186 H74        4.2575    8.1092   18.0098 H         3 RES3    0.0000
    187 C77        5.3079    6.3297   16.6891 C.2       3 RES3    0.0000
    188 H75        5.6175    5.7065   16.0413 H         3 RES3    0.0000
    189 N11        4.5620    7.3123   16.3117 N.2       3 RES3    0.0000
    190 O27        4.3773    7.2715   14.9187 O.3       3 RES3    0.0000
    191 C78        3.5211    8.3533   14.4846 C.3       3 RES3    0.0000
    192 H76        3.8343    9.2116   14.8666 H         3 RES3    0.0000
    193 H77        2.5922    8.1963   14.7853 H         3 RES3    0.0000
    194 C79        3.5768    8.4082   12.9690 C.3       3 RES3    0.0000
    195 H78        3.3773    9.3326   12.6736 H         3 RES3    0.0000
    196 H79        4.4968    8.1903   12.6736 H         3 RES3    0.0000
    197 O28        2.6609    7.5111   12.3270 O.3       3 RES3    0.0000
    198 N12        2.8071    6.2305   12.8873 N.2       3 RES3    0.0000
    199 C80        2.0896    5.3496   12.3043 C.2       3 RES3    0.0000
    200 H80        1.5892    5.5745   11.5282 H         3 RES3    0.0000
    201 C81        2.0450    3.9886   12.8434 C.ar      3 RES3    0.0000
    202 C82        2.6615    3.6605   14.0649 C.ar      3 RES3    0.0000
    203 C83        2.5241    2.3771   14.5670 C.ar      3 RES3    0.0000
    204 C84        1.7787    1.4329   13.9123 C.ar      3 RES3    0.0000
    205 H81        1.6865    0.5602   14.2744 H         3 RES3    0.0000
    206 C85        1.1569    1.7620   12.7094 C.ar      3 RES3    0.0000
    207 H82        0.6354    1.1103   12.2538 H         3 RES3    0.0000
    208 C86        1.2926    3.0161   12.1796 C.ar      3 RES3    0.0000
    209 H83        0.8719    3.2292   11.3558 H         3 RES3    0.0000
    210 O29        3.3874    4.5441   14.7954 O.3       3 RES3    0.0000
    211 H84        3.4481    5.2695   14.3786 H         3 RES3    0.0000
    212 O30        3.1583    2.1809   15.7793 O.3       3 RES3    0.0000
    213 C87        3.0695    0.8812   16.3533 C.3       3 RES3    0.0000
    214 H85        3.5115    0.2178   15.7679 H         3 RES3    0.0000
    215 H86        2.1202    0.6196   16.4610 H         3 RES3    0.0000
    216 C88        3.7513    0.9256   17.6929 C.2       3 RES3    0.0000
    217 H87        3.7376    0.1324   18.2181 H         3 RES3    0.0000
    218 C89        4.3680    1.9761   18.1969 C.2       3 RES3    0.0000
    219 H88        4.4113    2.7558   17.6552 H         3 RES3    0.0000
    220 C90        5.0073    2.0443   19.5515 C.3       3 RES3    0.0000
    221 H89        5.9902    2.1067   19.4545 H         3 RES3    0.0000
    222 H90        4.6903    2.8504   20.0304 H         3 RES3    0.0000
    223 C91        2.1257    2.4618   24.6707 C.ar      4 RES4    0.0000
    224 C92        1.5083    2.5926   23.4255 C.ar      4 RES4    0.0000
    225 C93        1.5358    1.5410   22.5131 C.ar      4 RES4    0.0000
    226 C94        2.1639    0.3401   22.8502 C.ar      4 RES4    0.0000
    227 H91        2.1752   -0.3830   22.2333 H         4 RES4    0.0000
    228 C95        2.7699    0.2056   24.0883 C.ar      4 RES4    0.0000
    229 H92        3.1984   -0.6089   24.3157 H         4 RES4    0.0000
    230 C96        2.7561    1.2494   24.9931 C.ar      4 RES4    0.0000
    231 H93        3.1758    1.1436   25.8385 H         4 RES4    0.0000
    232 O31        0.8819    3.7360   23.0425 O.3       4 RES4    0.0000
    233 H94        0.9491    4.3086   23.6519 H         4 RES4    0.0000
    234 C97        2.1849    3.5603   25.6266 C.2       4 RES4    0.0000
    235 H95        2.6115    3.4303   26.4665 H         4 RES4    0.0000
    236 N13        1.6634    4.7099   25.3465 N.2       4 RES4    0.0000
    237 O32        1.7901    5.6255   26.3939 O.3       4 RES4    0.0000
    238 C98        1.3909    6.9349   25.9257 C.3       4 RES4    0.0000
    239 H96        0.9550    7.4284   26.6649 H         4 RES4    0.0000
    240 H97        0.7304    6.8340   25.1942 H         4 RES4    0.0000
    241 C99        2.5664    7.7225   25.4275 C.3       4 RES4    0.0000
    242 H98        2.2627    8.6234   25.1519 H         4 RES4    0.0000
    243 H99        3.2198    7.8334   26.1639 H         4 RES4    0.0000
    244 O33        3.2124    7.0774   24.3118 O.3       4 RES4    0.0000
    245 N14        2.3684    7.1651   23.1720 N.2       4 RES4    0.0000
    246 C100       2.6926    6.2492   22.3289 C.2       4 RES4    0.0000
    247 H100       3.3141    5.5784   22.5879 H         4 RES4    0.0000
    248 C101       2.1286    6.2191   20.9883 C.ar      4 RES4    0.0000
    249 C102       1.2417    7.1834   20.5178 C.ar      4 RES4    0.0000
    250 C103       0.8570    7.2086   19.1783 C.ar      4 RES4    0.0000
    251 C104       1.3570    6.2374   18.2945 C.ar      4 RES4    0.0000
    252 C105       2.2060    5.2388   18.7946 C.ar      4 RES4    0.0000
    253 H101       2.5251    4.5610   18.2116 H         4 RES4    0.0000
    254 C106       2.5778    5.2256   20.1001 C.ar      4 RES4    0.0000
    255 H102       3.1489    4.5375   20.4176 H         4 RES4    0.0000
    256 O34        0.7285    8.1656   21.3326 O.3       4 RES4    0.0000
    257 H103       1.1211    8.1460   22.0738 H         4 RES4    0.0000
    258 O35        0.0147    8.2066   18.7852 O.3       4 RES4    0.0000
    259 H104      -0.2006    8.0903   17.9805 H         4 RES4    0.0000
    260 C107       1.0336    6.2439   16.8820 C.2       4 RES4    0.0000
    261 H105       1.3835    5.5608   16.3211 H         4 RES4    0.0000
    262 N15        0.2774    7.1617   16.3696 N.2       4 RES4    0.0000
    263 O36        0.0998    6.9388   14.9968 O.3       4 RES4    0.0000
    264 C108      -0.7196    7.9971   14.4446 C.3       4 RES4    0.0000
    265 H106      -0.2982    8.8766   14.6161 H         4 RES4    0.0000
    266 H107      -1.6129    7.9912   14.8699 H         4 RES4    0.0000
    267 C109      -0.8539    7.7679   12.9589 C.3       4 RES4    0.0000
    268 H108      -1.0770    8.6280   12.5239 H         4 RES4    0.0000
    269 H109       0.0192    7.4672   12.6020 H         4 RES4    0.0000
    270 O37       -1.8600    6.7949   12.6108 O.3       4 RES4    0.0000
    271 N16       -1.5549    5.5536   13.1929 N.2       4 RES4    0.0000
    272 C110      -2.3626    4.6274   12.8031 C.2       4 RES4    0.0000
    273 H110      -3.0467    4.8764   12.1920 H         4 RES4    0.0000
    274 C111      -2.3155    3.2212   13.2267 C.ar      4 RES4    0.0000
    275 C112      -1.4902    2.9311   14.3102 C.ar      4 RES4    0.0000
    276 C113      -1.3848    1.6232   14.7723 C.ar      4 RES4    0.0000
    277 C114      -2.1050    0.6076   14.1508 C.ar      4 RES4    0.0000
    278 H111      -2.0328   -0.2850   14.4632 H         4 RES4    0.0000
    279 C115      -2.9218    0.8978   13.0673 C.ar      4 RES4    0.0000
    280 H112      -3.4143    0.2036   12.6410 H         4 RES4    0.0000
    281 C116      -3.0272    2.2056   12.6052 C.ar      4 RES4    0.0000
    282 H113      -3.5910    2.4042   11.8634 H         4 RES4    0.0000
    283 O38       -0.6521    3.8744   14.9447 O.3       4 RES4    0.0000
    284 H114      -0.7364    4.6207   14.5705 H         4 RES4    0.0000
    285 O39       -0.6015    1.1718   15.8083 O.3       4 RES4    0.0000
    286 C117      -0.6625    1.9348   16.9914 C.3       4 RES4    0.0000
    287 H115      -1.5860    2.2680   17.1183 H         4 RES4    0.0000
    288 H116      -0.0629    2.7172   16.9068 H         4 RES4    0.0000
    289 C118      -0.2552    1.1217   18.2083 C.2       4 RES4    0.0000
    290 H117      -0.6545    0.2742   18.3645 H         4 RES4    0.0000
    291 C119       0.6507    1.5834   19.0478 C.2       4 RES4    0.0000
    292 H118       1.0360    2.4305   18.8623 H         4 RES4    0.0000
    293 C120       1.0990    0.8515   20.2784 C.3       4 RES4    0.0000
    294 H119       0.5498    0.0431   20.4306 H         4 RES4    0.0000
    295 H120       2.0498    0.5871   20.2061 H         4 RES4    0.0000
    296 O40        0.9138    1.7937   21.3163 O.3       4 RES4    0.0000
    297 C121      -2.1701    3.3386   13.4870 Du        5 SUP5    0.0000
    298 C122      -1.4850    3.0822   14.6682 Du        5 SUP5    0.0000
    299 C123      -1.5028    1.8085   15.2213 Du        5 SUP5    0.0000
    300 C124      -2.2141    0.7890   14.5966 Du        5 SUP5    0.0000
    301 C125      -2.8992    1.0452   13.4187 Du        5 SUP5    0.0000
    302 C126      -2.8814    2.3191   12.8623 Du        5 SUP5    0.0000
    303 C127      -0.9957    0.4287   17.0955 Du        5 SUP5    0.0000
    304 C128      -0.3244    0.4047   18.3742 Du        5 SUP5    0.0000
    305 C129       0.4741    1.2721   18.9729 Du        5 SUP5    0.0000
    306 H121      -3.0231    4.7669   12.1334 Du        5 SUP5    0.0000
    307 H122      -2.2289   -0.0806   14.9773 Du        5 SUP5    0.0000
    308 H123      -3.3890    0.3489   12.9924 Du        5 SUP5    0.0000
    309 H124      -3.3531    2.4944   12.0554 Du        5 SUP5    0.0000
    310 H125      -0.8425    4.7426   14.8634 Du        5 SUP5    0.0000
    311 H126      -1.9580    0.2375   17.2289 Du        5 SUP5    0.0000
    312 H127      -0.6214   -0.2820   16.5163 Du        5 SUP5    0.0000
    313 H128      -0.4877   -0.3813   18.8786 Du        5 SUP5    0.0000
    314 H129       0.6480    2.1271   18.5955 Du        5 SUP5    0.0000
    315 H130       0.7078   -0.0127   20.5575 Du        5 SUP5    0.0000
    316 H131       2.0696    0.7134   20.1411 Du        5 SUP5    0.0000
    317 O41       -0.7817    4.0201   15.2896 Du        5 SUP5    0.0000
    318 O42       -0.8477    1.7142   16.4350 Du        5 SUP5    0.0000
@<TRIPOS>BOND
     1    1    2 ar
     2    2    3 ar
     3    3    4 ar
     4    4    5 1
     5    6    4 ar
     6    7    6 1
     7    8    1 ar
     8    9    8 1
     9   10    2 1
    10   11   10 1
    11   12    3 1
    12   13    1 1
    13   14   13 1
    14   15   13 2
    15   16   15 1
    16   17   16 1
    17   18   17 1
    18   19   17 1
    19   20   17 1
    20   21   20 1
    21   22   20 1
    22   23   20 1
    23   24   23 1
    24   25   24 2
    25   26   25 1
    26   27   25 1
    27   28   27 ar
    28   29   28 ar
    29   30   29 ar
    30   31   30 ar
    31   32   31 1
    32   33   27 ar
    33   34   33 1
    34   35   28 1
    35   36   35 1
    36   37   29 1
    37   38   37 1
    38   39   30 1
    39   40   39 1
    40   41   39 2
    41   42   41 1
    42   43   42 1
    43   44   43 1
    44   45   43 1
    45   46   43 1
    46   47   46 1
    47   48   46 1
    48   49   46 1
    49   50   49 1
    50   51   50 2
    51   52   51 1
    52   53   51 1
    53   54   53 ar
    54   55   54 ar
    55   56   55 ar
    56   57   56 1
    57   58   56 ar
    58   59   58 1
    59   60   53 ar
    60   61   60 1
    61   62   54 1
    62   63   62 1
    63   64   55 1
    64   65   64 1
    65   66   65 1
    66   67   65 1
    67   68   65 1
    68   69   68 1
    69   70   68 2
    70   71   70 1
    71   72   12 1
    72   73   72 1
    73   74   72 1
    74   75   76 ar
    75   76   77 ar
    76   77   78 ar
    77   78   79 1
    78   80   78 ar
    79   81   80 1
    80   82   75 ar
    81   83   82 1
    82   84   76 1
    83   85   84 1
    84   86   77 1
    85   87   75 1
    86   88   87 1
    87   89   87 2
    88   90   89 1
    89   91   90 1
    90   92   91 1
    91   93   91 1
    92   94   91 1
    93   95   94 1
    94   96   94 1
    95   97   94 1
    96   98   97 1
    97   99   98 2
    98  100   99 1
    99  101   99 1
   100  102  101 ar
   101  103  102 ar
   102  104  103 ar
   103  105  104 ar
   104  106  105 1
   105  107  101 ar
   106  108  107 1
   107  109  102 1
   108  110  109 1
   109  111  103 1
   110  112  111 1
   111  113  104 1
   112  114  113 1
   113  115  113 2
   114  116  115 1
   115  117  116 1
   116  118  117 1
   117  119  117 1
   118  120  117 1
   119  121  120 1
   120  122  120 1
   121  123  120 1
   122  124  123 1
   123  125  124 2
   124  126  125 1
   125  127  125 1
   126  128  127 ar
   127  129  128 ar
   128  130  129 ar
   129  131  130 1
   130  132  130 ar
   131  133  132 1
   132  134  127 ar
   133  135  134 1
   134  136  128 1
   135  137  136 1
   136  138  129 1
   137  139  138 1
   138  140  139 1
   139  141  139 1
   140  142  139 1
   141  143  142 1
   142  144  142 2
   143  145  144 1
   144  146   86 1
   145  147  146 1
   146  148  146 1
   147  149  150 ar
   148  150  151 ar
   149  151  152 ar
   150  152  153 1
   151  154  152 ar
   152  155  154 1
   153  156  149 ar
   154  157  156 1
   155  158  150 1
   156  159  158 1
   157  160  151 1
   158  161  149 1
   159  162  161 1
   160  163  161 2
   161  164  163 1
   162  165  164 1
   163  166  165 1
   164  167  165 1
   165  168  165 1
   166  169  168 1
   167  170  168 1
   168  171  168 1
   169  172  171 1
   170  173  172 2
   171  174  173 1
   172  175  173 1
   173  176  175 ar
   174  177  176 ar
   175  178  177 ar
   176  179  178 ar
   177  180  179 1
   178  181  175 ar
   179  182  181 1
   180  183  176 1
   181  184  183 1
   182  185  177 1
   183  186  185 1
   184  187  178 1
   185  188  187 1
   186  189  187 2
   187  190  189 1
   188  191  190 1
   189  192  191 1
   190  193  191 1
   191  194  191 1
   192  195  194 1
   193  196  194 1
   194  197  194 1
   195  198  197 1
   196  199  198 2
   197  200  199 1
   198  201  199 1
   199  202  201 ar
   200  203  202 ar
   201  204  203 ar
   202  205  204 1
   203  206  204 ar
   204  207  206 1
   205  208  201 ar
   206  209  208 1
   207  210  202 1
   208  211  210 1
   209  212  203 1
   210  213  212 1
   211  214  213 1
   212  215  213 1
   213  216  213 1
   214  217  216 1
   215  218  216 2
   216  219  218 1
   217  220  160 1
   218  221  220 1
   219  222  220 1
   220  223  224 ar
   221  224  225 ar
   222  225  226 ar
   223  226  227 1
   224  228  226 ar
   225  229  228 1
   226  230  223 ar
   227  231  230 1
   228  232  224 1
   229  233  232 1
   230  234  223 1
   231  235  234 1
   232  236  234 2
   233  237  236 1
   234  238  237 1
   235  239  238 1
   236  240  238 1
   237  241  238 1
   238  242  241 1
   239  243  241 1
   240  244  241 1
   241  245  244 1
   242  246  245 2
   243  247  246 1
   244  248  246 1
   245  249  248 ar
   246  250  249 ar
   247  251  250 ar
   248  252  251 ar
   249  253  252 1
   250  254  248 ar
   251  255  254 1
   252  256  249 1
   253  257  256 1
   254  258  250 1
   255  259  258 1
   256  260  251 1
   257  261  260 1
   258  262  260 2
   259  263  262 1
   260  264  263 1
   261  265  264 1
   262  266  264 1
   263  267  264 1
   264  268  267 1
   265  269  267 1
   266  270  267 1
   267  271  270 1
   268  272  271 2
   269  273  272 1
   270  274  272 1
   271  275  274 ar
   272  276  275 ar
   273  277  276 ar
   274  278  277 1
   275  279  277 ar
   276  280  279 1
   277  281  274 ar
   278  282  281 1
   279  283  275 1
   280  284  283 1
   281  285  276 1
   282  286  285 1
   283  287  286 1
   284  288  286 1
   285  289  286 1
   286  290  289 1
   287  291  289 2
   288  292  291 1
   289  293  291 1
   290  294  293 1
   291  295  293 1
   292  296  225 1
   293    6    8 ar
   294   31   33 ar
   295   58   60 ar
   296   70   72 1
   297   80   82 ar
   298  105  107 ar
   299  132  134 ar
   300  144  146 1
   301  154  156 ar
   302  179  181 ar
   303  206  208 ar
   304  218  220 1
   305  228  230 ar
   306  252  254 ar
   307  279  281 ar
   308  293  296 1
@<TRIPOS>SUBSTRUCTURE
     1 RES1 1
     2 RES2 75
     3 RES3 149
     4 RES4 223
     5 SUP5 297

@<TRIPOS>CRYSIN
   8.4656   20.5960   32.5830  92.9550  90.2440  96.2760   2 1

