# MOL2 file generated by ConQuest
# Please check atom types

@<TRIPOS>MOLECULE
NAHGEK
    74    77     1
SMALL
NO_CHARGES
****
Generated from CSD

@<TRIPOS>ATOM
      1 C1         6.1271    5.0454   -2.0862 C.ar      1 RES1    0.0000
      2 C2         5.1289    5.2494   -1.1284 C.ar      1 RES1    0.0000
      3 C3         4.4066    4.1560   -0.6145 C.ar      1 RES1    0.0000
      4 C4         4.6903    2.8752   -1.0608 C.ar      1 RES1    0.0000
      5 H1         4.2041    2.1343   -0.7171 H         1 RES1    0.0000
      6 C5         5.6909    2.6716   -2.0154 C.ar      1 RES1    0.0000
      7 H2         5.8781    1.7921   -2.3215 H         1 RES1    0.0000
      8 C6         6.4076    3.7364   -2.5155 C.ar      1 RES1    0.0000
      9 H3         7.0954    3.5858   -3.1539 H         1 RES1    0.0000
     10 O1         4.7940    6.4700   -0.6517 O.3       1 RES1    0.0000
     11 H4         5.2728    7.0553   -1.0180 H         1 RES1    0.0000
     12 O2         3.4553    4.4973    0.3067 O.3       1 RES1    0.0000
     13 C7         6.8451    6.1681   -2.6858 C.2       1 RES1    0.0000
     14 H5         7.4861    6.0158   -3.3704 H         1 RES1    0.0000
     15 N1         6.6016    7.3600   -2.2809 N.2       1 RES1    0.0000
     16 O3         7.3112    8.3350   -3.0279 O.3       1 RES1    0.0000
     17 C8         7.1375    9.6222   -2.4177 C.3       1 RES1    0.0000
     18 H6         7.8593   10.2228   -2.7307 H         1 RES1    0.0000
     19 H7         7.2332    9.5245   -1.4370 H         1 RES1    0.0000
     20 C9         5.8024   10.2703   -2.7138 C.3       1 RES1    0.0000
     21 H8         5.8275   11.2080   -2.3960 H         1 RES1    0.0000
     22 H9         5.6700   10.2892   -3.6953 H         1 RES1    0.0000
     23 O4         4.6809    9.6105   -2.1109 O.3       1 RES1    0.0000
     24 N2         4.7370    9.8122   -0.7164 N.2       1 RES1    0.0000
     25 C10        3.8684    9.0955   -0.0997 C.2       1 RES1    0.0000
     26 H10        3.2874    8.5296   -0.5948 H         1 RES1    0.0000
     27 C11        3.7656    9.1427    1.3555 C.ar      1 RES1    0.0000
     28 C12        4.5215   10.0489    2.1180 C.ar      1 RES1    0.0000
     29 C13        4.4418   10.0272    3.5127 C.ar      1 RES1    0.0000
     30 C14        3.5707    9.1426    4.1600 C.ar      1 RES1    0.0000
     31 C15        2.8190    8.2370    3.3892 C.ar      1 RES1    0.0000
     32 H11        2.2326    7.6260    3.8204 H         1 RES1    0.0000
     33 C16        2.9255    8.2279    2.0185 C.ar      1 RES1    0.0000
     34 H12        2.4261    7.5973    1.5130 H         1 RES1    0.0000
     35 O5         5.3777   10.9448    1.5580 O.3       1 RES1    0.0000
     36 H13        5.3484   10.8745    0.7213 H         1 RES1    0.0000
     37 O6         5.2650   10.8809    4.1809 O.3       1 RES1    0.0000
     38 H14        5.1454   10.7962    5.0086 H         1 RES1    0.0000
     39 C17        3.4608    9.1030    5.6176 C.2       1 RES1    0.0000
     40 H15        2.8041    8.5528    6.0280 H         1 RES1    0.0000
     41 N3         4.2485    9.8082    6.3420 N.2       1 RES1    0.0000
     42 O7         3.9770    9.6518    7.7120 O.3       1 RES1    0.0000
     43 C18        5.0633   10.2049    8.4752 C.3       1 RES1    0.0000
     44 H16        4.7858   10.2794    9.4224 H         1 RES1    0.0000
     45 H17        5.2559   11.1180    8.1442 H         1 RES1    0.0000
     46 C19        6.3249    9.3789    8.3980 C.3       1 RES1    0.0000
     47 H18        6.5686    9.2470    7.4468 H         1 RES1    0.0000
     48 H19        7.0631    9.8733    8.8346 H         1 RES1    0.0000
     49 O8         6.1804    8.0979    9.0285 O.3       1 RES1    0.0000
     50 N4         5.6531    7.1716    8.1120 N.2       1 RES1    0.0000
     51 C20        5.5676    6.0013    8.6200 C.2       1 RES1    0.0000
     52 H20        5.8616    5.8504    9.5109 H         1 RES1    0.0000
     53 C21        5.0199    4.8962    7.8377 C.ar      1 RES1    0.0000
     54 C22        4.4355    5.1062    6.5855 C.ar      1 RES1    0.0000
     55 C23        3.8387    4.0370    5.8953 C.ar      1 RES1    0.0000
     56 C24        3.9213    2.7542    6.4114 C.ar      1 RES1    0.0000
     57 H21        3.5615    2.0227    5.9239 H         1 RES1    0.0000
     58 C25        4.5351    2.5353    7.6504 C.ar      1 RES1    0.0000
     59 H22        4.5944    1.6527    7.9980 H         1 RES1    0.0000
     60 C26        5.0537    3.5905    8.3690 C.ar      1 RES1    0.0000
     61 H23        5.4358    3.4383    9.2255 H         1 RES1    0.0000
     62 O9         4.4009    6.3200    5.9840 O.3       1 RES1    0.0000
     63 H24        4.7390    6.8949    6.4948 H         1 RES1    0.0000
     64 O10        3.2215    4.3997    4.7341 O.3       1 RES1    0.0000
     65 C27        2.4833    3.3732    4.0287 C.3       1 RES1    0.0000
     66 H25        1.9591    2.8244    4.6641 H         1 RES1    0.0000
     67 H26        3.1022    2.7796    3.5336 H         1 RES1    0.0000
     68 C28        1.5720    4.0887    3.0797 C.2       1 RES1    0.0000
     69 H27        0.8545    4.5800    3.4618 H         1 RES1    0.0000
     70 C29        1.6690    4.1022    1.7585 C.2       1 RES1    0.0000
     71 H28        1.0000    4.5811    1.2838 H         1 RES1    0.0000
     72 C30        2.7313    3.4354    0.9445 C.3       1 RES1    0.0000
     73 H29        3.3316    2.9029    1.5242 H         1 RES1    0.0000
     74 H30        2.3268    2.8353    0.2686 H         1 RES1    0.0000
@<TRIPOS>BOND
     1    1    2 ar
     2    2    3 ar
     3    3    4 ar
     4    4    5 1
     5    6    4 ar
     6    7    6 1
     7    8    1 ar
     8    9    8 1
     9   10    2 1
    10   11   10 1
    11   12    3 1
    12   13    1 1
    13   14   13 1
    14   15   13 2
    15   16   15 1
    16   17   16 1
    17   18   17 1
    18   19   17 1
    19   20   17 1
    20   21   20 1
    21   22   20 1
    22   23   20 1
    23   24   23 1
    24   25   24 2
    25   26   25 1
    26   27   25 1
    27   28   27 ar
    28   29   28 ar
    29   30   29 ar
    30   31   30 ar
    31   32   31 1
    32   33   27 ar
    33   34   33 1
    34   35   28 1
    35   36   35 1
    36   37   29 1
    37   38   37 1
    38   39   30 1
    39   40   39 1
    40   41   39 2
    41   42   41 1
    42   43   42 1
    43   44   43 1
    44   45   43 1
    45   46   43 1
    46   47   46 1
    47   48   46 1
    48   49   46 1
    49   50   49 1
    50   51   50 2
    51   52   51 1
    52   53   51 1
    53   54   53 ar
    54   55   54 ar
    55   56   55 ar
    56   57   56 1
    57   58   56 ar
    58   59   58 1
    59   60   53 ar
    60   61   60 1
    61   62   54 1
    62   63   62 1
    63   64   55 1
    64   65   64 1
    65   66   65 1
    66   67   65 1
    67   68   65 1
    68   69   68 1
    69   70   68 2
    70   71   70 1
    71   72   12 1
    72   73   72 1
    73   74   72 1
    74    6    8 ar
    75   31   33 ar
    76   58   60 ar
    77   70   72 1
@<TRIPOS>SUBSTRUCTURE
     1 RES1 1

@<TRIPOS>CRYSIN
   9.6197   11.0878   14.2308  81.4800  85.2880  73.5460   2 1

