# MOL2 file generated by ConQuest
# Please check atom types

@<TRIPOS>MOLECULE
NAJPAP
    56    59     1
SMALL
NO_CHARGES
****
Generated from CSD

@<TRIPOS>ATOM
      1 O1         4.7862   -0.0698   -2.8777 O.3       1 RES1    0.0000
      2 O2         2.8632   -1.2743   -2.6196 O.2       1 RES1    0.0000
      3 O3         2.1135    1.7916    3.5136 O.2       1 RES1    0.0000
      4 O4         3.5332    3.3000    2.9387 O.2       1 RES1    0.0000
      5 N1         2.9239    2.2794    2.7217 N.pl3     1 RES1    0.0000
      6 C1         4.1597   -0.1806   -5.2146 C.3       1 RES1    0.0000
      7 H1         3.2663   -0.0862   -4.7805 H         1 RES1    0.0000
      8 C2         4.7435    1.2735   -5.5079 C.3       1 RES1    0.0000
      9 H2         4.9603    1.3671   -6.4699 H         1 RES1    0.0000
     10 H3         4.0727    1.9616   -5.2674 H         1 RES1    0.0000
     11 C3         6.0063    1.4591   -4.6632 C.3       1 RES1    0.0000
     12 H4         5.7994    1.8811   -3.7892 H         1 RES1    0.0000
     13 H5         6.6796    2.0076   -5.1384 H         1 RES1    0.0000
     14 C4         6.4982   -0.0049   -4.4755 C.3       1 RES1    0.0000
     15 C5         7.3447   -0.5542   -3.3552 C.3       1 RES1    0.0000
     16 H6         7.1707   -0.0673   -2.5105 H         1 RES1    0.0000
     17 H7         8.3079   -0.4828   -3.5722 H         1 RES1    0.0000
     18 C6         6.9055   -2.0684   -3.2379 C.3       1 RES1    0.0000
     19 C7         5.4866   -2.1587   -3.9359 C.3       1 RES1    0.0000
     20 H8         4.8412   -2.4904   -3.2496 H         1 RES1    0.0000
     21 C8         5.1590   -0.6930   -4.1881 C.3       1 RES1    0.0000
     22 C9         4.0209   -1.1397   -6.4288 C.3       1 RES1    0.0000
     23 H9         4.8322   -1.0338   -7.0036 H         1 RES1    0.0000
     24 C10        4.0111   -2.5700   -5.8833 C.3       1 RES1    0.0000
     25 H10        3.2491   -2.6636   -5.2557 H         1 RES1    0.0000
     26 H11        3.8592   -3.1957   -6.6341 H         1 RES1    0.0000
     27 C11        5.2723   -2.9732   -5.1677 C.3       1 RES1    0.0000
     28 H12        5.2173   -3.9306   -4.9213 H         1 RES1    0.0000
     29 H13        6.0449   -2.8582   -5.7777 H         1 RES1    0.0000
     30 C12        6.7757   -2.4559   -1.7187 C.3       1 RES1    0.0000
     31 H14        6.1164   -1.8729   -1.2846 H         1 RES1    0.0000
     32 H15        7.6444   -2.3483   -1.2729 H         1 RES1    0.0000
     33 H16        6.4867   -3.3895   -1.6424 H         1 RES1    0.0000
     34 C13        7.9400   -3.0455   -3.8127 C.3       1 RES1    0.0000
     35 H17        7.6584   -3.9659   -3.6250 H         1 RES1    0.0000
     36 H18        8.8120   -2.8804   -3.3962 H         1 RES1    0.0000
     37 H19        8.0074   -2.9141   -4.7805 H         1 RES1    0.0000
     38 C14        7.1846   -0.3621   -5.8305 C.3       1 RES1    0.0000
     39 H20        6.6353   -0.0337   -6.5696 H         1 RES1    0.0000
     40 H21        7.2815   -1.3343   -5.9009 H         1 RES1    0.0000
     41 H22        8.0698    0.0583   -5.8657 H         1 RES1    0.0000
     42 C15        2.8164   -0.8096   -7.2617 C.3       1 RES1    0.0000
     43 H23        2.9954   -0.0057   -7.7896 H         1 RES1    0.0000
     44 H24        2.0478   -0.6487   -6.6752 H         1 RES1    0.0000
     45 H25        2.6177   -1.5593   -7.8600 H         1 RES1    0.0000
     46 C16        3.6736   -0.4590   -2.2348 C.2       1 RES1    0.0000
     47 C17        3.5537    0.2439   -0.9150 C.ar      1 RES1    0.0000
     48 C18        2.5421   -0.1256   -0.0645 C.ar      1 RES1    0.0000
     49 H26        1.9649   -0.8367   -0.3167 H         1 RES1    0.0000
     50 C19        2.3360    0.5009    1.1497 C.ar      1 RES1    0.0000
     51 H27        1.6455    0.2209    1.7362 H         1 RES1    0.0000
     52 C20        3.1760    1.5560    1.4723 C.ar      1 RES1    0.0000
     53 C21        4.1934    1.9641    0.6628 C.ar      1 RES1    0.0000
     54 H28        4.7607    2.6825    0.9150 H         1 RES1    0.0000
     55 C22        4.3839    1.2924   -0.5631 C.ar      1 RES1    0.0000
     56 H29        5.0826    1.5601   -1.1497 H         1 RES1    0.0000
@<TRIPOS>BOND
     1    1   21 1
     2    2   46 2
     3    3    5 2
     4    4    5 2
     5    5   52 1
     6    6    7 1
     7    8    6 1
     8    9    8 1
     9   10    8 1
    10   11    8 1
    11   12   11 1
    12   13   11 1
    13   14   11 1
    14   15   14 1
    15   16   15 1
    16   17   15 1
    17   18   15 1
    18   19   18 1
    19   20   19 1
    20   21    6 1
    21   22    6 1
    22   23   22 1
    23   24   22 1
    24   25   24 1
    25   26   24 1
    26   27   19 1
    27   28   27 1
    28   29   27 1
    29   30   18 1
    30   31   30 1
    31   32   30 1
    32   33   30 1
    33   34   18 1
    34   35   34 1
    35   36   34 1
    36   37   34 1
    37   38   14 1
    38   39   38 1
    39   40   38 1
    40   41   38 1
    41   42   22 1
    42   43   42 1
    43   44   42 1
    44   45   42 1
    45   46    1 1
    46   47   46 1
    47   48   47 ar
    48   49   48 1
    49   50   48 ar
    50   51   50 1
    51   52   50 ar
    52   53   52 ar
    53   54   53 1
    54   55   47 ar
    55   56   55 1
    56   14   21 1
    57   19   21 1
    58   24   27 1
    59   53   55 ar
@<TRIPOS>SUBSTRUCTURE
     1 RES1 1

@<TRIPOS>CRYSIN
   8.2110    8.2110   58.6570  90.0000  90.0000  90.0000  96 1

