# MOL2 file generated by ConQuest
# Please check atom types

@<TRIPOS>MOLECULE
NAKJIT
    33    34     1
SMALL
NO_CHARGES
****
Generated from CSD

@<TRIPOS>ATOM
      1 N1         2.8181   -1.1438   14.0412 N.pl3     1 RES1    0.0000
      2 N2         1.3801    1.9645   15.0819 N.pl3     1 RES1    0.0000
      3 H1         1.2704    2.6841   15.6794 H         1 RES1    0.0000
      4 N3         0.3391    1.1419   13.1097 N.2       1 RES1    0.0000
      5 N4         1.3823   -0.7915   12.2729 N.2       1 RES1    0.0000
      6 O1         3.7320   -1.7436   14.5934 O.2       1 RES1    0.0000
      7 O2         2.3944   -1.6290   12.7317 O.3       1 RES1    0.0000
      8 O3        -0.1776    3.1549   14.0742 O.3       1 RES1    0.0000
      9 O4         1.7527   -2.2793   16.8808 O.2       1 RES1    0.0000
     10 O5         3.3074   -0.8945   17.6491 O.3       1 RES1    0.0000
     11 C1         2.0657   -0.1121   14.3002 C.2       1 RES1    0.0000
     12 C2         2.0564    0.7500   15.5164 C.3       1 RES1    0.0000
     13 H2         2.9798    0.9703   15.7568 H         1 RES1    0.0000
     14 C3         0.5085    2.0195   14.0551 C.2       1 RES1    0.0000
     15 C4         1.2047    0.1049   13.2067 C.2       1 RES1    0.0000
     16 C5         1.3598    0.0894   16.7402 C.3       1 RES1    0.0000
     17 C6         2.1455   -1.1646   17.0908 C.2       1 RES1    0.0000
     18 C7         4.1303   -2.0299   17.9812 C.3       1 RES1    0.0000
     19 H3         4.9360   -1.7274   18.4077 H         1 RES1    0.0000
     20 H4         4.3521   -2.5092   17.1808 H         1 RES1    0.0000
     21 H5         3.6507   -2.6089   18.5784 H         1 RES1    0.0000
     22 C8        -0.0757   -0.2824   16.4331 C.3       1 RES1    0.0000
     23 H6        -0.5543    0.4994   16.1492 H         1 RES1    0.0000
     24 H7        -0.4879   -0.6412   17.2211 H         1 RES1    0.0000
     25 H8        -0.0925   -0.9405   15.7335 H         1 RES1    0.0000
     26 C9         1.4109    1.0661   17.9238 C.3       1 RES1    0.0000
     27 H9         0.8376    1.8162   17.7454 H         1 RES1    0.0000
     28 H10        2.3113    1.3738   18.0479 H         1 RES1    0.0000
     29 H11        1.1130    0.6198   18.7211 H         1 RES1    0.0000
     30 C10       -1.0761    3.4134   12.9678 C.3       1 RES1    0.0000
     31 H12       -1.3955    4.3169   13.0190 H         1 RES1    0.0000
     32 H13       -1.8193    2.8078   13.0112 H         1 RES1    0.0000
     33 H14       -0.6075    3.2858   12.1395 H         1 RES1    0.0000
@<TRIPOS>BOND
     1    1    6 1
     2    2    3 1
     3    4   14 2
     4    5    7 1
     5    7    1 1
     6    8   14 1
     7    9   17 2
     8   10   17 1
     9   11    1 2
    10   12    2 1
    11   13   12 1
    12   14    2 1
    13   15    4 1
    14   16   12 1
    15   17   16 1
    16   18   10 1
    17   19   18 1
    18   20   18 1
    19   21   18 1
    20   22   16 1
    21   23   22 1
    22   24   22 1
    23   25   22 1
    24   26   16 1
    25   27   26 1
    26   28   26 1
    27   29   26 1
    28   30    8 1
    29   31   30 1
    30   32   30 1
    31   33   30 1
    32    5   15 2
    33   11   12 1
    34   11   15 1
@<TRIPOS>SUBSTRUCTURE
     1 RES1 1

@<TRIPOS>CRYSIN
  12.1290    6.4770   15.5960  90.0000  95.9600  90.0000  14 1

