# MOL2 file generated by ConQuest
# Please check atom types

@<TRIPOS>MOLECULE
NALYOQ
    30    30     1
SMALL
NO_CHARGES
****
Generated from CSD

@<TRIPOS>ATOM
      1 O1         4.1753    9.9993    5.8410 O.2       1 RES1    0.0000
      2 O2         4.2283    7.6472    3.4381 O.2       1 RES1    0.0000
      3 N1         2.4943   10.5811    4.6577 N.3       1 RES1    0.0000
      4 N2         3.7372   10.8099    5.0323 N.2       1 RES1    0.0000
      5 N3         2.5441    8.5607    2.9818 N.3       1 RES1    0.0000
      6 N4         3.8654    8.2567    2.5733 N.2       1 RES1    0.0000
      7 C1         1.9245   11.4470    3.6062 C.3       1 RES1    0.0000
      8 C2         3.0552   12.2224    2.8954 C.3       1 RES1    0.0000
      9 H1         3.7197   11.6036    2.5827 H         1 RES1    0.0000
     10 H2         3.4571   12.8380    3.5116 H         1 RES1    0.0000
     11 H3         2.6922   12.7060    2.1497 H         1 RES1    0.0000
     12 C3         0.9466   12.4281    4.2515 C.3       1 RES1    0.0000
     13 H4         1.3994   12.9271    4.9354 H         1 RES1    0.0000
     14 H5         0.2151   11.9414    4.6402 H         1 RES1    0.0000
     15 H6         0.6119   13.0315    3.5840 H         1 RES1    0.0000
     16 C4         1.1766   10.5796    2.6130 C.3       1 RES1    0.0000
     17 H7         0.8437   11.1477    1.9011 H         1 RES1    0.0000
     18 H8         0.4068   10.1973    3.0623 H         1 RES1    0.0000
     19 C5         1.9744    9.4496    1.9886 C.3       1 RES1    0.0000
     20 H9         2.7270    9.8642    1.5172 H         1 RES1    0.0000
     21 C6         1.1674    8.6943    0.9430 C.3       1 RES1    0.0000
     22 H10        0.5060    8.1523    1.3794 H         1 RES1    0.0000
     23 H11        1.7533    8.1339    0.4306 H         1 RES1    0.0000
     24 H12        0.7335    9.3207    0.3594 H         1 RES1    0.0000
     25 C7         1.7873    8.2736    4.1617 C.3       1 RES1    0.0000
     26 H13        2.1867    7.5152    4.6168 H         1 RES1    0.0000
     27 H14        0.8852    8.0234    3.9061 H         1 RES1    0.0000
     28 C8         1.7217    9.4619    5.1315 C.3       1 RES1    0.0000
     29 H15        0.7974    9.7352    5.2412 H         1 RES1    0.0000
     30 H16        2.0563    9.1856    5.9998 H         1 RES1    0.0000
@<TRIPOS>BOND
     1    1    4 2
     2    2    6 2
     3    3    4 1
     4    5    6 1
     5    7    3 1
     6    8    7 1
     7    9    8 1
     8   10    8 1
     9   11    8 1
    10   12    7 1
    11   13   12 1
    12   14   12 1
    13   15   12 1
    14   16    7 1
    15   17   16 1
    16   18   16 1
    17   19    5 1
    18   20   19 1
    19   21   19 1
    20   22   21 1
    21   23   21 1
    22   24   21 1
    23   25    5 1
    24   26   25 1
    25   27   25 1
    26   28    3 1
    27   29   28 1
    28   30   28 1
    29   16   19 1
    30   25   28 1
@<TRIPOS>SUBSTRUCTURE
     1 RES1 1

@<TRIPOS>CRYSIN
   5.9207   15.3528   12.8203  90.0000 114.4520  90.0000  14 1

