# MOL2 file generated by ConQuest
# Please check atom types

@<TRIPOS>MOLECULE
NAMMAS
    42    43     1
SMALL
NO_CHARGES
****
Generated from CSD

@<TRIPOS>ATOM
      1 C1         3.5005    0.3636    2.6511 C.ar      1 RES1    0.0000
      2 N1         3.9849   -0.7621    0.6314 N.2       1 RES1    0.0000
      3 O1         3.5583   -1.7467   -0.2623 O.3       1 RES1    0.0000
      4 H1         4.0910   -1.8018   -0.8834 H         1 RES1    0.0000
      5 O2         5.4576    1.1918    1.5140 O.3       1 RES1    0.0000
      6 H2         5.2298    0.6006    0.9933 H         1 RES1    0.0000
      7 N2         1.8411    1.4669    5.7454 N.2       1 RES1    0.0000
      8 C2         2.6371    0.4867    3.7439 C.ar      1 RES1    0.0000
      9 H3         1.9070   -0.0853    3.8182 H         1 RES1    0.0000
     10 N3         2.0921    2.2990    6.5957 N.2       1 RES1    0.0000
     11 C3         2.8508    1.4322    4.7016 C.ar      1 RES1    0.0000
     12 O3         5.9030    2.9976    3.3140 O.3       1 RES1    0.0000
     13 C4         3.9502    2.3019    4.6147 C.ar      1 RES1    0.0000
     14 H4         4.0965    2.9377    5.2768 H         1 RES1    0.0000
     15 C5         4.8143    2.2050    3.5377 C.ar      1 RES1    0.0000
     16 C6         4.5929    1.2312    2.5586 C.ar      1 RES1    0.0000
     17 C7         3.2214   -0.6304    1.6309 C.2       1 RES1    0.0000
     18 H5         2.4740   -1.1758    1.7131 H         1 RES1    0.0000
     19 C8         6.0971    4.0900    4.1927 C.3       1 RES1    0.0000
     20 H6         5.3263    4.6616    4.1682 H         1 RES1    0.0000
     21 H7         6.8725    4.5872    3.9201 H         1 RES1    0.0000
     22 H8         6.2253    3.7634    5.0864 H         1 RES1    0.0000
     23 C9         1.0404    2.3803    7.6118 C.ar      1 RES1    0.0000
     24 C10        1.3164    3.2219    8.6493 C.ar      1 RES1    0.0000
     25 H9         2.1367    3.6599    8.6841 H         1 RES1    0.0000
     26 C11        0.3911    3.4266    9.6410 C.ar      1 RES1    0.0000
     27 H10        0.6017    3.9956   10.3459 H         1 RES1    0.0000
     28 C12       -0.8433    2.8093    9.6213 C.ar      1 RES1    0.0000
     29 C13       -1.1281    1.9548    8.5624 C.ar      1 RES1    0.0000
     30 H11       -1.9532    1.5278    8.5229 H         1 RES1    0.0000
     31 C14       -0.1843    1.7342    7.5565 C.ar      1 RES1    0.0000
     32 H12       -0.3770    1.1559    6.8540 H         1 RES1    0.0000
     33 C15       -1.8493    3.1312   10.7086 C.3       1 RES1    0.0000
     34 H13       -1.3530    3.5638   11.4347 H         1 RES1    0.0000
     35 C16       -2.5034    1.9209   11.2941 C.3       1 RES1    0.0000
     36 H14       -3.0849    2.1865   12.0108 H         1 RES1    0.0000
     37 H15       -1.8301    1.3246   11.6315 H         1 RES1    0.0000
     38 H16       -3.0150    1.4734   10.6161 H         1 RES1    0.0000
     39 C17       -2.8555    4.1444   10.2036 C.3       1 RES1    0.0000
     40 H17       -3.3648    3.7597    9.4862 H         1 RES1    0.0000
     41 H18       -2.3937    4.9228    9.8868 H         1 RES1    0.0000
     42 H19       -3.4470    4.3912   10.9188 H         1 RES1    0.0000
@<TRIPOS>BOND
     1    1    8 ar
     2    2    3 1
     3    3    4 1
     4    5    6 1
     5    7   10 2
     6    8    9 1
     7   10   23 1
     8   11    7 1
     9   12   15 1
    10   13   11 ar
    11   14   13 1
    12   15   13 ar
    13   16    1 ar
    14   17    1 1
    15   18   17 1
    16   19   12 1
    17   20   19 1
    18   21   19 1
    19   22   19 1
    20   23   24 ar
    21   24   25 1
    22   26   24 ar
    23   27   26 1
    24   28   26 ar
    25   29   28 ar
    26   30   29 1
    27   31   23 ar
    28   32   31 1
    29   33   28 1
    30   34   33 1
    31   35   33 1
    32   36   35 1
    33   37   35 1
    34   38   35 1
    35   39   33 1
    36   40   39 1
    37   41   39 1
    38   42   39 1
    39    2   17 2
    40    5   16 1
    41    8   11 ar
    42   15   16 ar
    43   29   31 ar
@<TRIPOS>SUBSTRUCTURE
     1 RES1 1

@<TRIPOS>CRYSIN
  11.3988   18.1454    8.0243  90.0000 100.0230  90.0000  14 1

