# MOL2 file generated by ConQuest
# Please check atom types

@<TRIPOS>MOLECULE
NAMPIB
    42    42     2
SMALL
NO_CHARGES
****
Generated from CSD

@<TRIPOS>ATOM
      1 N1         2.4662   12.0526    2.4379 N.pl3     1 RES1    0.0000
      2 N2         5.8737   11.0487    7.6504 N.pl3     2 RES2    0.0000
      3 O1         2.3912   10.5047    7.2244 O.3       1 RES1    0.0000
      4 O2         2.4277   12.3321    8.4670 O.2       1 RES1    0.0000
      5 O3         2.6025   14.6593    7.3281 O.3       1 RES1    0.0000
      6 O4         2.5460   12.7356    1.4335 O.2       1 RES1    0.0000
      7 O5         2.3771   10.8406    2.3982 O.2       1 RES1    0.0000
      8 O6         5.7366    9.9393    7.1739 O.2       2 RES2    0.0000
      9 O7         5.9500   11.2327    8.8485 O.2       2 RES2    0.0000
     10 O8         6.1618   15.4940    4.3635 O.3       2 RES2    0.0000
     11 O9         6.1499   13.8826    2.3192 O.2       2 RES2    0.0000
     12 O10        5.8887   11.6997    2.6781 O.3       2 RES2    0.0000
     13 C1         2.4734   12.5762    6.1208 C.ar      1 RES1    0.0000
     14 C2         2.5587   13.9812    6.1804 C.ar      1 RES1    0.0000
     15 C3         2.6110   14.7145    4.9983 C.ar      1 RES1    0.0000
     16 H1         2.6695   15.6417    5.0378 H         1 RES1    0.0000
     17 C4         2.5775   14.0983    3.7841 C.ar      1 RES1    0.0000
     18 H2         2.6088   14.5980    3.0000 H         1 RES1    0.0000
     19 C5         2.4976   12.7186    3.7351 C.ar      1 RES1    0.0000
     20 C6         2.4369   11.9536    4.8792 C.ar      1 RES1    0.0000
     21 H3         2.3718   11.0271    4.8205 H         1 RES1    0.0000
     22 C7         2.4296   11.8078    7.3753 C.2       1 RES1    0.0000
     23 C8         2.3778    9.7111    8.4527 C.3       1 RES1    0.0000
     24 H4         3.1209    9.9636    9.0057 H         1 RES1    0.0000
     25 H5         2.4437    8.7791    8.2329 H         1 RES1    0.0000
     26 H6         1.5580    9.8702    8.9277 H         1 RES1    0.0000
     27 C9         6.0233   13.0940    4.5510 C.ar      2 RES2    0.0000
     28 C10        6.0928   14.3855    5.1097 C.ar      2 RES2    0.0000
     29 C11        6.0718   14.5447    6.4936 C.ar      2 RES2    0.0000
     30 H7         6.1064   15.3995    6.8583 H         2 RES2    0.0000
     31 C12        6.0014   13.4629    7.3203 C.ar      2 RES2    0.0000
     32 H8         5.9906   13.5713    8.2441 H         2 RES2    0.0000
     33 C13        5.9452   12.2028    6.7576 C.ar      2 RES2    0.0000
     34 C14        5.9560   12.0064    5.3997 C.ar      2 RES2    0.0000
     35 H9         5.9183   11.1443    5.0527 H         2 RES2    0.0000
     36 C15        6.0360   12.9479    3.0857 C.2       2 RES2    0.0000
     37 C16        5.8801   11.4786    1.2353 C.3       2 RES2    0.0000
     38 H10        5.2361   12.0617    0.8266 H         2 RES2    0.0000
     39 H11        5.6472   10.5665    1.0533 H         2 RES2    0.0000
     40 H12        6.7521   11.6642    0.8786 H         2 RES2    0.0000
     41 H13        2.5605   14.0702    8.0044 H         1 RES1    0.0000
     42 H14        6.2199   15.2416    3.5220 H         2 RES2    0.0000
@<TRIPOS>BOND
     1    1    6 2
     2    2    8 2
     3    3   22 1
     4    4   22 2
     5    5   14 1
     6    7    1 2
     7    9    2 2
     8   10   28 1
     9   11   36 2
    10   12   36 1
    11   13   14 ar
    12   14   15 ar
    13   15   16 1
    14   17   15 ar
    15   18   17 1
    16   19    1 1
    17   20   13 ar
    18   21   20 1
    19   22   13 1
    20   23    3 1
    21   24   23 1
    22   25   23 1
    23   26   23 1
    24   27   28 ar
    25   28   29 ar
    26   29   30 1
    27   31   29 ar
    28   32   31 1
    29   33    2 1
    30   34   27 ar
    31   35   34 1
    32   36   27 1
    33   37   12 1
    34   38   37 1
    35   39   37 1
    36   40   37 1
    37   41    5 1
    38   42   10 1
    39   17   19 ar
    40   19   20 ar
    41   31   33 ar
    42   33   34 ar
@<TRIPOS>SUBSTRUCTURE
     1 RES1 1
     2 RES2 2

@<TRIPOS>CRYSIN
   6.9648   13.1620   18.5790  90.0000  91.0150  90.0000  14 1

