# MOL2 file generated by ConQuest
# Please check atom types

@<TRIPOS>MOLECULE
NAMPUO
    25    26     1
SMALL
NO_CHARGES
****
Generated from CSD

@<TRIPOS>ATOM
      1 O1         5.3219    5.1798    5.4205 O.3       1 RES1    0.0000
      2 N1         6.3747    4.3672    5.9977 N.3       1 RES1    0.0000
      3 C1         5.6699    3.1829    6.5084 C.3       1 RES1    0.0000
      4 H1         6.1152    2.8708    7.3479 H         1 RES1    0.0000
      5 C2         4.2118    3.6400    6.8357 C.3       1 RES1    0.0000
      6 H2         4.0554    3.6233    7.8234 H         1 RES1    0.0000
      7 C3         4.1905    5.0938    6.3137 C.3       1 RES1    0.0000
      8 H3         4.2357    5.7655    7.0536 H         1 RES1    0.0000
      9 C4         2.9308    5.2362    5.4795 C.3       1 RES1    0.0000
     10 H4         3.0538    5.9056    4.7598 H         1 RES1    0.0000
     11 H5         2.1595    5.5014    6.0404 H         1 RES1    0.0000
     12 C5         2.7337    3.8333    4.8991 C.3       1 RES1    0.0000
     13 H6         1.8038    3.7022    4.5861 H         1 RES1    0.0000
     14 H7         3.3566    3.6649    4.1487 H         1 RES1    0.0000
     15 C6         3.0493    2.9348    6.0943 C.3       1 RES1    0.0000
     16 H8         3.3225    2.0332    5.7918 H         1 RES1    0.0000
     17 H9         2.2591    2.8469    6.6852 H         1 RES1    0.0000
     18 C7         5.6774    2.0602    5.4900 C.2       1 RES1    0.0000
     19 O2         5.5925    0.8901    6.1452 O.3       1 RES1    0.0000
     20 O3         5.7136    2.1686    4.2909 O.2       1 RES1    0.0000
     21 C8         5.3972   -0.2999    5.3454 C.3       1 RES1    0.0000
     22 H10        4.4540   -0.3714    5.0908 H         1 RES1    0.0000
     23 H11        5.6561   -1.0893    5.8651 H         1 RES1    0.0000
     24 H12        5.9500   -0.2446    4.5374 H         1 RES1    0.0000
     25 H13        6.6589    4.8216    6.7249 H         1 RES1    0.0000
@<TRIPOS>BOND
     1    1    2 1
     2    2    3 1
     3    3    4 1
     4    5    3 1
     5    6    5 1
     6    7    1 1
     7    8    7 1
     8    9    7 1
     9   10    9 1
    10   11    9 1
    11   12    9 1
    12   13   12 1
    13   14   12 1
    14   15    5 1
    15   16   15 1
    16   17   15 1
    17   18    3 1
    18   19   18 1
    19   20   18 2
    20   21   19 1
    21   22   21 1
    22   23   21 1
    23   24   21 1
    24   25    2 1
    25    5    7 1
    26   12   15 1
@<TRIPOS>SUBSTRUCTURE
     1 RES1 1

@<TRIPOS>CRYSIN
  12.6139    8.8632    7.4887  90.0000  90.0000  90.0000  33 1

