# MOL2 file generated by ConQuest
# Please check atom types

@<TRIPOS>MOLECULE
NAMPOH
    24    24     1
SMALL
NO_CHARGES
****
Generated from CSD

@<TRIPOS>ATOM
      1 C1        -0.0496    1.5973    1.7025 C.ar      1 RES1    0.0000
      2 C2         0.0696    0.3301    2.2778 C.ar      1 RES1    0.0000
      3 C3        -0.7252    0.0000    3.3727 C.ar      1 RES1    0.0000
      4 H1        -0.6516   -0.8456    3.7525 H         1 RES1    0.0000
      5 C4        -1.6043    0.8897    3.8947 C.ar      1 RES1    0.0000
      6 H2        -2.1262    0.6602    4.6286 H         1 RES1    0.0000
      7 C5        -1.7161    2.1524    3.3174 C.ar      1 RES1    0.0000
      8 C6        -0.9555    2.5028    2.2353 C.ar      1 RES1    0.0000
      9 H3        -1.0455    3.3484    1.8580 H         1 RES1    0.0000
     10 C7         0.7735    1.9285    0.5227 C.2       1 RES1    0.0000
     11 C8         1.2791    3.4501   -1.1736 C.3       1 RES1    0.0000
     12 H4         1.1339    2.7831   -1.8635 H         1 RES1    0.0000
     13 H5         2.2257    3.4761   -0.9655 H         1 RES1    0.0000
     14 C9         0.8240    4.7682   -1.6372 C.3       1 RES1    0.0000
     15 H6        -0.0971    4.7151   -1.9018 H         1 RES1    0.0000
     16 H7         1.3561    5.0463   -2.3855 H         1 RES1    0.0000
     17 H8         0.9159    5.4069   -0.9254 H         1 RES1    0.0000
     18 H9         1.2355   -0.1357    1.2046 H         1 RES1    0.0000
     19 N1        -2.6840    3.0929    3.8573 N.pl3     1 RES1    0.0000
     20 O1        -3.3320    2.7764    4.8354 O.2       1 RES1    0.0000
     21 O2        -2.8257    4.1623    3.2961 O.2       1 RES1    0.0000
     22 O3         0.5077    3.1178    0.0183 O.3       1 RES1    0.0000
     23 O4         1.6058    1.1870    0.0613 O.2       1 RES1    0.0000
     24 O5         0.9193   -0.6082    1.8458 O.3       1 RES1    0.0000
@<TRIPOS>BOND
     1    1    2 ar
     2    2    3 ar
     3    3    4 1
     4    5    3 ar
     5    6    5 1
     6    7    5 ar
     7    8    1 ar
     8    9    8 1
     9   10    1 1
    10   11   12 1
    11   13   11 1
    12   14   11 1
    13   15   14 1
    14   16   14 1
    15   17   14 1
    16   18   24 1
    17   19    7 1
    18   20   19 2
    19   21   19 2
    20   22   10 1
    21   23   10 2
    22   24    2 1
    23    7    8 ar
    24   11   22 1
@<TRIPOS>SUBSTRUCTURE
     1 RES1 1

@<TRIPOS>CRYSIN
   4.7424   11.3044   18.3740  90.0000  96.6180  90.0000  14 1

