# MOL2 file generated by ConQuest
# Please check atom types

@<TRIPOS>MOLECULE
NANBIO
    36    38     1
SMALL
NO_CHARGES
****
Generated from CSD

@<TRIPOS>ATOM
      1 O1         3.5933    0.4237    4.7534 O.3       1 RES1    0.0000
      2 O2         4.1721    3.6732    5.8593 O.3       1 RES1    0.0000
      3 O3         7.4871    0.6543    2.3316 O.2       1 RES1    0.0000
      4 N1         3.4932    2.4493    5.7564 N.2       1 RES1    0.0000
      5 N2         6.0095    4.7308    1.6576 N.ar      1 RES1    0.0000
      6 C1         4.1119    1.7001    4.9419 C.2       1 RES1    0.0000
      7 C2         5.3572    1.9168    4.0931 C.3       1 RES1    0.0000
      8 C3         5.4983    0.5238    3.5391 C.2       1 RES1    0.0000
      9 C4         6.5306   -0.0032    2.6846 C.2       1 RES1    0.0000
     10 C5         6.3443   -1.4630    2.2939 C.3       1 RES1    0.0000
     11 C6         4.8878   -1.9236    2.1751 C.3       1 RES1    0.0000
     12 C7         4.1612   -1.6074    3.4877 C.3       1 RES1    0.0000
     13 C8         4.4520   -0.2187    3.9104 C.2       1 RES1    0.0000
     14 C9         6.1176    3.8560    2.6732 C.ar      1 RES1    0.0000
     15 C10        5.1385    2.9386    2.9907 C.ar      1 RES1    0.0000
     16 C11        4.0010    2.9190    2.2174 C.ar      1 RES1    0.0000
     17 C12        3.8681    3.8273    1.1767 C.ar      1 RES1    0.0000
     18 C13        4.8909    4.7108    0.9413 C.ar      1 RES1    0.0000
     19 C14        4.2363   -1.2124    0.9916 C.3       1 RES1    0.0000
     20 C15        4.8660   -3.4351    1.9443 C.3       1 RES1    0.0000
     21 H1         3.4819    4.2195    6.6372 H         1 RES1    0.0000
     22 H2         6.0295    2.2980    4.6723 H         1 RES1    0.0000
     23 H3         6.9096    3.8431    3.2558 H         1 RES1    0.0000
     24 H4         3.3324    2.3772    2.3533 H         1 RES1    0.0000
     25 H5         3.1821    3.8828    0.6854 H         1 RES1    0.0000
     26 H6         4.8028    5.3883    0.1828 H         1 RES1    0.0000
     27 H7         6.8080   -1.6046    1.3709 H         1 RES1    0.0000
     28 H8         6.7703   -1.9216    3.0273 H         1 RES1    0.0000
     29 H9         3.1535   -1.7037    3.4386 H         1 RES1    0.0000
     30 H10        4.4915   -2.2781    4.2040 H         1 RES1    0.0000
     31 H11        3.2687   -1.5254    0.9596 H         1 RES1    0.0000
     32 H12        4.7410   -1.4065    0.2056 H         1 RES1    0.0000
     33 H13        4.2729   -0.3170    1.0281 H         1 RES1    0.0000
     34 H14        3.9384   -3.8035    1.8735 H         1 RES1    0.0000
     35 H15        5.2700   -3.7045    1.0053 H         1 RES1    0.0000
     36 H16        5.1421   -3.8828    2.6732 H         1 RES1    0.0000
@<TRIPOS>BOND
     1    1    6 1
     2    2    4 1
     3    3    9 2
     4    4    6 2
     5    5   14 ar
     6    6    7 1
     7    7    8 1
     8    8    9 1
     9    9   10 1
    10   10   11 1
    11   11   12 1
    12   12   13 1
    13   13    1 1
    14   14   15 ar
    15   15    7 1
    16   16   15 ar
    17   17   16 ar
    18   18    5 ar
    19   19   11 1
    20   20   11 1
    21   21    2 1
    22   22    7 1
    23   23   14 1
    24   24   16 1
    25   25   17 1
    26   26   18 1
    27   27   10 1
    28   28   10 1
    29   29   12 1
    30   30   12 1
    31   31   19 1
    32   32   19 1
    33   33   19 1
    34   34   20 1
    35   35   20 1
    36   36   20 1
    37    8   13 2
    38   17   18 ar
@<TRIPOS>SUBSTRUCTURE
     1 RES1 1

@<TRIPOS>CRYSIN
   5.9190   19.8100   11.5000  90.0000  96.6000  90.0000 231 1

