# MOL2 file generated by ConQuest
# Please check atom types

@<TRIPOS>MOLECULE
NANGEO
    23    23     1
SMALL
NO_CHARGES
****
Generated from CSD

@<TRIPOS>ATOM
      1 O1         4.2834    0.6256   13.2066 O.2       1 RES1    0.0000
      2 O2         0.7063    0.2750   11.4115 O.3       1 RES1    0.0000
      3 O3         1.5617   -1.7874   10.2339 O.2       1 RES1    0.0000
      4 N1         1.9144    0.3887   12.0206 N.2       1 RES1    0.0000
      5 C1         4.1222   -0.3131   12.4653 C.2       1 RES1    0.0000
      6 C2         2.7953   -0.5244   11.7853 C.2       1 RES1    0.0000
      7 C3         2.5927   -1.6898   10.8968 C.2       1 RES1    0.0000
      8 C4         3.6765   -2.7040   10.8312 C.3       1 RES1    0.0000
      9 C5         5.0737   -2.0677   10.8602 C.3       1 RES1    0.0000
     10 C6         5.2123   -1.2952   12.1727 C.3       1 RES1    0.0000
     11 C7         6.1174   -3.1807   10.8061 C.3       1 RES1    0.0000
     12 C8         5.2512   -1.1404    9.6671 C.3       1 RES1    0.0000
     13 H1         0.7478   -0.5178   10.8977 H         1 RES1    0.0000
     14 H2         3.5714   -3.2022   10.0132 H         1 RES1    0.0000
     15 H3         3.5455   -3.2855   11.5930 H         1 RES1    0.0000
     16 H4         5.1802   -1.9642   12.9145 H         1 RES1    0.0000
     17 H5         6.0446   -0.7916   12.1962 H         1 RES1    0.0000
     18 H6         7.0505   -2.8034   10.8482 H         1 RES1    0.0000
     19 H7         6.0051   -3.6605    9.9955 H         1 RES1    0.0000
     20 H8         5.9818   -3.8331   11.5523 H         1 RES1    0.0000
     21 H9         5.1770   -1.6368    8.8279 H         1 RES1    0.0000
     22 H10        4.5911   -0.3750    9.6770 H         1 RES1    0.0000
     23 H11        6.1674   -0.7678    9.6770 H         1 RES1    0.0000
@<TRIPOS>BOND
     1    1    5 2
     2    2    4 1
     3    3    7 2
     4    4    6 2
     5    5    6 1
     6    6    7 1
     7    7    8 1
     8    8    9 1
     9    9   10 1
    10   10    5 1
    11   11    9 1
    12   12    9 1
    13   13    2 1
    14   14    8 1
    15   15    8 1
    16   16   10 1
    17   17   10 1
    18   18   11 1
    19   19   11 1
    20   20   11 1
    21   21   12 1
    22   22   12 1
    23   23   12 1
@<TRIPOS>SUBSTRUCTURE
     1 RES1 1

@<TRIPOS>CRYSIN
   7.9210    5.9520   17.8010  90.0000  96.3700  90.0000  14 1

