# MOL2 file generated by ConQuest
# Please check atom types

@<TRIPOS>MOLECULE
NANILI28
    16    16     1
SMALL
NO_CHARGES
****
Generated from CSD

@<TRIPOS>ATOM
      1 O1         6.1719    3.5511   -0.6504 O.2       1 RES1    0.0000
      2 O2         7.4144    5.3017   -0.8606 O.2       1 RES1    0.0000
      3 N1         6.4891    4.6983   -0.3177 N.pl3     1 RES1    0.0000
      4 N2         3.6766    7.1320    3.8180 N.3       1 RES1    0.0000
      5 C1         5.7585    5.3411    0.7386 C.ar      1 RES1    0.0000
      6 C2         6.1281    6.6188    1.1555 C.ar      1 RES1    0.0000
      7 C3         5.4302    7.2180    2.1750 C.ar      1 RES1    0.0000
      8 C4         4.3563    6.5561    2.7995 C.ar      1 RES1    0.0000
      9 C5         3.9956    5.2720    2.3457 C.ar      1 RES1    0.0000
     10 C6         4.6900    4.6709    1.3245 C.ar      1 RES1    0.0000
     11 H1         4.4662    3.8080    1.0155 H         1 RES1    0.0000
     12 H2         5.6665    8.0928    2.4717 H         1 RES1    0.0000
     13 H3         3.2595    4.8159    2.7530 H         1 RES1    0.0000
     14 H4         6.8869    7.0669    0.7342 H         1 RES1    0.0000
     15 H5         3.0553    6.6746    4.2043 H         1 RES1    0.0000
     16 H6         3.8728    7.9359    4.0375 H         1 RES1    0.0000
@<TRIPOS>BOND
     1    1    3 2
     2    2    3 2
     3    3    5 1
     4    4    8 1
     5    5    6 ar
     6    6    7 ar
     7    7    8 ar
     8    8    9 ar
     9    9   10 ar
    10   10    5 ar
    11   11   10 1
    12   12    7 1
    13   13    9 1
    14   14    6 1
    15   15    4 1
    16   16    4 1
@<TRIPOS>SUBSTRUCTURE
     1 RES1 1

@<TRIPOS>CRYSIN
   8.5178    6.0349   12.1852  90.0000  92.2390  90.0000 231 1

