# MOL2 file generated by ConQuest
# Please check atom types

@<TRIPOS>MOLECULE
NANILI02
    16    16     1
SMALL
NO_CHARGES
****
Generated from CSD

@<TRIPOS>ATOM
      1 O1         4.8551    3.7540    7.3577 O.2       1 RES1    0.0000
      2 O2         5.1258    5.5103    6.1163 O.2       1 RES1    0.0000
      3 N1         9.6911    1.9109    3.8011 N.3       1 RES1    0.0000
      4 N2         5.4383    4.3536    6.4496 N.pl3     1 RES1    0.0000
      5 C1         8.6438    2.4874    4.4386 C.ar      1 RES1    0.0000
      6 C2         7.9719    1.8194    5.4880 C.ar      1 RES1    0.0000
      7 C3         6.9164    2.4250    6.1498 C.ar      1 RES1    0.0000
      8 C4         6.5195    3.7103    5.7626 C.ar      1 RES1    0.0000
      9 C5         7.1541    4.3807    4.7147 C.ar      1 RES1    0.0000
     10 C6         8.2057    3.7779    4.0598 C.ar      1 RES1    0.0000
     11 H1         8.2584    0.9837    5.7731 H         1 RES1    0.0000
     12 H2         6.4918    2.0156    6.8803 H         1 RES1    0.0000
     13 H3         6.8628    5.2410    4.4540 H         1 RES1    0.0000
     14 H4         8.6467    4.2380    3.3672 H         1 RES1    0.0000
     15 H5         9.9201    1.0994    3.9929 H         1 RES1    0.0000
     16 H6        10.0997    2.3459    3.2223 H         1 RES1    0.0000
@<TRIPOS>BOND
     1    1    4 2
     2    2    4 2
     3    3    5 1
     4    4    8 1
     5    5    6 ar
     6    6    7 ar
     7    7    8 ar
     8    8    9 ar
     9    9   10 ar
    10   10    5 ar
    11   11    6 1
    12   12    7 1
    13   13    9 1
    14   14   10 1
    15   15    3 1
    16   16    3 1
@<TRIPOS>SUBSTRUCTURE
     1 RES1 1

@<TRIPOS>CRYSIN
  12.1220    6.0276    8.4870  90.0000  92.7200  90.0000 231 1

