# MOL2 file generated by ConQuest
# Please check atom types

@<TRIPOS>MOLECULE
NANILI29
    16    16     1
SMALL
NO_CHARGES
****
Generated from CSD

@<TRIPOS>ATOM
      1 O1         6.1821    3.5569   -0.6551 O.2       1 RES1    0.0000
      2 O2         7.4250    5.3052   -0.8640 O.2       1 RES1    0.0000
      3 N1         6.5019    4.7025   -0.3190 N.pl3     1 RES1    0.0000
      4 N2         3.7036    7.1293    3.8288 N.3       1 RES1    0.0000
      5 C1         5.7744    5.3433    0.7404 C.ar      1 RES1    0.0000
      6 C2         6.1459    6.6192    1.1592 C.ar      1 RES1    0.0000
      7 C3         5.4525    7.2155    2.1818 C.ar      1 RES1    0.0000
      8 C4         4.3810    6.5553    2.8073 C.ar      1 RES1    0.0000
      9 C5         4.0178    5.2708    2.3521 C.ar      1 RES1    0.0000
     10 C6         4.7083    4.6729    1.3278 C.ar      1 RES1    0.0000
     11 H1         4.4760    3.8031    1.0324 H         1 RES1    0.0000
     12 H2         5.6950    8.0952    2.4532 H         1 RES1    0.0000
     13 H3         3.2794    4.8112    2.7513 H         1 RES1    0.0000
     14 H4         6.9052    7.0569    0.7587 H         1 RES1    0.0000
     15 H5         3.0709    6.6887    4.2199 H         1 RES1    0.0000
     16 H6         3.9220    7.9443    4.0513 H         1 RES1    0.0000
@<TRIPOS>BOND
     1    1    3 2
     2    2    3 2
     3    3    5 1
     4    4    8 1
     5    5    6 ar
     6    6    7 ar
     7    7    8 ar
     8    8    9 ar
     9    9   10 ar
    10   10    5 ar
    11   11   10 1
    12   12    7 1
    13   13    9 1
    14   14    6 1
    15   15    4 1
    16   16    4 1
@<TRIPOS>SUBSTRUCTURE
     1 RES1 1

@<TRIPOS>CRYSIN
   8.5377    6.0367   12.2248  90.0000  92.0060  90.0000 231 1

