# MOL2 file generated by ConQuest
# Please check atom types

@<TRIPOS>MOLECULE
NANILI26
    16    16     1
SMALL
NO_CHARGES
****
Generated from CSD

@<TRIPOS>ATOM
      1 O1         6.1573    3.5419   -0.6447 O.2       1 RES1    0.0000
      2 O2         7.4001    5.2980   -0.8579 O.2       1 RES1    0.0000
      3 N1         6.4713    4.6942   -0.3156 N.pl3     1 RES1    0.0000
      4 N2         3.6377    7.1371    3.8037 N.3       1 RES1    0.0000
      5 C1         5.7356    5.3382    0.7358 C.ar      1 RES1    0.0000
      6 C2         6.1028    6.6209    1.1506 C.ar      1 RES1    0.0000
      7 C3         5.3987    7.2225    2.1664 C.ar      1 RES1    0.0000
      8 C4         4.3223    6.5605    2.7884 C.ar      1 RES1    0.0000
      9 C5         3.9627    5.2704    2.3357 C.ar      1 RES1    0.0000
     10 C6         4.6632    4.6668    1.3187 C.ar      1 RES1    0.0000
     11 H1         4.4387    3.8010    1.0240 H         1 RES1    0.0000
     12 H2         5.6305    8.1029    2.4382 H         1 RES1    0.0000
     13 H3         3.2346    4.8086    2.7448 H         1 RES1    0.0000
     14 H4         6.8830    7.0651    0.7525 H         1 RES1    0.0000
     15 H5         3.0273    6.6729    4.2184 H         1 RES1    0.0000
     16 H6         3.8340    7.9460    4.0439 H         1 RES1    0.0000
@<TRIPOS>BOND
     1    1    3 2
     2    2    3 2
     3    3    5 1
     4    4    8 1
     5    5    6 ar
     6    6    7 ar
     7    7    8 ar
     8    8    9 ar
     9    9   10 ar
    10   10    5 ar
    11   11   10 1
    12   12    7 1
    13   13    9 1
    14   14    6 1
    15   15    4 1
    16   16    4 1
@<TRIPOS>SUBSTRUCTURE
     1 RES1 1

@<TRIPOS>CRYSIN
   8.4891    6.0334   12.1306  90.0000  92.5797  90.0000 231 1

