# MOL2 file generated by ConQuest
# Please check atom types

@<TRIPOS>MOLECULE
NANILI
    16    16     1
SMALL
NO_CHARGES
****
Generated from CSD

@<TRIPOS>ATOM
      1 C1        -3.2361    2.5239   -4.0790 C.ar      1 RES1    0.0000
      2 C2        -3.8943    1.8592   -3.0303 C.ar      1 RES1    0.0000
      3 C3        -4.9411    2.4547   -2.3681 C.ar      1 RES1    0.0000
      4 C4        -5.3484    3.7246   -2.7486 C.ar      1 RES1    0.0000
      5 C5        -4.7309    4.3947   -3.8007 C.ar      1 RES1    0.0000
      6 C6        -3.6781    3.8114   -4.4552 C.ar      1 RES1    0.0000
      7 H1        -3.6914    0.9591   -2.8087 H         1 RES1    0.0000
      8 H2        -5.3346    2.1427   -1.7350 H         1 RES1    0.0000
      9 H3        -4.9443    5.1777   -3.9940 H         1 RES1    0.0000
     10 H4        -3.2767    4.2187   -5.0591 H         1 RES1    0.0000
     11 H5        -2.0427    1.0198   -4.5867 H         1 RES1    0.0000
     12 H6        -1.6585    2.2702   -5.1450 H         1 RES1    0.0000
     13 N1        -2.1910    1.9539   -4.7224 N.pl3     1 RES1    0.0000
     14 N2        -6.4489    4.3807   -2.0614 N.pl3     1 RES1    0.0000
     15 O1        -7.0083    3.7628   -1.1604 O.2       1 RES1    0.0000
     16 O2        -6.7661    5.5195   -2.3973 O.2       1 RES1    0.0000
@<TRIPOS>BOND
     1    1    2 ar
     2    2    3 ar
     3    3    4 ar
     4    4    5 ar
     5    5    6 ar
     6    6    1 ar
     7    7    2 1
     8    8    3 1
     9    9    5 1
    10   10    6 1
    11   11   13 1
    12   12   13 1
    13   13    1 1
    14   14    4 1
    15   15   14 2
    16   16   14 2
@<TRIPOS>SUBSTRUCTURE
     1 RES1 1

@<TRIPOS>CRYSIN
  12.3360    6.0700    8.5920  90.0000  91.4500  90.0000 231 1

