# MOL2 file generated by ConQuest
# Please check atom types

@<TRIPOS>MOLECULE
NANILI24
    16    16     1
SMALL
NO_CHARGES
****
Generated from CSD

@<TRIPOS>ATOM
      1 O1         6.1462    3.5333   -0.6384 O.2       1 RES1    0.0000
      2 O2         7.3909    5.2942   -0.8555 O.2       1 RES1    0.0000
      3 N1         6.4599    4.6902   -0.3140 N.pl3     1 RES1    0.0000
      4 N2         3.6023    7.1433    3.7973 N.3       1 RES1    0.0000
      5 C1         5.7196    5.3360    0.7316 C.ar      1 RES1    0.0000
      6 C2         6.0847    6.6224    1.1454 C.ar      1 RES1    0.0000
      7 C3         5.3741    7.2295    2.1617 C.ar      1 RES1    0.0000
      8 C4         4.2921    6.5639    2.7830 C.ar      1 RES1    0.0000
      9 C5         3.9349    5.2712    2.3307 C.ar      1 RES1    0.0000
     10 C6         4.6416    4.6641    1.3136 C.ar      1 RES1    0.0000
     11 H1         4.4128    3.7665    1.0362 H         1 RES1    0.0000
     12 H2         5.6081    8.1151    2.4371 H         1 RES1    0.0000
     13 H3         3.1428    4.7999    2.7463 H         1 RES1    0.0000
     14 H4         6.8946    7.0563    0.7524 H         1 RES1    0.0000
     15 H5         2.9921    6.6587    4.2232 H         1 RES1    0.0000
     16 H6         3.8013    7.9685    4.0457 H         1 RES1    0.0000
@<TRIPOS>BOND
     1    1    3 2
     2    2    3 2
     3    3    5 1
     4    4    8 1
     5    5    6 ar
     6    6    7 ar
     7    7    8 ar
     8    8    9 ar
     9    9   10 ar
    10   10    5 ar
    11   11   10 1
    12   12    7 1
    13   13    9 1
    14   14    6 1
    15   15    4 1
    16   16    4 1
@<TRIPOS>SUBSTRUCTURE
     1 RES1 1

@<TRIPOS>CRYSIN
   8.4677    6.0331   12.0921  90.0000  92.8857  90.0000 231 1

