# MOL2 file generated by ConQuest
# Please check atom types

@<TRIPOS>MOLECULE
NANILI25
    16    16     1
SMALL
NO_CHARGES
****
Generated from CSD

@<TRIPOS>ATOM
      1 O1         6.1519    3.5373   -0.6421 O.2       1 RES1    0.0000
      2 O2         7.3941    5.2969   -0.8564 O.2       1 RES1    0.0000
      3 N1         6.4641    4.6916   -0.3138 N.pl3     1 RES1    0.0000
      4 N2         3.6188    7.1385    3.7988 N.3       1 RES1    0.0000
      5 C1         5.7255    5.3376    0.7346 C.ar      1 RES1    0.0000
      6 C2         6.0920    6.6215    1.1479 C.ar      1 RES1    0.0000
      7 C3         5.3840    7.2245    2.1621 C.ar      1 RES1    0.0000
      8 C4         4.3060    6.5612    2.7846 C.ar      1 RES1    0.0000
      9 C5         3.9478    5.2705    2.3320 C.ar      1 RES1    0.0000
     10 C6         4.6513    4.6659    1.3159 C.ar      1 RES1    0.0000
     11 H1         4.4195    3.8067    1.0292 H         1 RES1    0.0000
     12 H2         5.6170    8.1021    2.4346 H         1 RES1    0.0000
     13 H3         3.2103    4.8021    2.7406 H         1 RES1    0.0000
     14 H4         6.8614    7.0644    0.7486 H         1 RES1    0.0000
     15 H5         3.0111    6.6843    4.2125 H         1 RES1    0.0000
     16 H6         3.8078    7.9512    4.0359 H         1 RES1    0.0000
@<TRIPOS>BOND
     1    1    3 2
     2    2    3 2
     3    3    5 1
     4    4    8 1
     5    5    6 ar
     6    6    7 ar
     7    7    8 ar
     8    8    9 ar
     9    9   10 ar
    10   10    5 ar
    11   11   10 1
    12   12    7 1
    13   13    9 1
    14   14    6 1
    15   15    4 1
    16   16    4 1
@<TRIPOS>SUBSTRUCTURE
     1 RES1 1

@<TRIPOS>CRYSIN
   8.4764    6.0328   12.1082  90.0000  92.7386  90.0000 231 1

