# MOL2 file generated by ConQuest
# Please check atom types

@<TRIPOS>MOLECULE
NANKAO
    80    84     2
SMALL
NO_CHARGES
****
Generated from CSD

@<TRIPOS>ATOM
      1 O1        14.8178   13.1861   35.5614 O.3       1 RES1    0.0000
      2 O2        11.5442   16.8267   33.8106 O.3       1 RES1    0.0000
      3 O3        10.7452   15.9649   35.7187 O.2       1 RES1    0.0000
      4 O4        14.8687   15.3159   31.4334 O.3       1 RES1    0.0000
      5 O5        13.3187   16.8949   31.7767 O.3       1 RES1    0.0000
      6 N1        15.3011   14.4310   34.9492 N.3       1 RES1    0.0000
      7 C1        13.4952   13.0837   35.0579 C.3       1 RES1    0.0000
      8 C2        13.5168   13.6134   33.6275 C.3       1 RES1    0.0000
      9 C3        14.9031   14.2635   33.5474 C.3       1 RES1    0.0000
     10 C4        14.9531   15.6018   32.8265 C.3       1 RES1    0.0000
     11 C5        13.7883   16.5729   33.0783 C.3       1 RES1    0.0000
     12 C6        12.6844   15.9408   33.8879 C.3       1 RES1    0.0000
     13 C7        12.3521   14.5635   33.3529 C.3       1 RES1    0.0000
     14 C8        10.6481   16.7424   34.8004 C.2       1 RES1    0.0000
     15 C9         9.5393   17.7145   34.6145 C.3       1 RES1    0.0000
     16 C10       14.2629   16.4354   30.8240 C.3       1 RES1    0.0000
     17 C11       13.5168   15.9699   29.5997 C.3       1 RES1    0.0000
     18 C12       15.2864   17.4988   30.5265 C.3       1 RES1    0.0000
     19 C13       16.7335   14.3588   35.1437 C.3       1 RES1    0.0000
     20 O6        15.0413   21.2076   31.5764 O.3       2 RES2    0.0000
     21 O7        19.0845   24.3085   30.5551 O.3       2 RES2    0.0000
     22 O8        18.3952   25.4401   32.3288 O.2       2 RES2    0.0000
     23 O9        19.5119   20.0359   31.4191 O.3       2 RES2    0.0000
     24 O10       20.4933   22.0413   31.3189 O.3       2 RES2    0.0000
     25 N2        16.2237   21.2347   32.4375 N.3       2 RES2    0.0000
     26 C14       15.5305   21.8156   30.3835 C.3       2 RES2    0.0000
     27 C15       16.9521   21.2719   30.1975 C.3       2 RES2    0.0000
     28 C16       17.2433   20.6459   31.5621 C.3       2 RES2    0.0000
     29 C17       18.6315   20.8806   32.1285 C.3       2 RES2    0.0000
     30 C18       19.2335   22.2841   31.9197 C.3       2 RES2    0.0000
     31 C19       18.3639   23.1408   31.0043 C.3       2 RES2    0.0000
     32 C20       17.9394   22.3603   29.7913 C.3       2 RES2    0.0000
     33 C21       18.9727   25.4131   31.2875 C.2       2 RES2    0.0000
     34 C22       19.6727   26.5728   30.6753 C.3       2 RES2    0.0000
     35 C23       20.7933   20.6559   31.4505 C.3       2 RES2    0.0000
     36 C24       21.4963   20.3710   32.7407 C.3       2 RES2    0.0000
     37 C25       21.5698   20.1934   30.2605 C.3       2 RES2    0.0000
     38 C26       15.8756   20.3981   33.5646 C.3       2 RES2    0.0000
     39 H1        12.8864   13.6084   35.6014 H         1 RES1    0.0000
     40 H2        13.2011   12.1598   35.0693 H         1 RES1    0.0000
     41 H3        13.4756   12.8600   33.0010 H         1 RES1    0.0000
     42 H4        15.5237   13.6425   33.1097 H         1 RES1    0.0000
     43 H5        15.8031   16.0492   33.0211 H         1 RES1    0.0000
     44 H6        14.1148   17.3804   33.5274 H         1 RES1    0.0000
     45 H7        12.9727   15.8636   34.8204 H         1 RES1    0.0000
     46 H8        12.1874   14.6136   32.3974 H         1 RES1    0.0000
     47 H9        11.5491   14.2304   33.7820 H         1 RES1    0.0000
     48 H10        9.6883   18.2191   33.8106 H         1 RES1    0.0000
     49 H11        9.5069   18.3114   35.3668 H         1 RES1    0.0000
     50 H12        8.7069   17.2410   34.5458 H         1 RES1    0.0000
     51 H13       13.0981   16.7213   29.1763 H         1 RES1    0.0000
     52 H14       12.8452   15.3329   29.8571 H         1 RES1    0.0000
     53 H15       14.1305   15.5576   28.9875 H         1 RES1    0.0000
     54 H16       14.8550   18.2512   30.1146 H         1 RES1    0.0000
     55 H17       15.9521   17.1457   29.9315 H         1 RES1    0.0000
     56 H18       15.7040   17.7797   31.3447 H         1 RES1    0.0000
     57 H19       16.9364   14.4742   36.0763 H         1 RES1    0.0000
     58 H20       17.1609   15.0510   34.6345 H         1 RES1    0.0000
     59 H21       17.0531   13.5021   34.8519 H         1 RES1    0.0000
     60 H22       15.5433   22.7817   30.4722 H         2 RES2    0.0000
     61 H23       14.9727   21.5798   29.6254 H         2 RES2    0.0000
     62 H24       16.9433   20.5696   29.5138 H         2 RES2    0.0000
     63 H25       17.0874   19.6798   31.5049 H         2 RES2    0.0000
     64 H26       18.6462   20.6499   33.0811 H         2 RES2    0.0000
     65 H27       19.3531   22.7315   32.7836 H         2 RES2    0.0000
     66 H28       17.5658   23.4267   31.4963 H         2 RES2    0.0000
     67 H29       18.7168   21.9580   29.3737 H         2 RES2    0.0000
     68 H30       17.5237   22.9562   29.1477 H         2 RES2    0.0000
     69 H31       20.0619   26.3069   29.8400 H         2 RES2    0.0000
     70 H32       20.3639   26.8767   31.2675 H         2 RES2    0.0000
     71 H33       19.0443   27.2830   30.5265 H         2 RES2    0.0000
     72 H34       21.6845   19.4320   32.8008 H         2 RES2    0.0000
     73 H35       20.9355   20.6338   33.4759 H         2 RES2    0.0000
     74 H36       22.3178   20.8646   32.7722 H         2 RES2    0.0000
     75 H37       21.7698   19.2584   30.3520 H         2 RES2    0.0000
     76 H38       22.3884   20.6910   30.1975 H         2 RES2    0.0000
     77 H39       21.0492   20.3329   29.4652 H         2 RES2    0.0000
     78 H40       15.2080   20.8385   34.0967 H         2 RES2    0.0000
     79 H41       16.6570   20.2416   34.1024 H         2 RES2    0.0000
     80 H42       15.5305   19.5604   33.2499 H         2 RES2    0.0000
@<TRIPOS>BOND
     1    1    6 1
     2    2   12 1
     3    3   14 2
     4    4   10 1
     5    5   11 1
     6    6    9 1
     7    7    1 1
     8    8    7 1
     9    9    8 1
    10   10    9 1
    11   11   10 1
    12   12   11 1
    13   13    8 1
    14   14    2 1
    15   15   14 1
    16   16    4 1
    17   17   16 1
    18   18   16 1
    19   19    6 1
    20   20   25 1
    21   21   31 1
    22   22   33 2
    23   23   29 1
    24   24   30 1
    25   25   28 1
    26   26   20 1
    27   27   26 1
    28   28   27 1
    29   29   28 1
    30   30   29 1
    31   31   30 1
    32   32   27 1
    33   33   21 1
    34   34   33 1
    35   35   23 1
    36   36   35 1
    37   37   35 1
    38   38   25 1
    39   39    7 1
    40   40    7 1
    41   41    8 1
    42   42    9 1
    43   43   10 1
    44   44   11 1
    45   45   12 1
    46   46   13 1
    47   47   13 1
    48   48   15 1
    49   49   15 1
    50   50   15 1
    51   51   17 1
    52   52   17 1
    53   53   17 1
    54   54   18 1
    55   55   18 1
    56   56   18 1
    57   57   19 1
    58   58   19 1
    59   59   19 1
    60   60   26 1
    61   61   26 1
    62   62   27 1
    63   63   28 1
    64   64   29 1
    65   65   30 1
    66   66   31 1
    67   67   32 1
    68   68   32 1
    69   69   34 1
    70   70   34 1
    71   71   34 1
    72   72   36 1
    73   73   36 1
    74   74   36 1
    75   75   37 1
    76   76   37 1
    77   77   37 1
    78   78   38 1
    79   79   38 1
    80   80   38 1
    81    5   16 1
    82   12   13 1
    83   24   35 1
    84   31   32 1
@<TRIPOS>SUBSTRUCTURE
     1 RES1 1
     2 RES2 20

@<TRIPOS>CRYSIN
   9.8040   10.0320   28.6070  90.0000  90.0000  90.0000  19 1

