# MOL2 file generated by ConQuest
# Please check atom types

@<TRIPOS>MOLECULE
NANSAZ
    42    43     1
SMALL
NO_CHARGES
****
Generated from CSD

@<TRIPOS>ATOM
      1 O1         3.4224    2.0778    5.5538 O.3       1 RES1    0.0000
      2 O2         0.2178    8.4712    6.8007 O.2       1 RES1    0.0000
      3 O3        -1.8750    8.0382    6.6670 O.2       1 RES1    0.0000
      4 N1         1.8946    8.2288    2.8668 N.1       1 RES1    0.0000
      5 N2        -0.7081    7.7523    6.4698 N.pl3     1 RES1    0.0000
      6 C1         5.3734    5.5247    2.9738 C.ar      1 RES1    0.0000
      7 C2         6.6624    5.3926    2.5146 C.ar      1 RES1    0.0000
      8 C3         7.0339    4.3258    1.7492 C.ar      1 RES1    0.0000
      9 C4         6.0909    3.3645    1.4669 C.ar      1 RES1    0.0000
     10 C5         4.7991    3.4653    1.9335 C.ar      1 RES1    0.0000
     11 C6         4.4166    4.5498    2.7019 C.ar      1 RES1    0.0000
     12 C7         3.0085    4.7077    3.1626 C.2       1 RES1    0.0000
     13 C8         2.0292    4.8915    2.0286 C.3       1 RES1    0.0000
     14 C9         2.2425    6.2021    1.2811 C.3       1 RES1    0.0000
     15 C10        2.0669    7.3608    2.1446 C.1       1 RES1    0.0000
     16 C11        2.6504    4.7459    4.4496 C.2       1 RES1    0.0000
     17 C12        3.5977    4.5198    5.5940 C.3       1 RES1    0.0000
     18 C13        3.2863    3.2399    6.3356 C.3       1 RES1    0.0000
     19 C14        1.2428    5.0155    4.8494 C.ar      1 RES1    0.0000
     20 C15        0.9190    6.2014    5.5033 C.ar      1 RES1    0.0000
     21 C16       -0.3880    6.4656    5.8124 C.ar      1 RES1    0.0000
     22 C17       -1.4279    5.5928    5.5553 C.ar      1 RES1    0.0000
     23 C18       -1.1057    4.4055    4.9356 C.ar      1 RES1    0.0000
     24 C19        0.2071    4.1100    4.5982 C.ar      1 RES1    0.0000
     25 H1         5.1376    6.2736    3.4717 H         1 RES1    0.0000
     26 H2         2.9160    2.1200    4.9103 H         1 RES1    0.0000
     27 H3         7.2921    6.0421    2.7301 H         1 RES1    0.0000
     28 H4         7.9039    4.2509    1.4252 H         1 RES1    0.0000
     29 H5         6.3309    2.6299    0.9497 H         1 RES1    0.0000
     30 H6         4.1813    2.8008    1.7299 H         1 RES1    0.0000
     31 H7         1.1258    4.8718    2.3838 H         1 RES1    0.0000
     32 H8         2.1199    4.1522    1.4074 H         1 RES1    0.0000
     33 H9         3.1390    6.2150    0.9095 H         1 RES1    0.0000
     34 H10        1.6142    6.2552    0.5439 H         1 RES1    0.0000
     35 H11        3.5406    5.2673    6.2093 H         1 RES1    0.0000
     36 H12        4.5047    4.4797    5.2551 H         1 RES1    0.0000
     37 H13        3.8769    3.1718    7.1024 H         1 RES1    0.0000
     38 H14        2.3751    3.2862    6.6685 H         1 RES1    0.0000
     39 H15        1.5864    6.8100    5.7277 H         1 RES1    0.0000
     40 H16       -2.3037    5.7977    5.7916 H         1 RES1    0.0000
     41 H17       -1.7796    3.7927    4.7409 H         1 RES1    0.0000
     42 H18        0.4025    3.2937    4.1970 H         1 RES1    0.0000
@<TRIPOS>BOND
     1    1   18 1
     2    2    5 2
     3    3    5 2
     4    4   15 3
     5    5   21 1
     6    6    7 ar
     7    7    8 ar
     8    8    9 ar
     9    9   10 ar
    10   10   11 ar
    11   11    6 ar
    12   12   11 1
    13   13   12 1
    14   14   13 1
    15   15   14 1
    16   16   12 2
    17   17   16 1
    18   18   17 1
    19   19   16 1
    20   20   19 ar
    21   21   20 ar
    22   22   21 ar
    23   23   22 ar
    24   24   19 ar
    25   25    6 1
    26   26    1 1
    27   27    7 1
    28   28    8 1
    29   29    9 1
    30   30   10 1
    31   31   13 1
    32   32   13 1
    33   33   14 1
    34   34   14 1
    35   35   17 1
    36   36   17 1
    37   37   18 1
    38   38   18 1
    39   39   20 1
    40   40   22 1
    41   41   23 1
    42   42   24 1
    43   23   24 ar
@<TRIPOS>SUBSTRUCTURE
     1 RES1 1

@<TRIPOS>CRYSIN
  16.4560    6.8080   15.9220  90.0000 111.0270  90.0000  14 1

