# MOL2 file generated by ConQuest
# Please check atom types

@<TRIPOS>MOLECULE
NANVED
    39    40     1
SMALL
NO_CHARGES
****
Generated from CSD

@<TRIPOS>ATOM
      1 O1         3.7831    1.9020    5.4506 O.2       1 RES1    0.0000
      2 O2         4.5538    3.0339    7.1152 O.2       1 RES1    0.0000
      3 O3         1.9614    6.6276    8.8100 O.2       1 RES1    0.0000
      4 O4         0.4211    7.5294    7.6083 O.2       1 RES1    0.0000
      5 O5         4.8856    3.8435    3.5553 O.3       1 RES1    0.0000
      6 O6         4.4314    1.8971    2.4984 O.2       1 RES1    0.0000
      7 N1         3.8239    2.9047    6.1502 N.pl3     1 RES1    0.0000
      8 N2         1.3217    6.7261    7.7817 N.pl3     1 RES1    0.0000
      9 N3         1.1697    1.0962    3.6488 N.1       1 RES1    0.0000
     10 C1         2.3190    4.1424    4.5535 C.ar      1 RES1    0.0000
     11 C2         2.9074    4.0182    5.8185 C.ar      1 RES1    0.0000
     12 C3         2.6230    4.8646    6.8710 C.ar      1 RES1    0.0000
     13 C4         1.6715    5.8365    6.6629 C.ar      1 RES1    0.0000
     14 C5         1.0085    5.9768    5.4672 C.ar      1 RES1    0.0000
     15 C6         1.3557    5.1451    4.4208 C.ar      1 RES1    0.0000
     16 C7         2.6115    3.2517    3.3186 C.3       1 RES1    0.0000
     17 C8         2.1987    3.9493    2.0023 C.ar      1 RES1    0.0000
     18 C9         2.8312    5.1328    1.6359 C.ar      1 RES1    0.0000
     19 C10        2.4904    5.7652    0.4538 C.ar      1 RES1    0.0000
     20 C11        1.4964    5.2398   -0.3589 C.ar      1 RES1    0.0000
     21 C12        0.8706    4.0772    0.0015 C.ar      1 RES1    0.0000
     22 C13        1.2047    3.4288    1.1896 C.ar      1 RES1    0.0000
     23 C14        1.8379    1.9992    3.4981 C.1       1 RES1    0.0000
     24 C15        4.0987    2.8789    3.0970 C.2       1 RES1    0.0000
     25 C16        6.3351    3.7118    3.2659 C.3       1 RES1    0.0000
     26 C17        6.9694    2.8900    4.2715 C.3       1 RES1    0.0000
     27 H1         2.8804    4.7809    7.8329 H         1 RES1    0.0000
     28 H2         0.3358    6.8232    5.3300 H         1 RES1    0.0000
     29 H3         0.7183    5.1180    3.4453 H         1 RES1    0.0000
     30 H4         3.5425    5.4539    2.1787 H         1 RES1    0.0000
     31 H5         2.9340    6.8232    0.2940 H         1 RES1    0.0000
     32 H6         1.3275    5.7910   -1.2650 H         1 RES1    0.0000
     33 H7         0.0457    3.7721   -0.6182 H         1 RES1    0.0000
     34 H8         0.8817    2.4028    1.2364 H         1 RES1    0.0000
     35 H9         6.7043    4.8056    3.1498 H         1 RES1    0.0000
     36 H10        6.5963    3.2652    2.4426 H         1 RES1    0.0000
     37 H11        8.1133    2.7386    4.0921 H         1 RES1    0.0000
     38 H12        6.4705    2.0669    4.1554 H         1 RES1    0.0000
     39 H13        6.7848    3.0758    5.3587 H         1 RES1    0.0000
@<TRIPOS>BOND
     1    1    7 2
     2    2    7 2
     3    3    8 2
     4    4    8 2
     5    5   24 1
     6    6   24 2
     7    7   11 1
     8    8   13 1
     9    9   23 3
    10   10   11 ar
    11   11   12 ar
    12   12   13 ar
    13   13   14 ar
    14   14   15 ar
    15   15   10 ar
    16   16   10 1
    17   17   16 1
    18   18   17 ar
    19   19   18 ar
    20   20   19 ar
    21   21   20 ar
    22   22   17 ar
    23   23   16 1
    24   24   16 1
    25   25    5 1
    26   26   25 1
    27   27   12 1
    28   28   14 1
    29   29   15 1
    30   30   18 1
    31   31   19 1
    32   32   20 1
    33   33   21 1
    34   34   22 1
    35   35   25 1
    36   36   25 1
    37   37   26 1
    38   38   26 1
    39   39   26 1
    40   21   22 ar
@<TRIPOS>SUBSTRUCTURE
     1 RES1 1

@<TRIPOS>CRYSIN
   8.9030   12.3030   15.1190  90.0000  94.2300  90.0000  14 1

