# MOL2 file generated by ConQuest
# Please check atom types

@<TRIPOS>MOLECULE
NANYIL
    61    64     1
SMALL
NO_CHARGES
****
Generated from CSD

@<TRIPOS>ATOM
      1 O1         5.5215    4.7673    3.9187 O.2       1 RES1    0.0000
      2 O2         5.8451    6.8712    3.2170 O.3       1 RES1    0.0000
      3 O3         2.0430    5.2735    1.6148 O.2       1 RES1    0.0000
      4 O4         3.9886    3.1775    0.1340 O.3       1 RES1    0.0000
      5 H1         4.0475    2.4496   -0.2811 H         1 RES1    0.0000
      6 O5         8.0049    1.4956    4.8729 O.2       1 RES1    0.0000
      7 O6         9.1697   -0.1773    4.1118 O.2       1 RES1    0.0000
      8 N1         4.0053    5.8547    2.5050 N.am      1 RES1    0.0000
      9 N2         8.1034    0.3521    4.4432 N.pl3     1 RES1    0.0000
     10 C1         5.1588    5.7201    3.2822 C.2       1 RES1    0.0000
     11 C2         5.2793    7.7464    2.1635 C.3       1 RES1    0.0000
     12 C3         6.0332    7.4277    0.8901 C.3       1 RES1    0.0000
     13 H2         6.9935    7.5535    1.0383 H         1 RES1    0.0000
     14 H3         5.7326    8.0253    0.1744 H         1 RES1    0.0000
     15 H4         5.8622    6.4971    0.6340 H         1 RES1    0.0000
     16 C4         5.4940    9.1718    2.6182 C.3       1 RES1    0.0000
     17 H5         5.0561    9.3073    3.4841 H         1 RES1    0.0000
     18 H6         5.1113    9.7865    1.9575 H         1 RES1    0.0000
     19 H7         6.4551    9.3443    2.7065 H         1 RES1    0.0000
     20 C5         3.8227    7.2528    2.0812 C.3       1 RES1    0.0000
     21 H8         3.5259    7.2686    1.1265 H         1 RES1    0.0000
     22 C6         2.7650    7.9569    2.9467 C.3       1 RES1    0.0000
     23 H9         2.0395    7.3132    3.1456 H         1 RES1    0.0000
     24 H10        3.1807    8.2167    3.8063 H         1 RES1    0.0000
     25 C7         2.1606    9.1859    2.3123 C.ar      1 RES1    0.0000
     26 C8         1.9996   10.3571    3.0419 C.ar      1 RES1    0.0000
     27 H11        2.3140   10.3978    3.9376 H         1 RES1    0.0000
     28 C9         1.3837   11.4721    2.4777 C.ar      1 RES1    0.0000
     29 H12        1.2870   12.2672    2.9876 H         1 RES1    0.0000
     30 C10        0.9143   11.4282    1.1815 C.ar      1 RES1    0.0000
     31 H13        0.4993   12.1916    0.7982 H         1 RES1    0.0000
     32 C11        1.0508   10.2656    0.4440 C.ar      1 RES1    0.0000
     33 H14        0.7179   10.2242   -0.4453 H         1 RES1    0.0000
     34 C12        1.6767    9.1575    1.0063 C.ar      1 RES1    0.0000
     35 H15        1.7756    8.3666    0.4904 H         1 RES1    0.0000
     36 C13        3.0580    4.8873    2.1654 C.2       1 RES1    0.0000
     37 C14        3.3802    3.4346    2.4200 C.3       1 RES1    0.0000
     38 H16        3.7092    3.3368    3.3590 H         1 RES1    0.0000
     39 C15        2.1261    2.5825    2.2452 C.3       1 RES1    0.0000
     40 H17        1.4090    2.9362    2.8111 H         1 RES1    0.0000
     41 H18        2.3209    1.6573    2.5054 H         1 RES1    0.0000
     42 H19        1.8439    2.6054    1.3071 H         1 RES1    0.0000
     43 C16        4.5046    3.0175    1.4511 C.3       1 RES1    0.0000
     44 H20        5.2731    3.6469    1.5677 H         1 RES1    0.0000
     45 C17        4.9978    1.6063    1.6963 C.3       1 RES1    0.0000
     46 H21        4.3780    0.8665    1.4363 H         1 RES1    0.0000
     47 C18        6.4689    1.3426    1.5192 C.3       1 RES1    0.0000
     48 H22        7.0457    2.1024    1.2537 H         1 RES1    0.0000
     49 H23        6.7396    0.4659    1.1491 H         1 RES1    0.0000
     50 C19        5.8599    1.3671    2.9123 C.3       1 RES1    0.0000
     51 H24        6.0677    2.1692    3.4718 H         1 RES1    0.0000
     52 C20        5.7885    0.0591    3.6329 C.ar      1 RES1    0.0000
     53 C21        4.6680   -0.7687    3.5888 C.ar      1 RES1    0.0000
     54 H25        3.8841   -0.4629    3.1476 H         1 RES1    0.0000
     55 C22        4.6657   -2.0258    4.1701 C.ar      1 RES1    0.0000
     56 H26        3.8826   -2.5623    4.1264 H         1 RES1    0.0000
     57 C23        5.7901   -2.5097    4.8117 C.ar      1 RES1    0.0000
     58 H27        5.7855   -3.3799    5.1934 H         1 RES1    0.0000
     59 C24        6.9183   -1.7217    4.8960 C.ar      1 RES1    0.0000
     60 H28        7.6999   -2.0371    5.3349 H         1 RES1    0.0000
     61 C25        6.8869   -0.4635    4.3291 C.ar      1 RES1    0.0000
@<TRIPOS>BOND
     1    1   10 2
     2    2   10 1
     3    3   36 2
     4    4    5 1
     5    6    9 2
     6    7    9 2
     7    8   10 1
     8    9   61 1
     9   11    2 1
    10   12   11 1
    11   13   12 1
    12   14   12 1
    13   15   12 1
    14   16   11 1
    15   17   16 1
    16   18   16 1
    17   19   16 1
    18   20    8 1
    19   21   20 1
    20   22   20 1
    21   23   22 1
    22   24   22 1
    23   25   22 1
    24   26   25 ar
    25   27   26 1
    26   28   26 ar
    27   29   28 1
    28   30   28 ar
    29   31   30 1
    30   32   30 ar
    31   33   32 1
    32   34   25 ar
    33   35   34 1
    34   36    8 1
    35   37   36 1
    36   38   37 1
    37   39   37 1
    38   40   39 1
    39   41   39 1
    40   42   39 1
    41   43    4 1
    42   44   43 1
    43   45   43 1
    44   46   45 1
    45   47   45 1
    46   48   47 1
    47   49   47 1
    48   50   45 1
    49   51   50 1
    50   52   50 1
    51   53   52 ar
    52   54   53 1
    53   55   53 ar
    54   56   55 1
    55   57   55 ar
    56   58   57 1
    57   59   57 ar
    58   60   59 1
    59   61   52 ar
    60   11   20 1
    61   32   34 ar
    62   37   43 1
    63   47   50 1
    64   59   61 ar
@<TRIPOS>SUBSTRUCTURE
     1 RES1 1

@<TRIPOS>CRYSIN
   7.6700   14.8370   20.5190  90.0000  90.0000  90.0000  19 1

