# MOL2 file generated by ConQuest
# Please check atom types

@<TRIPOS>MOLECULE
NAPJEW
    17    16     1
SMALL
NO_CHARGES
****
Generated from CSD

@<TRIPOS>ATOM
      1 O1         4.3155   -1.8261   -2.9326 O.2       1 RES1    0.0000
      2 O2         5.2014    0.1302   -2.6517 O.2       1 RES1    0.0000
      3 O3        -0.6693    1.8464    0.4088 O.2       1 RES1    0.0000
      4 O4        -0.2157    3.9314    0.6408 O.2       1 RES1    0.0000
      5 N1         4.2690   -0.6509   -2.5685 N.pl3     1 RES1    0.0000
      6 N2         0.0755    2.8058    0.2791 N.pl3     1 RES1    0.0000
      7 C1         3.0150   -0.2147   -1.9751 C.2       1 RES1    0.0000
      8 C2         2.8524    1.0226   -1.5486 C.2       1 RES1    0.0000
      9 C3         1.6189    1.4198   -0.9008 C.2       1 RES1    0.0000
     10 C4         1.4027    2.6157   -0.3656 C.2       1 RES1    0.0000
     11 C5         2.2826    3.8059   -0.3006 C.3       1 RES1    0.0000
     12 H1         2.3804   -0.9442   -1.9264 H         1 RES1    0.0000
     13 H2         3.5340    1.6297   -1.6310 H         1 RES1    0.0000
     14 H3         0.9452    0.7674   -0.8806 H         1 RES1    0.0000
     15 H4         2.4786    4.0075    0.6345 H         1 RES1    0.0000
     16 H5         1.8131    4.5702   -0.6366 H         1 RES1    0.0000
     17 H6         3.1606    3.6216   -0.7307 H         1 RES1    0.0000
@<TRIPOS>BOND
     1    1    5 2
     2    2    5 2
     3    3    6 2
     4    4    6 2
     5    5    7 1
     6    6   10 1
     7    7    8 2
     8    8    9 1
     9    9   10 2
    10   10   11 1
    11   11   15 1
    12   12    7 1
    13   13    8 1
    14   14    9 1
    15   16   11 1
    16   17   11 1
@<TRIPOS>SUBSTRUCTURE
     1 RES1 1

@<TRIPOS>CRYSIN
   6.0360   10.7787   10.9735  90.0000  94.5460  90.0000 231 1

