# MOL2 file generated by ConQuest
# Please check atom types

@<TRIPOS>MOLECULE
NAPJIA
    20    19     1
SMALL
NO_CHARGES
****
Generated from CSD

@<TRIPOS>ATOM
      1 O1         3.0765    0.4093    3.3580 O.2       1 RES1    0.0000
      2 O2         1.4130    1.7441    3.4639 O.2       1 RES1    0.0000
      3 N1         2.1790    1.0426    2.8287 N.pl3     1 RES1    0.0000
      4 C1         2.0006    0.9767    1.3640 C.2       1 RES1    0.0000
      5 C2         2.7437    0.0976    0.7156 C.2       1 RES1    0.0000
      6 C3         0.9812    1.9015    0.8501 C.3       1 RES1    0.0000
      7 H1         3.3308   -0.4453    1.1931 H         1 RES1    0.0000
      8 H2         0.9212    1.8545   -0.0730 H         1 RES1    0.0000
      9 H3         1.2179    2.7025    1.0824 H         1 RES1    0.0000
     10 H4         0.1358    1.7874    1.2284 H         1 RES1    0.0000
     11 O1B        2.3547   -0.4093   -3.3580 O.2       1 RES1    0.0000
     12 O2B        4.0182   -1.7441   -3.4639 O.2       1 RES1    0.0000
     13 N1B        3.2522   -1.0426   -2.8287 N.pl3     1 RES1    0.0000
     14 C1B        3.4306   -0.9767   -1.3640 C.2       1 RES1    0.0000
     15 C2B        2.6875   -0.0976   -0.7156 C.2       1 RES1    0.0000
     16 C3B        4.4500   -1.9015   -0.8501 C.3       1 RES1    0.0000
     17 H1B        2.1004    0.4453   -1.1931 H         1 RES1    0.0000
     18 H2B        4.5100   -1.8545    0.0730 H         1 RES1    0.0000
     19 H3B        4.2133   -2.7025   -1.0824 H         1 RES1    0.0000
     20 H4B        5.2954   -1.7874   -1.2284 H         1 RES1    0.0000
@<TRIPOS>BOND
     1    1    3 2
     2    2    3 2
     3    3    4 1
     4    4    5 2
     5    5    7 1
     6    6    4 1
     7    8    6 1
     8    9    6 1
     9   10    6 1
    10   11   13 2
    11   12   13 2
    12   13   14 1
    13   14   15 2
    14   15    5 1
    15   16   14 1
    16   17   15 1
    17   18   16 1
    18   19   16 1
    19   20   16 1
@<TRIPOS>SUBSTRUCTURE
     1 RES1 1

@<TRIPOS>CRYSIN
   5.4312    6.1004   12.3902  90.0000 101.0060  90.0000 231 1

