# MOL2 file generated by ConQuest
# Please check atom types

@<TRIPOS>MOLECULE
NAPLOI
    36    38     1
SMALL
NO_CHARGES
****
Generated from CSD

@<TRIPOS>ATOM
      1 O1         1.7990    1.6858    3.3081 O.3       1 RES1    0.0000
      2 O2         1.7446   -0.2952   -1.2970 O.2       1 RES1    0.0000
      3 N1         2.8209    5.2527    1.8695 N.am      1 RES1    0.0000
      4 O3         0.5042    1.0758   -2.4342 O.2       1 RES1    0.0000
      5 C1         0.5150    5.5436    2.7608 C.3       1 RES1    0.0000
      6 H1         0.0015    6.0085    3.4399 H         1 RES1    0.0000
      7 H2         0.1640    5.7924    1.8909 H         1 RES1    0.0000
      8 C2         0.9262    1.5721   -0.2188 C.ar      1 RES1    0.0000
      9 N2         1.0758    0.7305   -1.3910 N.pl3     1 RES1    0.0000
     10 N3         0.3887    4.0972    2.9496 N.pl3     1 RES1    0.0000
     11 N4         0.1019    3.6169    0.6847 N.ar      1 RES1    0.0000
     12 C3         2.9017    2.0453    5.3291 C.ar      1 RES1    0.0000
     13 H3         2.3884    1.3434    5.6577 H         1 RES1    0.0000
     14 C4         4.5932    3.7125    5.6592 C.ar      1 RES1    0.0000
     15 H4         5.2253    4.1248    6.2010 H         1 RES1    0.0000
     16 C5         0.5987    3.2607    1.8884 C.ar      1 RES1    0.0000
     17 C6         1.3153    2.0475    2.0605 C.ar      1 RES1    0.0000
     18 C7         2.7440    5.7751    0.4966 C.3       1 RES1    0.0000
     19 H5         1.8812    5.5752    0.1255 H         1 RES1    0.0000
     20 H6         3.4253    5.3646   -0.0413 H         1 RES1    0.0000
     21 H7         2.8745    6.7258    0.5086 H         1 RES1    0.0000
     22 C8         4.4129    4.1372    4.3508 C.ar      1 RES1    0.0000
     23 H8         4.9318    4.8378    4.0261 H         1 RES1    0.0000
     24 C9         2.7371    2.4620    4.0073 C.ar      1 RES1    0.0000
     25 C10        1.4798    1.1900    1.0050 C.ar      1 RES1    0.0000
     26 H9         1.9399    0.3876    1.0998 H         1 RES1    0.0000
     27 C11        3.8237    2.6674    6.1556 C.ar      1 RES1    0.0000
     28 H10        3.9265    2.3871    7.0366 H         1 RES1    0.0000
     29 C12        3.4699    3.5399    3.5048 C.ar      1 RES1    0.0000
     30 C13        0.2545    2.7781   -0.3347 C.ar      1 RES1    0.0000
     31 H11       -0.1053    3.0109   -1.1609 H         1 RES1    0.0000
     32 C14        1.9962    5.9531    2.8592 C.3       1 RES1    0.0000
     33 H12        2.0738    6.9096    2.7215 H         1 RES1    0.0000
     34 H13        2.3252    5.7523    3.7487 H         1 RES1    0.0000
     35 O4         4.0049    3.4317    1.1917 O.2       1 RES1    0.0000
     36 C15        3.4262    4.0559    2.0821 C.2       1 RES1    0.0000
@<TRIPOS>BOND
     1    1   17 1
     2    2    9 2
     3    3   18 1
     4    4    9 2
     5    5    6 1
     6    7    5 1
     7    8    9 1
     8   10    5 1
     9   11   16 ar
    10   12   13 1
    11   14   15 1
    12   16   10 1
    13   17   16 ar
    14   18   19 1
    15   20   18 1
    16   21   18 1
    17   22   14 ar
    18   23   22 1
    19   24    1 1
    20   25    8 ar
    21   26   25 1
    22   27   12 ar
    23   28   27 1
    24   29   22 ar
    25   30    8 ar
    26   31   30 1
    27   32    3 1
    28   33   32 1
    29   34   32 1
    30   35   36 2
    31   36    3 1
    32    5   32 1
    33   11   30 ar
    34   12   24 ar
    35   14   27 ar
    36   17   25 ar
    37   24   29 ar
    38   29   36 1
@<TRIPOS>SUBSTRUCTURE
     1 RES1 1

@<TRIPOS>CRYSIN
  15.0497   11.1392   16.5140  90.0000  90.0000  90.0000  61 1

