# MOL2 file generated by ConQuest
# Please check atom types

@<TRIPOS>MOLECULE
NAPQON
   116    98     3
SMALL
NO_CHARGES
****
Generated from CSD

@<TRIPOS>ATOM
      1 O1        12.0156    5.1924    9.4100 O.3       1 RES1    0.0000
      2 C1        11.7457    3.9167    9.6786 C.ar      1 RES1    0.0000
      3 C2        10.3952    3.5875    9.8045 C.ar      1 RES1    0.0000
      4 H1         9.7265    4.2552    9.7104 H         1 RES1    0.0000
      5 C3        10.0506    2.3017   10.0634 C.ar      1 RES1    0.0000
      6 H2         9.1323    2.0662   10.1298 H         1 RES1    0.0000
      7 C4        10.9985    1.3496   10.2267 C.ar      1 RES1    0.0000
      8 C5        12.3546    1.6585   10.1381 C.ar      1 RES1    0.0000
      9 H3        13.0137    0.9831   10.2516 H         1 RES1    0.0000
     10 C6        12.7201    2.9575    9.8807 C.ar      1 RES1    0.0000
     11 C7        14.1171    3.3953    9.7782 C.2       1 RES1    0.0000
     12 H4        14.8177    2.7697    9.9208 H         1 RES1    0.0000
     13 C8        14.4085    4.6324    9.4959 C.2       1 RES1    0.0000
     14 H5        15.3259    4.8730    9.4613 H         1 RES1    0.0000
     15 C9        13.4013    5.6921    9.2218 C.3       1 RES1    0.0000
     16 C10       13.4361    6.3253    7.8099 C.3       1 RES1    0.0000
     17 C11       12.6831    5.5339    6.7661 C.3       1 RES1    0.0000
     18 H6        11.7274    5.5332    6.9835 H         1 RES1    0.0000
     19 H7        13.0162    4.6109    6.7523 H         1 RES1    0.0000
     20 H8        12.8184    5.9416    5.8858 H         1 RES1    0.0000
     21 C12       14.9163    6.5055    7.3309 C.3       1 RES1    0.0000
     22 H9        15.2953    5.6304    7.1053 H         1 RES1    0.0000
     23 H10       15.4436    6.9154    8.0466 H         1 RES1    0.0000
     24 H11       14.9345    7.0842    6.5391 H         1 RES1    0.0000
     25 C13       12.8703    7.6959    8.0839 C.ar      1 RES1    0.0000
     26 C14       12.4038    8.6501    7.2506 C.ar      1 RES1    0.0000
     27 H12       12.3453    8.4822    6.3177 H         1 RES1    0.0000
     28 C15       12.0117    9.8789    7.7656 C.ar      1 RES1    0.0000
     29 H13       11.6946   10.5618    7.1856 H         1 RES1    0.0000
     30 C16       12.0851   10.1011    9.1180 C.ar      1 RES1    0.0000
     31 H14       11.7938   10.9337    9.4682 H         1 RES1    0.0000
     32 C17       12.5668    9.1512    9.9665 C.ar      1 RES1    0.0000
     33 H15       12.6310    9.3246   10.8995 H         1 RES1    0.0000
     34 C18       12.9634    7.9191    9.4446 C.ar      1 RES1    0.0000
     35 N1        13.5054    6.8194   10.0911 N.pl3     1 RES1    0.0000
     36 C19       13.5145    6.6915   11.5487 C.3       1 RES1    0.0000
     37 H16       13.4131    5.7402   11.8006 H         1 RES1    0.0000
     38 H17       12.7537    7.1965   11.9321 H         1 RES1    0.0000
     39 C20       14.8136    7.2361   12.0982 C.3       1 RES1    0.0000
     40 H18       15.5665    6.6952   11.7425 H         1 RES1    0.0000
     41 H19       14.9335    8.1656   11.7992 H         1 RES1    0.0000
     42 O2        14.8270    7.1814   13.5032 O.3       1 RES1    0.0000
     43 H20       15.5556    7.4865   13.7870 H         1 RES1    0.0000
     44 N2        10.6295   -0.0130   10.4704 N.pl3     1 RES1    0.0000
     45 O3         9.4381   -0.3081   10.5797 O.2       1 RES1    0.0000
     46 O4        11.4814   -0.8682   10.6143 O.2       1 RES1    0.0000
     47 C21       13.4530    6.0696   11.3604 Du        3 SUP3    0.0000
     48 H21       13.6656    5.1172   11.1846 Du        3 SUP3    0.0000
     49 H22       12.5290    6.1066   11.7217 Du        3 SUP3    0.0000
     50 C22       14.4062    6.6041   12.3889 Du        3 SUP3    0.0000
     51 H23       15.2796    6.7764   11.9529 Du        3 SUP3    0.0000
     52 H24       14.0627    7.4746   12.7184 Du        3 SUP3    0.0000
     53 O5        14.6124    5.7524   13.4963 Du        3 SUP3    0.0000
     54 H25       15.4334    5.6134   13.5932 Du        3 SUP3    0.0000
     55 C23       13.1748    7.1707   11.4781 Du        3 SUP3    0.0000
     56 H26       12.8119    6.3751   11.9418 Du        3 SUP3    0.0000
     57 H27       12.4734    7.8709   11.4809 Du        3 SUP3    0.0000
     58 C24       14.3862    7.6708   12.2228 Du        3 SUP3    0.0000
     59 H28       14.6698    8.5459   11.8491 Du        3 SUP3    0.0000
     60 H29       14.1580    7.8085   13.1779 Du        3 SUP3    0.0000
     61 O6        15.4388    6.7403   12.1121 Du        3 SUP3    0.0000
     62 H30       16.1105    7.0279   12.5259 Du        3 SUP3    0.0000
     63 O7         6.3371    8.2608    9.4114 O.3       2 RES2    0.0000
     64 C25        6.0696    9.5453    9.6952 C.ar      2 RES2    0.0000
     65 C26        4.7022    9.8582    9.8101 C.ar      2 RES2    0.0000
     66 H31        4.0339    9.1928    9.6993 H         2 RES2    0.0000
     67 C27        4.3720   11.1445   10.0828 C.ar      2 RES2    0.0000
     68 H32        3.4543   11.3848   10.1464 H         2 RES2    0.0000
     69 C28        5.3318   12.1111   10.2710 C.ar      2 RES2    0.0000
     70 C29        6.6815   11.7842   10.1714 C.ar      2 RES2    0.0000
     71 H33        7.3448   12.4536   10.2876 H         2 RES2    0.0000
     72 C30        7.0465   10.4964    9.9042 C.ar      2 RES2    0.0000
     73 C31        8.4267   10.0581    9.7838 C.2       2 RES2    0.0000
     74 H34        9.1284   10.6873    9.9097 H         2 RES2    0.0000
     75 C32        8.7192    8.8187    9.5069 C.2       2 RES2    0.0000
     76 H35        9.6390    8.5814    9.4737 H         2 RES2    0.0000
     77 C33        7.7235    7.7491    9.2412 C.3       2 RES2    0.0000
     78 C34        7.7716    7.0827    7.8486 C.3       2 RES2    0.0000
     79 C35        7.0273    7.8747    6.7897 C.3       2 RES2    0.0000
     80 H36        7.1483    7.4471    5.9162 H         2 RES2    0.0000
     81 H37        7.3796    8.7890    6.7578 H         2 RES2    0.0000
     82 H38        6.0730    7.8996    7.0112 H         2 RES2    0.0000
     83 C36        9.2450    6.9012    7.3807 C.3       2 RES2    0.0000
     84 H39        9.7645    6.4775    8.0950 H         2 RES2    0.0000
     85 H40        9.6314    7.7770    7.1703 H         2 RES2    0.0000
     86 H41        9.2653    6.3348    6.5807 H         2 RES2    0.0000
     87 C37        7.2195    5.7336    8.1393 C.ar      2 RES2    0.0000
     88 C38        6.7510    4.7599    7.3212 C.ar      2 RES2    0.0000
     89 H42        6.6884    4.9061    6.3855 H         2 RES2    0.0000
     90 C39        6.3651    3.5481    7.8708 C.ar      2 RES2    0.0000
     91 H43        6.0529    2.8563    7.3018 H         2 RES2    0.0000
     92 C40        6.4277    3.3288    9.2398 C.ar      2 RES2    0.0000
     93 H44        6.1382    2.5019    9.6094 H         2 RES2    0.0000
     94 C41        6.9156    4.3262   10.0579 C.ar      2 RES2    0.0000
     95 H45        6.9873    4.1842   10.9936 H         2 RES2    0.0000
     96 C42        7.2949    5.5218    9.5125 C.ar      2 RES2    0.0000
     97 N3         7.8234    6.6426   10.1340 N.3       2 RES2    0.0000
     98 C43        7.6692    6.8125   11.5777 C.3       2 RES2    0.0000
     99 H46        6.9739    6.2082   11.9280 H         2 RES2    0.0000
    100 H47        7.4075    7.7496   11.7868 H         2 RES2    0.0000
    101 C44        9.0433    6.4905   12.2048 C.3       2 RES2    0.0000
    102 H48        9.1138    5.5184   12.3792 H         2 RES2    0.0000
    103 H49        9.7712    6.7582   11.5930 H         2 RES2    0.0000
    104 O8         9.1278    7.2141   13.4146 O.3       2 RES2    0.0000
    105 H50        9.9327    7.2671   13.6513 H         2 RES2    0.0000
    106 N4         4.9535   13.4716   10.5354 N.pl3     2 RES2    0.0000
    107 O9         3.7625   13.7355   10.6379 O.2       2 RES2    0.0000
    108 O10        5.8169   14.3143   10.6794 O.2       2 RES2    0.0000
    109 C45        7.9341    6.9443   11.5611 Du        3 SUP3    0.0000
    110 H51        7.1540    6.5686   12.0429 Du        3 SUP3    0.0000
    111 H52        7.9276    7.9297   11.6940 Du        3 SUP3    0.0000
    112 C46        9.2215    6.3562   12.1259 Du        3 SUP3    0.0000
    113 H53        9.6975    5.8639   11.4130 Du        3 SUP3    0.0000
    114 H54        9.8090    7.0919   12.4387 Du        3 SUP3    0.0000
    115 O11        8.9258    5.4851   13.1918 Du        3 SUP3    0.0000
    116 H55        8.0915    5.4386   13.2956 Du        3 SUP3    0.0000
@<TRIPOS>BOND
     1    1    2 1
     2    2    3 ar
     3    3    4 1
     4    5    3 ar
     5    6    5 1
     6    7    5 ar
     7    8    7 ar
     8    9    8 1
     9   10    2 ar
    10   11   10 1
    11   12   11 1
    12   13   11 2
    13   14   13 1
    14   15    1 1
    15   16   15 1
    16   17   16 1
    17   18   17 1
    18   19   17 1
    19   20   17 1
    20   21   16 1
    21   22   21 1
    22   23   21 1
    23   24   21 1
    24   25   16 1
    25   26   25 ar
    26   27   26 1
    27   28   26 ar
    28   29   28 1
    29   30   28 ar
    30   31   30 1
    31   32   30 ar
    32   33   32 1
    33   34   25 ar
    34   35   15 1
    35   36   35 1
    36   37   36 1
    37   38   36 1
    38   39   36 1
    39   40   39 1
    40   41   39 1
    41   42   39 1
    42   43   42 1
    43   44    7 1
    44   45   44 2
    45   46   44 2
    46   63   64 1
    47   64   65 ar
    48   65   66 1
    49   67   65 ar
    50   68   67 1
    51   69   67 ar
    52   70   69 ar
    53   71   70 1
    54   72   64 ar
    55   73   72 1
    56   74   73 1
    57   75   73 2
    58   76   75 1
    59   77   63 1
    60   78   77 1
    61   79   78 1
    62   80   79 1
    63   81   79 1
    64   82   79 1
    65   83   78 1
    66   84   83 1
    67   85   83 1
    68   86   83 1
    69   87   78 1
    70   88   87 ar
    71   89   88 1
    72   90   88 ar
    73   91   90 1
    74   92   90 ar
    75   93   92 1
    76   94   92 ar
    77   95   94 1
    78   96   87 ar
    79   97   77 1
    80   98   97 1
    81   99   98 1
    82  100   98 1
    83  101   98 1
    84  102  101 1
    85  103  101 1
    86  104  101 1
    87  105  104 1
    88  106   69 1
    89  107  106 2
    90  108  106 2
    91    8   10 ar
    92   13   15 1
    93   32   34 ar
    94   34   35 1
    95   70   72 ar
    96   75   77 1
    97   94   96 ar
    98   96   97 1
@<TRIPOS>SUBSTRUCTURE
     1 RES1 1
     2 RES2 63
     3 SUP3 47

@<TRIPOS>CRYSIN
  11.3534   13.9510   15.9400  66.1430  73.3120  89.9580   2 1

