# MOL2 file generated by ConQuest
# Please check atom types

@<TRIPOS>MOLECULE
NAPXEK
    37    39     1
SMALL
NO_CHARGES
****
Generated from CSD

@<TRIPOS>ATOM
      1 N1        -0.0606    4.9822   19.8255 N.pl3     1 RES1    0.0000
      2 O1         5.1318    1.4826   14.0987 O.2       1 RES1    0.0000
      3 O2         4.1934   -0.3145   14.8235 O.2       1 RES1    0.0000
      4 N2         4.3747    0.8952   14.8560 N.pl3     1 RES1    0.0000
      5 N3         0.9411    5.8760   19.6302 N.2       1 RES1    0.0000
      6 N4         1.8333    5.2892   18.8775 N.2       1 RES1    0.0000
      7 C1         1.4259    4.0242   18.5956 C.2       1 RES1    0.0000
      8 C2         2.2339    3.1795   17.6944 C.ar      1 RES1    0.0000
      9 C3        -1.1932    5.3731   20.6308 C.2       1 RES1    0.0000
     10 C4         3.6630    1.6819   15.8696 C.ar      1 RES1    0.0000
     11 C5        -0.9676    5.3247   22.0844 C.ar      1 RES1    0.0000
     12 C6         0.2047    3.8106   19.1873 C.2       1 RES1    0.0000
     13 C7         2.1189    1.7958   17.6687 C.ar      1 RES1    0.0000
     14 H1         1.5524    1.3701   18.2722 H         1 RES1    0.0000
     15 C8         3.1190    3.7738   16.8021 C.ar      1 RES1    0.0000
     16 H2         3.2338    4.6963   16.8300 H         1 RES1    0.0000
     17 C9         3.8237    3.0472   15.8891 C.ar      1 RES1    0.0000
     18 H3         4.4013    3.4661   15.2918 H         1 RES1    0.0000
     19 C10        2.8350    1.0466   16.7588 C.ar      1 RES1    0.0000
     20 H4         2.7572    0.1201   16.7495 H         1 RES1    0.0000
     21 C11       -0.0657    4.4425   22.6480 C.ar      1 RES1    0.0000
     22 H5         0.4380    3.8884   22.0974 H         1 RES1    0.0000
     23 C12       -1.6741    6.1489   22.9417 C.ar      1 RES1    0.0000
     24 H6        -2.2888    6.7548   22.5957 H         1 RES1    0.0000
     25 C13       -2.2894    5.7463   20.0263 C.2       1 RES1    0.0000
     26 C14       -0.7463    2.6623   19.1821 C.3       1 RES1    0.0000
     27 H7        -0.3694    1.9370   18.6776 H         1 RES1    0.0000
     28 H8        -0.9064    2.3758   20.0827 H         1 RES1    0.0000
     29 H9        -1.5743    2.9346   18.7797 H         1 RES1    0.0000
     30 C15       -0.6068    5.1862   24.8324 C.ar      1 RES1    0.0000
     31 H10       -0.4945    5.1323   25.7556 H         1 RES1    0.0000
     32 C16        0.0988    4.3694   24.0091 C.ar      1 RES1    0.0000
     33 H11        0.6986    3.7561   24.3691 H         1 RES1    0.0000
     34 C17       -1.4786    6.0820   24.3025 C.ar      1 RES1    0.0000
     35 H12       -1.9475    6.6558   24.8643 H         1 RES1    0.0000
     36 H13       -2.2876    5.9019   19.1233 H         1 RES1    0.0000
     37 H14       -3.0273    6.0656   20.5160 H         1 RES1    0.0000
@<TRIPOS>BOND
     1    1    5 1
     2    2    4 2
     3    3    4 2
     4    4   10 1
     5    5    6 2
     6    6    7 1
     7    7    8 1
     8    8   13 ar
     9    9    1 1
    10   10   17 ar
    11   11    9 1
    12   12    1 1
    13   13   14 1
    14   15    8 ar
    15   16   15 1
    16   17   15 ar
    17   18   17 1
    18   19   10 ar
    19   20   19 1
    20   21   11 ar
    21   22   21 1
    22   23   11 ar
    23   24   23 1
    24   25    9 2
    25   26   12 1
    26   27   26 1
    27   28   26 1
    28   29   26 1
    29   30   31 1
    30   32   21 ar
    31   33   32 1
    32   34   23 ar
    33   35   34 1
    34   36   25 1
    35   37   25 1
    36    7   12 2
    37   13   19 ar
    38   30   32 ar
    39   30   34 ar
@<TRIPOS>SUBSTRUCTURE
     1 RES1 1

@<TRIPOS>CRYSIN
   7.3709    6.8230   31.1460  90.0000  96.4510  90.0000  14 1

