# MOL2 file generated by ConQuest
# Please check atom types

@<TRIPOS>MOLECULE
NAQCEN
    80    86     2
SMALL
NO_CHARGES
****
Generated from CSD

@<TRIPOS>ATOM
      1 C1        -0.2625    5.3206    4.3244 C.3       1 RES1    0.0000
      2 H1        -1.0622    5.8654    4.0722 H         1 RES1    0.0000
      3 C2        -0.6987    4.1310    5.1543 C.3       1 RES1    0.0000
      4 H2        -1.3945    3.6022    4.6683 H         1 RES1    0.0000
      5 C3         0.5272    3.2636    5.4421 C.3       1 RES1    0.0000
      6 H3         0.8739    2.8787    4.5980 H         1 RES1    0.0000
      7 H4         0.2787    2.5189    6.0453 H         1 RES1    0.0000
      8 C4         1.6156    4.1430    6.1079 C.3       1 RES1    0.0000
      9 H5         2.4076    4.1927    5.4991 H         1 RES1    0.0000
     10 C5         2.0710    3.6053    7.4703 C.3       1 RES1    0.0000
     11 H6         2.4172    2.6845    7.3574 H         1 RES1    0.0000
     12 H7         2.8096    4.1686    7.8125 H         1 RES1    0.0000
     13 C6         0.9338    3.5929    8.4903 C.3       1 RES1    0.0000
     14 H8         0.2728    2.9035    8.2335 H         1 RES1    0.0000
     15 H9         1.2966    3.3539    9.3803 H         1 RES1    0.0000
     16 C7         0.2407    4.9475    8.5777 C.3       1 RES1    0.0000
     17 H10        0.8479    5.5929    9.0200 H         1 RES1    0.0000
     18 H11       -0.5679    4.8586    9.1415 H         1 RES1    0.0000
     19 C8        -0.1649    5.5020    7.2091 C.3       1 RES1    0.0000
     20 H12       -0.5026    6.4352    7.3327 H         1 RES1    0.0000
     21 C9        -1.2605    4.6745    6.4759 C.3       1 RES1    0.0000
     22 H13       -1.5519    3.9226    7.0504 H         1 RES1    0.0000
     23 H14       -2.0465    5.2488    6.2937 H         1 RES1    0.0000
     24 C10        1.0480    5.5454    6.2926 C.3       1 RES1    0.0000
     25 H15        1.7479    6.1258    6.7090 H         1 RES1    0.0000
     26 O1         0.6543    6.1225    5.0213 O.3       1 RES1    0.0000
     27 O2         0.3649    4.8038    3.1370 O.3       1 RES1    0.0000
     28 C11        0.7294    5.6800    2.1712 C.ar      1 RES1    0.0000
     29 C12        1.3356    5.1138    1.0525 C.ar      1 RES1    0.0000
     30 H16        1.5003    4.1784    1.0311 H         1 RES1    0.0000
     31 C13        1.6980    5.8920   -0.0209 C.ar      1 RES1    0.0000
     32 H17        2.0959    5.5023   -0.7908 H         1 RES1    0.0000
     33 C14        1.4715    7.2571    0.0449 C.ar      1 RES1    0.0000
     34 C15        0.8963    7.8448    1.1567 C.ar      1 RES1    0.0000
     35 H18        0.7601    8.7847    1.1820 H         1 RES1    0.0000
     36 C16        0.5202    7.0624    2.2287 C.ar      1 RES1    0.0000
     37 H19        0.1248    7.4574    2.9969 H         1 RES1    0.0000
     38 N1         1.8527    8.0921   -1.0848 N.pl3     1 RES1    0.0000
     39 O3         2.2030    7.5438   -2.1286 O.2       1 RES1    0.0000
     40 O4         1.8060    9.3131   -0.9476 O.2       1 RES1    0.0000
     41 C17        5.2483    7.8633    6.2988 C.3       2 RES2    0.0000
     42 H20        5.2903    8.5803    6.9948 H         2 RES2    0.0000
     43 C18        6.1930    8.1977    5.1707 C.3       2 RES2    0.0000
     44 H21        7.1178    8.3404    5.5242 H         2 RES2    0.0000
     45 C19        6.1828    7.0473    4.1673 C.3       2 RES2    0.0000
     46 H22        6.5445    6.2277    4.5884 H         2 RES2    0.0000
     47 H23        6.7484    7.2733    3.3873 H         2 RES2    0.0000
     48 C20        4.7236    6.8074    3.7098 C.3       2 RES2    0.0000
     49 H24        4.4415    5.8924    3.9986 H         2 RES2    0.0000
     50 C21        4.5476    6.9218    2.1913 C.3       2 RES2    0.0000
     51 H25        5.1442    6.2721    1.7437 H         2 RES2    0.0000
     52 H26        3.6148    6.6929    1.9526 H         2 RES2    0.0000
     53 C22        4.8634    8.3280    1.6808 C.3       2 RES2    0.0000
     54 H27        5.8336    8.4998    1.7767 H         2 RES2    0.0000
     55 H28        4.6361    8.3858    0.7194 H         2 RES2    0.0000
     56 C23        4.0837    9.3859    2.4503 C.3       2 RES2    0.0000
     57 H29        3.1248    9.3172    2.2126 H         2 RES2    0.0000
     58 H30        4.4006   10.2825    2.1775 H         2 RES2    0.0000
     59 C24        4.2357    9.2419    3.9744 C.3       2 RES2    0.0000
     60 H31        3.6241    9.8956    4.4200 H         2 RES2    0.0000
     61 C25        5.6791    9.4758    4.4967 C.3       2 RES2    0.0000
     62 H32        6.2728    9.7189    3.7421 H         2 RES2    0.0000
     63 H33        5.6827   10.2224    5.1468 H         2 RES2    0.0000
     64 C26        3.8321    7.8335    4.3917 C.3       2 RES2    0.0000
     65 H34        2.8842    7.6728    4.1167 H         2 RES2    0.0000
     66 O5         3.9263    7.7318    5.8360 O.3       2 RES2    0.0000
     67 O6         5.6948    6.6226    6.8602 O.3       2 RES2    0.0000
     68 C27        5.1325    6.1921    8.0157 C.ar      2 RES2    0.0000
     69 C28        5.7330    5.0620    8.5698 C.ar      2 RES2    0.0000
     70 H35        6.4697    4.6528    8.1316 H         2 RES2    0.0000
     71 C29        5.2589    4.5400    9.7513 C.ar      2 RES2    0.0000
     72 H36        5.6670    3.7745   10.1382 H         2 RES2    0.0000
     73 C30        4.1797    5.1450   10.3675 C.ar      2 RES2    0.0000
     74 C31        3.5732    6.2667    9.8357 C.ar      2 RES2    0.0000
     75 H37        2.8426    6.6753   10.2844 H         2 RES2    0.0000
     76 C32        4.0412    6.7893    8.6441 C.ar      2 RES2    0.0000
     77 H38        3.6230    7.5492    8.2571 H         2 RES2    0.0000
     78 N2         3.6830    4.5731   11.6151 N.pl3     2 RES2    0.0000
     79 O7         4.2403    3.5822   12.0762 O.2       2 RES2    0.0000
     80 O8         2.7252    5.1072   12.1508 O.2       2 RES2    0.0000
@<TRIPOS>BOND
     1    1    2 1
     2    3    1 1
     3    4    3 1
     4    5    3 1
     5    6    5 1
     6    7    5 1
     7    8    5 1
     8    9    8 1
     9   10    8 1
    10   11   10 1
    11   12   10 1
    12   13   10 1
    13   14   13 1
    14   15   13 1
    15   16   13 1
    16   17   16 1
    17   18   16 1
    18   19   16 1
    19   20   19 1
    20   21    3 1
    21   22   21 1
    22   23   21 1
    23   24    8 1
    24   25   24 1
    25   26    1 1
    26   27    1 1
    27   28   27 1
    28   29   28 ar
    29   30   29 1
    30   31   29 ar
    31   32   31 1
    32   33   31 ar
    33   34   33 ar
    34   35   34 1
    35   36   28 ar
    36   37   36 1
    37   38   33 1
    38   39   38 2
    39   40   38 2
    40   41   42 1
    41   43   41 1
    42   44   43 1
    43   45   43 1
    44   46   45 1
    45   47   45 1
    46   48   45 1
    47   49   48 1
    48   50   48 1
    49   51   50 1
    50   52   50 1
    51   53   50 1
    52   54   53 1
    53   55   53 1
    54   56   53 1
    55   57   56 1
    56   58   56 1
    57   59   56 1
    58   60   59 1
    59   61   43 1
    60   62   61 1
    61   63   61 1
    62   64   48 1
    63   65   64 1
    64   66   41 1
    65   67   41 1
    66   68   67 1
    67   69   68 ar
    68   70   69 1
    69   71   69 ar
    70   72   71 1
    71   73   71 ar
    72   74   73 ar
    73   75   74 1
    74   76   68 ar
    75   77   76 1
    76   78   73 1
    77   79   78 2
    78   80   78 2
    79   19   21 1
    80   19   24 1
    81   24   26 1
    82   34   36 ar
    83   59   61 1
    84   59   64 1
    85   64   66 1
    86   74   76 ar
@<TRIPOS>SUBSTRUCTURE
     1 RES1 1
     2 RES2 41

@<TRIPOS>CRYSIN
  10.4560   12.4780   13.0600 117.5300 108.9000  92.8000   2 1

