# MOL2 file generated by ConQuest
# Please check atom types

@<TRIPOS>MOLECULE
NAQGET
    74    79     1
SMALL
NO_CHARGES
****
Generated from CSD

@<TRIPOS>ATOM
      1 C1        12.5663    5.7938   -3.7271 C.ar      1 RES1    0.0000
      2 C2         6.5273    5.9239   -3.7523 C.3       1 RES1    0.0000
      3 H1         5.8405    5.3289   -4.0904 H         1 RES1    0.0000
      4 H2         6.0877    6.5373   -3.1407 H         1 RES1    0.0000
      5 C3         6.9514    6.6587   -4.7974 C.3       1 RES1    0.0000
      6 H3         7.1770    6.0474   -5.5169 H         1 RES1    0.0000
      7 H4         7.7719    7.1041   -4.5329 H         1 RES1    0.0000
      8 C4         5.9909    7.7338   -5.3730 C.3       1 RES1    0.0000
      9 H5         6.4144    8.0470   -6.1878 H         1 RES1    0.0000
     10 H6         5.2003    7.2472   -5.6536 H         1 RES1    0.0000
     11 C5         5.5006    8.9064   -4.7308 C.3       1 RES1    0.0000
     12 H7         4.8955    9.3107   -5.3712 H         1 RES1    0.0000
     13 H8         4.9436    8.5813   -4.0059 H         1 RES1    0.0000
     14 C6         6.1173    9.8222   -4.2631 C.3       1 RES1    0.0000
     15 H9         6.4918   10.2308   -5.0600 H         1 RES1    0.0000
     16 H10        6.8652    9.3627   -3.8494 H         1 RES1    0.0000
     17 C7         5.9740   10.8767   -3.4627 C.3       1 RES1    0.0000
     18 H11        5.3965   11.4923   -3.9411 H         1 RES1    0.0000
     19 H12        5.4602   10.5603   -2.7018 H         1 RES1    0.0000
     20 C8         6.9177   11.5985   -2.9680 C.3       1 RES1    0.0000
     21 H13        6.8743   12.3886   -3.5292 H         1 RES1    0.0000
     22 H14        7.7062   11.1238   -3.2738 H         1 RES1    0.0000
     23 C9         7.3511   12.1209   -1.7916 C.3       1 RES1    0.0000
     24 H15        7.3066   11.4143   -1.1296 H         1 RES1    0.0000
     25 H16        6.7092   12.7972   -1.5254 H         1 RES1    0.0000
     26 O1        14.0657    2.5165    2.3420 O.2       1 RES1    0.0000
     27 H17       12.7024    7.2287   -2.1729 H         1 RES1    0.0000
     28 H18       13.4523    5.7006   -3.9465 H         1 RES1    0.0000
     29 H19       11.9785    4.2701   -4.8927 H         1 RES1    0.0000
     30 H20        9.7550    4.2267   -4.7128 H         1 RES1    0.0000
     31 H21        9.5534    4.9528    0.5396 H         1 RES1    0.0000
     32 H22       10.3976    3.0237    1.4031 H         1 RES1    0.0000
     33 H23       14.0190    4.8336    1.5470 H         1 RES1    0.0000
     34 H24       13.0583    6.7627    0.6835 H         1 RES1    0.0000
     35 H25        9.7254    7.4889    0.6674 H         1 RES1    0.0000
     36 H26        9.9009    9.6564    0.1241 H         1 RES1    0.0000
     37 H27       13.1440    9.5589   -0.8095 H         1 RES1    0.0000
     38 H28       14.5788   11.6722   -1.5110 H         1 RES1    0.0000
     39 H29       13.4747   13.3629   -2.1765 H         1 RES1    0.0000
     40 H30       11.1883   13.6338   -2.1765 H         1 RES1    0.0000
     41 C10        8.5667    6.7627   -1.5306 C.2       1 RES1    0.0000
     42 C11        9.9902    7.3555   -1.3788 C.3       1 RES1    0.0000
     43 C12       10.7663    6.5763   -2.3920 C.ar      1 RES1    0.0000
     44 C13       12.1046    6.6457   -2.7484 C.ar      1 RES1    0.0000
     45 C14       11.7003    4.9171   -4.3549 C.ar      1 RES1    0.0000
     46 C15       10.3465    4.8358   -4.0257 C.ar      1 RES1    0.0000
     47 C16        9.9142    5.6941   -3.0274 C.ar      1 RES1    0.0000
     48 C17        7.4318    5.1067   -2.9464 C.3       1 RES1    0.0000
     49 H31        6.9498    4.7762   -2.1729 H         1 RES1    0.0000
     50 H32        7.7097    4.3394   -3.4717 H         1 RES1    0.0000
     51 C18        8.6557   12.7115   -1.6927 C.3       1 RES1    0.0000
     52 H33        9.0086   12.8947   -2.5777 H         1 RES1    0.0000
     53 H34        8.6093   13.5460   -1.1998 H         1 RES1    0.0000
     54 C19       10.8138   11.7654   -1.2178 C.ar      1 RES1    0.0000
     55 C20       11.5696   12.8243   -1.6909 C.ar      1 RES1    0.0000
     56 C21       12.9316   12.6899   -1.8330 C.ar      1 RES1    0.0000
     57 C22       13.5467   11.5281   -1.4822 C.ar      1 RES1    0.0000
     58 C23       12.8026   10.4681   -1.0307 C.ar      1 RES1    0.0000
     59 C24       11.4330   10.5570   -0.9082 C.ar      1 RES1    0.0000
     60 C25       10.5811    9.4104   -0.4783 C.3       1 RES1    0.0000
     61 C26       10.4654    7.2710    0.0964 C.3       1 RES1    0.0000
     62 C27       11.1503    6.0160    0.5279 C.ar      1 RES1    0.0000
     63 C28       12.5104    5.9651    0.7607 C.ar      1 RES1    0.0000
     64 C29       13.0922    4.8011    1.2394 C.ar      1 RES1    0.0000
     65 C30       12.2986    3.7076    1.4428 C.ar      1 RES1    0.0000
     66 C31       10.9471    3.7119    1.1850 C.ar      1 RES1    0.0000
     67 C32       10.3731    4.8791    0.7350 C.ar      1 RES1    0.0000
     68 N1         8.6060    5.8155   -2.4982 N.am      1 RES1    0.0000
     69 N2        12.9144    2.4894    1.9931 N.pl3     1 RES1    0.0000
     70 O2         7.5943    7.0770   -0.8730 O.2       1 RES1    0.0000
     71 O3        10.0020    8.7439   -1.6225 O.3       1 RES1    0.0000
     72 O4        11.3136    8.4079    0.1820 O.3       1 RES1    0.0000
     73 O5         9.4792   11.7947   -1.0199 O.3       1 RES1    0.0000
     74 O6        12.2127    1.4891    2.0452 O.2       1 RES1    0.0000
@<TRIPOS>BOND
     1    1   28 1
     2    2    3 1
     3    4    2 1
     4    5    2 1
     5    6    5 1
     6    7    5 1
     7    8    5 1
     8    9    8 1
     9   10    8 1
    10   11    8 1
    11   12   11 1
    12   13   11 1
    13   14   11 1
    14   15   14 1
    15   16   14 1
    16   17   14 1
    17   18   17 1
    18   19   17 1
    19   20   17 1
    20   21   20 1
    21   22   20 1
    22   23   20 1
    23   24   23 1
    24   25   23 1
    25   26   69 2
    26   27   44 1
    27   29   45 1
    28   30   46 1
    29   31   67 1
    30   32   66 1
    31   33   64 1
    32   34   63 1
    33   35   61 1
    34   36   60 1
    35   37   58 1
    36   38   57 1
    37   39   56 1
    38   40   55 1
    39   41   42 1
    40   42   43 1
    41   43   44 ar
    42   44    1 ar
    43   45    1 ar
    44   46   45 ar
    45   47   43 ar
    46   48    2 1
    47   49   48 1
    48   50   48 1
    49   51   23 1
    50   52   51 1
    51   53   51 1
    52   54   55 ar
    53   55   56 ar
    54   56   57 ar
    55   57   58 ar
    56   58   59 ar
    57   59   54 ar
    58   60   59 1
    59   61   42 1
    60   62   61 1
    61   63   62 ar
    62   64   63 ar
    63   65   64 ar
    64   66   65 ar
    65   67   62 ar
    66   68   41 1
    67   69   65 1
    68   70   41 2
    69   71   42 1
    70   72   60 1
    71   73   51 1
    72   74   69 2
    73   46   47 ar
    74   47   68 1
    75   48   68 1
    76   54   73 1
    77   60   71 1
    78   61   72 1
    79   66   67 ar
@<TRIPOS>SUBSTRUCTURE
     1 RES1 1

@<TRIPOS>CRYSIN
  14.5635   10.8377   18.1521  90.0000  97.7130  90.0000 231 1

