# MOL2 file generated by ConQuest
# Please check atom types

@<TRIPOS>MOLECULE
NAQGIX
    76    80     1
SMALL
NO_CHARGES
****
Generated from CSD

@<TRIPOS>ATOM
      1 C1         2.4016    8.6881    3.6036 C.2       1 RES1    0.0000
      2 C2         2.8427    8.8716    5.0757 C.3       1 RES1    0.0000
      3 C3         4.0441    7.9746    5.1690 C.ar      1 RES1    0.0000
      4 C4         4.8558    7.6685    6.2295 C.ar      1 RES1    0.0000
      5 C5         5.9287    6.8281    6.0298 C.ar      1 RES1    0.0000
      6 C6         6.1733    6.2969    4.7732 C.ar      1 RES1    0.0000
      7 C7         5.3612    6.6019    3.6936 C.ar      1 RES1    0.0000
      8 C8         4.2920    7.4445    3.9075 C.ar      1 RES1    0.0000
      9 C9         3.3123    7.6002    1.5561 C.3       1 RES1    0.0000
     10 C10        4.3229    8.3522    0.7746 C.3       1 RES1    0.0000
     11 H1         5.1816    8.2530    1.2146 H         1 RES1    0.0000
     12 H2         4.3969    7.9405   -0.1014 H         1 RES1    0.0000
     13 C11        4.0756    9.7269    0.5941 C.3       1 RES1    0.0000
     14 H3         4.8832   10.1397    0.2494 H         1 RES1    0.0000
     15 H4         3.8972   10.1216    1.4620 H         1 RES1    0.0000
     16 C12        2.8912   10.0864   -0.3630 C.3       1 RES1    0.0000
     17 H5         2.2944    9.3270   -0.4502 H         1 RES1    0.0000
     18 H6         3.2321   10.3093   -1.2430 H         1 RES1    0.0000
     19 C13        2.0012   11.4889    0.3204 C.3       1 RES1    0.0000
     20 H7         1.1426   11.6254   -0.1115 H         1 RES1    0.0000
     21 H8         1.8793   11.4142    1.2795 H         1 RES1    0.0000
     22 C14        2.8576   12.4093    0.0061 C.3       1 RES1    0.0000
     23 H9         2.8054   12.6631   -0.9287 H         1 RES1    0.0000
     24 H10        3.7684   12.1629    0.2332 H         1 RES1    0.0000
     25 C15        2.2230   13.6092    1.0484 C.3       1 RES1    0.0000
     26 H11        2.3651   14.4901    0.6692 H         1 RES1    0.0000
     27 H12        1.2693   13.4769    1.1680 H         1 RES1    0.0000
     28 C16        2.9322   13.4961    2.3788 C.3       1 RES1    0.0000
     29 H13        2.6798   12.6631    2.8064 H         1 RES1    0.0000
     30 H14        3.8902   13.4769    2.2306 H         1 RES1    0.0000
     31 C17        2.6042   14.6139    3.2664 C.3       1 RES1    0.0000
     32 H15        1.6530   14.5957    3.4533 H         1 RES1    0.0000
     33 H16        2.7981   15.4458    2.8064 H         1 RES1    0.0000
     34 C18        3.3667   14.5947    4.5895 C.3       1 RES1    0.0000
     35 H17        4.3246   14.5797    4.4327 H         1 RES1    0.0000
     36 H18        3.1487   15.3743    5.1242 H         1 RES1    0.0000
     37 C19        3.3561   13.1346    6.4960 C.ar      1 RES1    0.0000
     38 C20        4.0941   14.0155    7.2824 C.ar      1 RES1    0.0000
     39 C21        4.4571   13.6518    8.5457 C.ar      1 RES1    0.0000
     40 C22        4.1039   12.4157    9.0230 C.ar      1 RES1    0.0000
     41 C23        3.3845   11.5102    8.2551 C.ar      1 RES1    0.0000
     42 C24        3.0019   11.8686    6.9877 C.ar      1 RES1    0.0000
     43 C25        2.2677   10.9332    6.0631 C.3       1 RES1    0.0000
     44 C26        1.4374    9.8336    6.6665 C.2       1 RES1    0.0000
     45 C27        1.7191    8.6796    6.0696 C.2       1 RES1    0.0000
     46 C28        1.0147    7.3837    6.1006 C.2       1 RES1    0.0000
     47 C29       -0.8442    6.1455    6.7566 C.3       1 RES1    0.0000
     48 H19       -1.6500    6.2553    7.2655 H         1 RES1    0.0000
     49 H20       -0.3092    5.4522    7.1479 H         1 RES1    0.0000
     50 H21       -1.0677    5.9044    5.8542 H         1 RES1    0.0000
     51 C30        0.4072   10.1461    7.7017 C.2       1 RES1    0.0000
     52 C31       -1.3476   11.6510    8.1951 C.3       1 RES1    0.0000
     53 H22       -1.8384   12.3592    7.7725 H         1 RES1    0.0000
     54 H23       -0.9106   11.9880    8.9810 H         1 RES1    0.0000
     55 H24       -1.9517   10.9471    8.4437 H         1 RES1    0.0000
     56 N1         3.3153    7.8816    2.9965 N.am      1 RES1    0.0000
     57 N2         4.4719   12.0424   10.3814 N.pl3     1 RES1    0.0000
     58 O1         1.4295    9.2023    3.0883 O.2       1 RES1    0.0000
     59 O2         3.2365   10.2402    5.2627 O.3       1 RES1    0.0000
     60 O3         1.3860    6.4484    5.4870 O.2       1 RES1    0.0000
     61 O4        -0.0959    7.3944    6.7543 O.3       1 RES1    0.0000
     62 O5         0.3346    9.6469    8.7695 O.2       1 RES1    0.0000
     63 O6        -0.3548   11.1326    7.2747 O.3       1 RES1    0.0000
     64 O7         4.1142   10.9492   10.8002 O.2       1 RES1    0.0000
     65 O8         5.1062   12.8445   11.0409 O.2       1 RES1    0.0000
     66 O9         2.9403   13.3910    5.2493 O.3       1 RES1    0.0000
     67 H25        4.6641    7.9671    7.0364 H         1 RES1    0.0000
     68 H26        6.5112    6.6126    6.7485 H         1 RES1    0.0000
     69 H27        6.9360    5.7060    4.6031 H         1 RES1    0.0000
     70 H28        5.5662    6.2926    2.8267 H         1 RES1    0.0000
     71 H29        3.4925    6.5913    1.3992 H         1 RES1    0.0000
     72 H30        2.4400    7.8711    1.2795 H         1 RES1    0.0000
     73 H31        4.3077   14.8144    6.9715 H         1 RES1    0.0000
     74 H32        4.9520   14.2384    9.1270 H         1 RES1    0.0000
     75 H33        3.1855   10.6442    8.5978 H         1 RES1    0.0000
     76 H34        1.6768   11.4761    5.5480 H         1 RES1    0.0000
@<TRIPOS>BOND
     1    1    2 1
     2    2    3 1
     3    3    4 ar
     4    4    5 ar
     5    5    6 ar
     6    6    7 ar
     7    7    8 ar
     8    8    3 ar
     9    9   10 1
    10   10   11 1
    11   12   10 1
    12   13   10 1
    13   14   13 1
    14   15   13 1
    15   16   13 1
    16   17   16 1
    17   18   16 1
    18   19   16 1
    19   20   19 1
    20   21   19 1
    21   22   19 1
    22   23   22 1
    23   24   22 1
    24   25   22 1
    25   26   25 1
    26   27   25 1
    27   28   25 1
    28   29   28 1
    29   30   28 1
    30   31   28 1
    31   32   31 1
    32   33   31 1
    33   34   31 1
    34   35   34 1
    35   36   34 1
    36   37   38 ar
    37   38   39 ar
    38   39   40 ar
    39   40   41 ar
    40   41   42 ar
    41   42   37 ar
    42   43   42 1
    43   44   43 1
    44   45    2 1
    45   46   45 1
    46   47   48 1
    47   49   47 1
    48   50   47 1
    49   51   44 1
    50   52   53 1
    51   54   52 1
    52   55   52 1
    53   56    1 1
    54   57   40 1
    55   58    1 2
    56   59    2 1
    57   60   46 2
    58   61   46 1
    59   62   51 2
    60   63   51 1
    61   64   57 2
    62   65   57 2
    63   66   34 1
    64   67    4 1
    65   68    5 1
    66   69    6 1
    67   70    7 1
    68   71    9 1
    69   72    9 1
    70   73   38 1
    71   74   39 1
    72   75   41 1
    73   76   43 1
    74    8   56 1
    75    9   56 1
    76   37   66 1
    77   43   59 1
    78   44   45 2
    79   47   61 1
    80   52   63 1
@<TRIPOS>SUBSTRUCTURE
     1 RES1 1

@<TRIPOS>CRYSIN
  14.0885   10.6655   20.5109  90.0000  98.6460  90.0000  14 1

