# MOL2 file generated by ConQuest
# Please check atom types

@<TRIPOS>MOLECULE
NAQQUR
    22    23     1
SMALL
NO_CHARGES
****
Generated from CSD

@<TRIPOS>ATOM
      1 N1         5.6342    0.4627    4.3820 N.am      1 RES1    0.0000
      2 N2         9.3393    3.4746    7.2943 N.pl3     1 RES1    0.0000
      3 O1         9.1089    0.7329    1.1113 O.3       1 RES1    0.0000
      4 O2         6.9665   -0.7672    3.0026 O.2       1 RES1    0.0000
      5 O3         9.9146    0.2974    3.1561 O.2       1 RES1    0.0000
      6 O4         6.9369    2.3611    8.4454 O.3       1 RES1    0.0000
      7 O5        10.5264    3.3498    7.0106 O.2       1 RES1    0.0000
      8 O6         8.9413    4.2205    8.1695 O.2       1 RES1    0.0000
      9 C1         6.3750    1.4699    6.3229 C.ar      1 RES1    0.0000
     10 C2         9.1230    0.8322    2.4363 C.2       1 RES1    0.0000
     11 C3         8.3815    2.6897    6.5239 C.ar      1 RES1    0.0000
     12 C4         5.0339    0.8261    6.6988 C.3       1 RES1    0.0000
     13 C5         7.2241    2.1657    7.1301 C.ar      1 RES1    0.0000
     14 C6         7.7795    1.8169    4.3461 C.ar      1 RES1    0.0000
     15 C7         6.6599    1.2539    4.9833 C.ar      1 RES1    0.0000
     16 C8         8.0325    1.8343    2.8734 C.3       1 RES1    0.0000
     17 C9         8.6465    2.5356    5.1795 C.ar      1 RES1    0.0000
     18 C10        5.8507   -0.5430    3.4990 C.2       1 RES1    0.0000
     19 C11        4.4502    0.4532    5.3223 C.3       1 RES1    0.0000
     20 C12        4.6665   -1.4476    3.1240 C.3       1 RES1    0.0000
     21 C13       10.1702   -0.1183    0.5294 C.3       1 RES1    0.0000
     22 C14        7.1819    1.2052    9.2953 C.3       1 RES1    0.0000
@<TRIPOS>BOND
     1    1   15 1
     2    2    7 2
     3    3   10 1
     4    4   18 2
     5    5   10 2
     6    6   13 1
     7    8    2 2
     8    9   12 1
     9   10   16 1
    10   11    2 1
    11   12   19 1
    12   13    9 ar
    13   14   15 ar
    14   15    9 ar
    15   16   14 1
    16   17   11 ar
    17   18    1 1
    18   19    1 1
    19   20   18 1
    20   21    3 1
    21   22    6 1
    22   11   13 ar
    23   14   17 ar
@<TRIPOS>SUBSTRUCTURE
     1 RES1 1

@<TRIPOS>CRYSIN
   8.1497    9.2022   10.2753 102.7400 103.0100  93.7520   2 1

