# MOL2 file generated by ConQuest
# Please check atom types

@<TRIPOS>MOLECULE
NAQSUW
    28    29     1
SMALL
NO_CHARGES
****
Generated from CSD

@<TRIPOS>ATOM
      1 O1         7.0281    2.7205   10.7462 O.2       1 RES1    0.0000
      2 N1         7.1039    2.7522    9.5207 N.pl3     1 RES1    0.0000
      3 O2        -1.9514    1.6892    4.2308 O.2       1 RES1    0.0000
      4 O3         8.1593    2.7726    8.9223 O.2       1 RES1    0.0000
      5 N2         2.3006    3.1314    9.3764 N.3       1 RES1    0.0000
      6 N3        -1.0460    2.4236    3.9127 N.pl3     1 RES1    0.0000
      7 O4        -1.0618    3.1011    2.8926 O.2       1 RES1    0.0000
      8 C1         3.4822    2.9414    8.7003 C.ar      1 RES1    0.0000
      9 C2         4.6783    2.9196    9.4075 C.ar      1 RES1    0.0000
     10 H1         4.6744    3.0189   10.3322 H         1 RES1    0.0000
     11 C3         3.5163    2.7606    7.3043 C.ar      1 RES1    0.0000
     12 C4         5.9343    2.6157    7.3802 C.ar      1 RES1    0.0000
     13 H2         6.7513    2.5220    6.9457 H         1 RES1    0.0000
     14 C5         2.1966    3.5120    5.3276 C.ar      1 RES1    0.0000
     15 H3         2.8733    4.1197    5.1334 H         1 RES1    0.0000
     16 C6         2.2983    2.7142    6.4606 C.ar      1 RES1    0.0000
     17 C7         5.8626    2.7522    8.7404 C.ar      1 RES1    0.0000
     18 C8         1.2748    1.8137    6.7413 C.ar      1 RES1    0.0000
     19 H4         1.3287    1.2753    7.4980 H         1 RES1    0.0000
     20 C9         4.7517    2.6227    6.6839 C.ar      1 RES1    0.0000
     21 H5         4.7784    2.5312    5.7588 H         1 RES1    0.0000
     22 C10        0.1824    1.7131    5.9079 C.ar      1 RES1    0.0000
     23 H6        -0.5037    1.1132    6.0927 H         1 RES1    0.0000
     24 C11        0.1309    2.5207    4.7987 C.ar      1 RES1    0.0000
     25 C12        1.1174    3.4170    4.4942 C.ar      1 RES1    0.0000
     26 H7         1.0555    3.9513    3.7350 H         1 RES1    0.0000
     27 H8         2.3776    3.4472   10.2396 H         1 RES1    0.0000
     28 H9         1.5748    3.4050    8.9289 H         1 RES1    0.0000
@<TRIPOS>BOND
     1    1    2 2
     2    2    4 2
     3    3    6 2
     4    5    8 1
     5    6    7 2
     6    8    9 ar
     7    9   10 1
     8   11    8 ar
     9   12   13 1
    10   14   15 1
    11   16   11 1
    12   17    2 1
    13   18   16 ar
    14   19   18 1
    15   20   11 ar
    16   21   20 1
    17   22   18 ar
    18   23   22 1
    19   24    6 1
    20   25   14 ar
    21   26   25 1
    22   27    5 1
    23   28    5 1
    24    9   17 ar
    25   12   17 ar
    26   12   20 ar
    27   14   16 ar
    28   22   24 ar
    29   24   25 ar
@<TRIPOS>SUBSTRUCTURE
     1 RES1 1

@<TRIPOS>CRYSIN
  14.2940    7.0352   11.6043  90.0000  99.4370  90.0000  14 1

