# MOL2 file generated by ConQuest
# Please check atom types

@<TRIPOS>MOLECULE
NAQWIL
    22    22     1
SMALL
NO_CHARGES
****
Generated from CSD

@<TRIPOS>ATOM
      1 O1         4.0867    3.6081    5.6540 O.3       1 RES1    0.0000
      2 O2         1.6317    1.6713    8.2812 O.3       1 RES1    0.0000
      3 O3         4.7411    1.1046    4.8998 O.2       1 RES1    0.0000
      4 O4         3.8819   -0.5644    6.0869 O.3       1 RES1    0.0000
      5 N1         2.4587    0.9161    7.4671 N.2       1 RES1    0.0000
      6 C1         3.2322    3.0437    6.5580 C.2       1 RES1    0.0000
      7 C2         2.6001    4.0242    7.2074 C.2       1 RES1    0.0000
      8 C3         3.0817    5.2530    6.7145 C.2       1 RES1    0.0000
      9 C4         3.9589    4.9564    5.7855 C.2       1 RES1    0.0000
     10 C5         3.1866    1.5989    6.6529 C.2       1 RES1    0.0000
     11 C6         4.0337    0.7138    5.7706 C.2       1 RES1    0.0000
     12 C7         4.6606   -1.5276    5.3160 C.3       1 RES1    0.0000
     13 C8         4.2325   -2.8851    5.7622 C.3       1 RES1    0.0000
     14 H1         1.9429    3.9081    7.8916 H         1 RES1    0.0000
     15 H2         1.4208    0.9885    8.9072 H         1 RES1    0.0000
     16 H3         2.8227    6.1266    6.9926 H         1 RES1    0.0000
     17 H4         4.4435    5.5978    5.2777 H         1 RES1    0.0000
     18 H5         5.5864   -1.3564    5.5774 H         1 RES1    0.0000
     19 H6         4.4061   -1.3793    4.4120 H         1 RES1    0.0000
     20 H7         4.6769   -3.5863    5.2777 H         1 RES1    0.0000
     21 H8         4.4265   -2.9886    6.6929 H         1 RES1    0.0000
     22 H9         3.3772   -3.0231    5.5108 H         1 RES1    0.0000
@<TRIPOS>BOND
     1    1    6 1
     2    2    5 1
     3    3   11 2
     4    4   11 1
     5    5   10 2
     6    6    7 2
     7    7    8 1
     8    8    9 2
     9    9    1 1
    10   10    6 1
    11   11   10 1
    12   12    4 1
    13   13   12 1
    14   14    7 1
    15   15    2 1
    16   16    8 1
    17   17    9 1
    18   18   12 1
    19   19   12 1
    20   20   13 1
    21   21   13 1
    22   22   13 1
@<TRIPOS>SUBSTRUCTURE
     1 RES1 1

@<TRIPOS>CRYSIN
   4.4880   11.4945   16.6699  90.0000  92.8680  90.0000 231 1

