# MOL2 file generated by ConQuest
# Please check atom types

@<TRIPOS>MOLECULE
NAQZEK
    22    22     1
SMALL
NO_CHARGES
****
Generated from CSD

@<TRIPOS>ATOM
      1 C1         5.6224    3.3822    4.5969 C.3       1 RES1    0.0000
      2 C2         5.8087    3.8297    3.1414 C.3       1 RES1    0.0000
      3 C3         6.9917    3.1920    2.4606 C.ar      1 RES1    0.0000
      4 C4         8.0775    3.9318    2.0526 C.ar      1 RES1    0.0000
      5 C5         9.1450    3.3344    1.4070 C.ar      1 RES1    0.0000
      6 C6         9.1446    1.9794    1.1787 C.ar      1 RES1    0.0000
      7 C7         8.0795    1.2307    1.5712 C.ar      1 RES1    0.0000
      8 C8         6.9996    1.8245    2.2044 C.ar      1 RES1    0.0000
      9 C9         4.2865    3.9377    5.0999 C.2       1 RES1    0.0000
     10 O1         4.1989    5.0370    5.6454 O.2       1 RES1    0.0000
     11 N1         6.7134    3.8482    5.4171 N.am      1 RES1    0.0000
     12 O2         6.1538    2.5004    7.1422 O.2       1 RES1    0.0000
     13 O3         7.8126    4.0505    7.3137 O.3       1 RES1    0.0000
     14 O4         3.3326    1.9639    4.2384 O.3       1 RES1    0.0000
     15 N2         3.1927    3.2056    4.8737 N.am      1 RES1    0.0000
     16 C10        6.8291    3.3910    6.6753 C.2       1 RES1    0.0000
     17 C11        1.8331    3.6378    5.0958 C.3       1 RES1    0.0000
     18 C12        3.4204    0.9352    5.2342 C.3       1 RES1    0.0000
     19 C13        8.1689    3.7362    8.7062 C.3       1 RES1    0.0000
     20 C14        9.2896    4.7223    8.9706 C.3       1 RES1    0.0000
     21 C15        8.6599    2.3028    8.8033 C.3       1 RES1    0.0000
     22 C16        6.9982    4.0073    9.6090 C.3       1 RES1    0.0000
@<TRIPOS>BOND
     1    1    2 1
     2    2    3 1
     3    3    4 ar
     4    4    5 ar
     5    5    6 ar
     6    6    7 ar
     7    7    8 ar
     8    8    3 ar
     9    9    1 1
    10   10    9 2
    11   11    1 1
    12   12   16 2
    13   13   16 1
    14   14   15 1
    15   15    9 1
    16   16   11 1
    17   17   15 1
    18   18   14 1
    19   19   13 1
    20   20   19 1
    21   21   19 1
    22   22   19 1
@<TRIPOS>SUBSTRUCTURE
     1 RES1 1

@<TRIPOS>CRYSIN
   8.6166   10.0323   10.8620  82.1020  73.4240  86.2470   2 1

