# MOL2 file generated by ConQuest
# Please check atom types

@<TRIPOS>MOLECULE
NARDES
    96    85     2
SMALL
NO_CHARGES
****
Generated from CSD

@<TRIPOS>ATOM
      1 C1         3.8943    7.7628   -0.0863 C.2       1 RES1    0.0000
      2 C2         3.8981    6.3766    0.0219 C.2       1 RES1    0.0000
      3 H1         4.4020    5.8662   -0.5691 H         1 RES1    0.0000
      4 C3         3.1489    5.7550    1.0139 C.2       1 RES1    0.0000
      5 H2         3.1512    4.8277    1.0855 H         1 RES1    0.0000
      6 C4         2.3960    6.5185    1.8975 C.2       1 RES1    0.0000
      7 C5         2.3920    7.9045    1.7907 C.2       1 RES1    0.0000
      8 H3         1.8887    8.4159    2.3818 H         1 RES1    0.0000
      9 C6         3.1412    8.5271    0.7988 C.2       1 RES1    0.0000
     10 H4         3.1389    9.4534    0.7271 H         1 RES1    0.0000
     11 C7         1.5021    5.8647    2.8170 C.2       1 RES1    0.0000
     12 H5         1.6992    4.9851    3.0430 H         1 RES1    0.0000
     13 C8         0.4157    6.4063    3.3743 C.2       1 RES1    0.0000
     14 H6         0.2075    7.2786    3.1250 H         1 RES1    0.0000
     15 C9        -0.4851    5.7606    4.3441 C.2       1 RES1    0.0000
     16 C10       -1.2920    6.5309    5.2020 C.2       1 RES1    0.0000
     17 C11       -2.1499    5.8672    6.0767 C.2       1 RES1    0.0000
     18 H7        -2.6716    6.3761    6.6552 H         1 RES1    0.0000
     19 C12       -2.2664    4.4774    6.1295 C.2       1 RES1    0.0000
     20 C13       -1.4586    3.7085    5.2590 C.2       1 RES1    0.0000
     21 C14       -0.5990    4.3763    4.3912 C.2       1 RES1    0.0000
     22 H8        -0.0743    3.8702    3.8140 H         1 RES1    0.0000
     23 C15       -1.2044    8.0385    5.2459 C.3       1 RES1    0.0000
     24 H9        -1.9784    8.3857    5.7159 H         1 RES1    0.0000
     25 H10       -1.2300    8.3821    4.3393 H         1 RES1    0.0000
     26 C16        0.0646    8.5421    5.9341 C.3       1 RES1    0.0000
     27 H11        0.8340    8.2462    5.4424 H         1 RES1    0.0000
     28 H12        0.1032    8.1940    6.8278 H         1 RES1    0.0000
     29 H13        0.0532    9.5015    5.9632 H         1 RES1    0.0000
     30 C17       -1.5616    2.2023    5.1850 C.3       1 RES1    0.0000
     31 H14       -1.5727    1.8388    6.0846 H         1 RES1    0.0000
     32 H15       -0.7791    1.8512    4.7313 H         1 RES1    0.0000
     33 C18       -2.8136    1.7443    4.4463 C.3       1 RES1    0.0000
     34 H16       -2.8170    2.1170    3.5609 H         1 RES1    0.0000
     35 H17       -3.5925    2.0420    4.9215 H         1 RES1    0.0000
     36 H18       -2.8196    0.7860    4.3905 H         1 RES1    0.0000
     37 C19       -3.1902    3.8300    7.0797 C.2       1 RES1    0.0000
     38 H19       -2.9692    2.9753    7.3735 H         1 RES1    0.0000
     39 N1         4.8132    8.0609   -1.3372 N.2       1 RES1    0.0000
     40 O1         4.5383    9.0274   -2.0058 O.2       1 RES1    0.0000
     41 O2         5.7666    7.5679   -1.6854 O.2       1 RES1    0.0000
     42 C20        2.6319    8.0982   -0.1156 Du        2 SUP2    0.0000
     43 H20        2.3344    8.8247   -0.6159 Du        2 SUP2    0.0000
     44 C21        1.8339    7.5765    0.8954 Du        2 SUP2    0.0000
     45 H21        1.0021    7.9530    1.0724 Du        2 SUP2    0.0000
     46 C22        2.2793    6.4927    1.6415 Du        2 SUP2    0.0000
     47 C23        3.5226    5.9296    1.3781 Du        2 SUP2    0.0000
     48 H22        3.8202    5.2044    1.8770 Du        2 SUP2    0.0000
     49 C24        4.3206    6.4514    0.3672 Du        2 SUP2    0.0000
     50 H23        5.1523    6.0759    0.1902 Du        2 SUP2    0.0000
     51 C25        3.8753    7.5363   -0.3804 Du        2 SUP2    0.0000
     52 H24        1.8099    5.0565    3.1601 Du        2 SUP2    0.0000
     53 C26        4.5879    8.5245   -1.2026 Du        2 SUP2    0.0000
     54 C27        5.1098    9.2861   -1.7293 Du        2 SUP2    0.0000
     55 H25        5.5658    9.9590   -2.1886 Du        2 SUP2    0.0000
     56 C1A      -11.3954    0.4316   14.7163 C.2       1 RES1    0.0000
     57 C2A      -11.3992    1.8177   14.6080 C.2       1 RES1    0.0000
     58 H1A      -11.9030    2.3282   15.1991 H         1 RES1    0.0000
     59 C3A      -10.6499    2.4394   13.6161 C.2       1 RES1    0.0000
     60 H2A      -10.6523    3.3667   13.5444 H         1 RES1    0.0000
     61 C4A       -9.8970    1.6759   12.7325 C.2       1 RES1    0.0000
     62 C5A       -9.8931    0.2899   12.8393 C.2       1 RES1    0.0000
     63 H3A       -9.3897   -0.2215   12.2482 H         1 RES1    0.0000
     64 C6A      -10.6423   -0.3327   13.8312 C.2       1 RES1    0.0000
     65 H4A      -10.6400   -1.2590   13.9029 H         1 RES1    0.0000
     66 C7A       -9.0031    2.3297   11.8130 C.2       1 RES1    0.0000
     67 H5A       -9.2003    3.2093   11.5869 H         1 RES1    0.0000
     68 C8A       -7.9168    1.7881   11.2557 C.2       1 RES1    0.0000
     69 H6A       -7.7086    0.9158   11.5050 H         1 RES1    0.0000
     70 C9A       -7.0160    2.4338   10.2859 C.2       1 RES1    0.0000
     71 C10A      -6.2091    1.6635    9.4280 C.2       1 RES1    0.0000
     72 C11A      -5.3512    2.3272    8.5533 C.2       1 RES1    0.0000
     73 H7A       -4.8294    1.8183    7.9748 H         1 RES1    0.0000
     74 C12A      -5.2346    3.7170    8.5005 C.2       1 RES1    0.0000
     75 C13A      -6.0425    4.4859    9.3709 C.2       1 RES1    0.0000
     76 C14A      -6.9020    3.8181   10.2388 C.2       1 RES1    0.0000
     77 H8A       -7.4268    4.3242   10.8159 H         1 RES1    0.0000
     78 C15A      -6.2966    0.1559    9.3841 C.3       1 RES1    0.0000
     79 H9A       -5.5227   -0.1914    8.9140 H         1 RES1    0.0000
     80 H10A      -6.2711   -0.1878   10.2907 H         1 RES1    0.0000
     81 C16A      -7.5657   -0.3478    8.6959 C.3       1 RES1    0.0000
     82 H11A      -8.3351   -0.0519    9.1876 H         1 RES1    0.0000
     83 H12A      -7.6043    0.0004    7.8022 H         1 RES1    0.0000
     84 H13A      -7.5543   -1.3071    8.6668 H         1 RES1    0.0000
     85 C17A      -5.9395    5.9921    9.4450 C.3       1 RES1    0.0000
     86 H14A      -5.9283    6.3556    8.5454 H         1 RES1    0.0000
     87 H15A      -6.7219    6.3432    9.8986 H         1 RES1    0.0000
     88 C18A      -4.6874    6.4501   10.1836 C.3       1 RES1    0.0000
     89 H16A      -4.6841    6.0773   11.0690 H         1 RES1    0.0000
     90 H17A      -3.9086    6.1523    9.7085 H         1 RES1    0.0000
     91 H18A      -4.6814    7.4084   10.2395 H         1 RES1    0.0000
     92 C19A      -4.3108    4.3644    7.5502 C.2       1 RES1    0.0000
     93 H19A      -4.5319    5.2191    7.2565 H         1 RES1    0.0000
     94 N1A      -12.3143    0.1334   15.9672 N.2       1 RES1    0.0000
     95 O1A      -12.0394   -0.8330   16.6358 O.2       1 RES1    0.0000
     96 O2A      -13.2677    0.6264   16.3154 O.2       1 RES1    0.0000
@<TRIPOS>BOND
     1    1    2 1
     2    2    3 1
     3    4    2 1
     4    5    4 1
     5    6    4 1
     6    7    6 1
     7    8    7 1
     8    9    1 1
     9   10    9 1
    10   11    6 1
    11   12   11 1
    12   13   11 1
    13   14   13 1
    14   15   13 1
    15   16   15 1
    16   17   16 1
    17   18   17 1
    18   19   17 1
    19   20   19 1
    20   21   15 1
    21   22   21 1
    22   23   16 1
    23   24   23 1
    24   25   23 1
    25   26   23 1
    26   27   26 1
    27   28   26 1
    28   29   26 1
    29   30   20 1
    30   31   30 1
    31   32   30 1
    32   33   30 1
    33   34   33 1
    34   35   33 1
    35   36   33 1
    36   37   19 1
    37   38   37 1
    38   39    1 1
    39   40   39 1
    40   41   39 1
    41   56   57 1
    42   57   58 1
    43   59   57 1
    44   60   59 1
    45   61   59 1
    46   62   61 1
    47   63   62 1
    48   64   56 1
    49   65   64 1
    50   66   61 1
    51   67   66 1
    52   68   66 1
    53   69   68 1
    54   70   68 1
    55   71   70 1
    56   72   71 1
    57   73   72 1
    58   74   72 1
    59   75   74 1
    60   76   70 1
    61   77   76 1
    62   78   71 1
    63   79   78 1
    64   80   78 1
    65   81   78 1
    66   82   81 1
    67   83   81 1
    68   84   81 1
    69   85   75 1
    70   86   85 1
    71   87   85 1
    72   88   85 1
    73   89   88 1
    74   90   88 1
    75   91   88 1
    76   92   37 1
    77   93   92 1
    78   94   56 1
    79   95   94 1
    80   96   94 1
    81    7    9 1
    82   20   21 1
    83   62   64 1
    84   74   92 1
    85   75   76 1
@<TRIPOS>SUBSTRUCTURE
     1 RES1 1
     2 SUP2 42

@<TRIPOS>CRYSIN
   5.4082    9.8110   14.8124  95.9440  96.4710  92.4740   2 1

