# MOL2 file generated by ConQuest
# Please check atom types

@<TRIPOS>MOLECULE
NASMOK
    43    33     2
SMALL
NO_CHARGES
****
Generated from CSD

@<TRIPOS>ATOM
      1 O1         4.0818    6.2570   17.5181 O.3       1 RES1    0.0000
      2 O2         6.6153    3.9673   19.2110 O.2       1 RES1    0.0000
      3 C1         4.8644    4.1708   14.6105 C.ar      1 RES1    0.0000
      4 H1         5.7927    4.1151   14.6340 H         1 RES1    0.0000
      5 C2         4.1746    3.4713   13.6549 C.ar      1 RES1    0.0000
      6 H2         4.6285    2.9495   13.0325 H         1 RES1    0.0000
      7 C3         2.8131    3.5500   13.6283 C.ar      1 RES1    0.0000
      8 C4         2.1259    4.3115   14.5289 C.ar      1 RES1    0.0000
      9 H3         1.1973    4.3601   14.4933 H         1 RES1    0.0000
     10 C5         2.8234    5.0057   15.4878 C.ar      1 RES1    0.0000
     11 H4         2.3593    5.5169   16.1102 H         1 RES1    0.0000
     12 C6         4.2083    4.9571   15.5410 C.ar      1 RES1    0.0000
     13 C7         4.9873    5.7796   16.5393 C.3       1 RES1    0.0000
     14 H5         5.3423    6.5587   16.0642 H         1 RES1    0.0000
     15 C8         6.1601    5.0703   17.1899 C.2       1 RES1    0.0000
     16 C9         5.8717    4.0585   18.2460 C.2       1 RES1    0.0000
     17 C10        4.6966    3.1538   18.1025 C.3       1 RES1    0.0000
     18 H6         4.6901    2.5205   18.8247 H         1 RES1    0.0000
     19 H7         4.7528    2.6859   17.2666 H         1 RES1    0.0000
     20 H8         3.8896    3.6729   18.1237 H         1 RES1    0.0000
     21 C11        7.4026    5.3745   16.8509 C.2       1 RES1    0.0000
     22 C12        8.6971    4.8615   17.4350 C.3       1 RES1    0.0000
     23 H9         8.9434    5.4090   18.1979 H         1 RES1    0.0000
     24 H10        8.5694    3.9524   17.7476 H         1 RES1    0.0000
     25 C13        9.8111    4.8881   16.4198 C.3       1 RES1    0.0000
     26 H11        9.5774    4.3309   15.6753 H         1 RES1    0.0000
     27 H12       10.6185    4.5626   16.8240 H         1 RES1    0.0000
     28 H13        9.9457    5.7893   16.1179 H         1 RES1    0.0000
     29 N1         2.0879    2.8239   12.5694 N.pl3     1 RES1    0.0000
     30 O3         0.8780    2.9999   12.4696 O.2       1 RES1    0.0000
     31 O4         2.6626    2.0288   11.8300 O.2       1 RES1    0.0000
     32 C14        8.6469    4.5361   16.7882 Du        2 SUP2    0.0000
     33 H14        8.6093    3.8206   17.4406 Du        2 SUP2    0.0000
     34 H15        8.7507    4.1470   15.9056 Du        2 SUP2    0.0000
     35 C15        9.7849    5.4656   17.0901 Du        2 SUP2    0.0000
     36 H16        9.8818    6.0971   16.3712 Du        2 SUP2    0.0000
     37 H17       10.5957    4.9615   17.1822 Du        2 SUP2    0.0000
     38 H18        9.6059    5.9379   17.9062 Du        2 SUP2    0.0000
     39 N2         2.0012    2.6886   12.7613 Du        2 SUP2    0.0000
     40 O5         0.7982    2.7505   12.9583 Du        2 SUP2    0.0000
     41 O6         2.7709    2.2464   11.9196 Du        2 SUP2    0.0000
     42 H19        4.4586    6.8629   17.9702 H         1 RES1    0.0000
     43 H20        7.4872    5.9962   16.1614 H         1 RES1    0.0000
@<TRIPOS>BOND
     1    1   13 1
     2    2   16 2
     3    3    4 1
     4    5    3 ar
     5    6    5 1
     6    7    5 ar
     7    8    7 ar
     8    9    8 1
     9   10    8 ar
    10   11   10 1
    11   12    3 ar
    12   13   12 1
    13   14   13 1
    14   15   13 1
    15   16   15 1
    16   17   16 1
    17   18   17 1
    18   19   17 1
    19   20   17 1
    20   21   15 2
    21   22   21 1
    22   23   22 1
    23   24   22 1
    24   25   22 1
    25   26   25 1
    26   27   25 1
    27   28   25 1
    28   29    7 1
    29   30   29 2
    30   31   29 2
    31   42    1 1
    32   43   21 1
    33   10   12 ar
@<TRIPOS>SUBSTRUCTURE
     1 RES1 1
     2 SUP2 32

@<TRIPOS>CRYSIN
  11.4030    8.8440   25.5840  90.0000  90.0000  90.0000  61 1

