# MOL2 file generated by ConQuest
# Please check atom types

@<TRIPOS>MOLECULE
NASWUA
    44    33     2
SMALL
NO_CHARGES
****
Generated from CSD

@<TRIPOS>ATOM
      1 O1         7.3057    4.5002    4.2143 O.3       1 RES1    0.0000
      2 N1         7.1728    5.0233    5.5248 N.2       1 RES1    0.0000
      3 C1         6.0667    4.6053    6.0139 C.2       1 RES1    0.0000
      4 C2         5.2758    3.6789    5.0973 C.3       1 RES1    0.0000
      5 H1         5.3963    2.7486    5.4146 H         1 RES1    0.0000
      6 H2         5.3317    2.7434    5.4174 Du        2 SUP2    0.0000
      7 C3         3.7873    3.9808    5.0553 C.2       1 RES1    0.0000
      8 O2         3.1115    3.5672    5.9756 O.2       1 RES1    0.0000
      9 C4         3.2833    4.8972    4.0164 C.3       1 RES1    0.0000
     10 H3         3.4014    5.8241    4.3188 H         1 RES1    0.0000
     11 H4         2.3271    4.7431    3.8820 H         1 RES1    0.0000
     12 C5         4.0344    4.7018    2.6667 C.3       1 RES1    0.0000
     13 H5         3.9107    3.7844    2.3447 H         1 RES1    0.0000
     14 H6         3.6781    5.3171    1.9919 H         1 RES1    0.0000
     15 C6         5.4953    4.9761    2.8945 C.3       1 RES1    0.0000
     16 H7         5.6099    5.8466    3.3313 H         1 RES1    0.0000
     17 H8         5.9714    4.9942    2.0385 H         1 RES1    0.0000
     18 C7         3.8229    4.1678    5.1187 Du        2 SUP2    0.0000
     19 O3         3.1008    3.7899    6.0260 Du        2 SUP2    0.0000
     20 C8         3.2510    4.8535    3.9511 Du        2 SUP2    0.0000
     21 H9         2.5977    5.5184    4.2451 Du        2 SUP2    0.0000
     22 H10        2.7942    4.2024    3.3789 Du        2 SUP2    0.0000
     23 C9         4.3909    5.5511    3.1465 Du        2 SUP2    0.0000
     24 H11        4.0183    6.0619    2.3979 Du        2 SUP2    0.0000
     25 H12        4.8953    6.1616    3.7242 Du        2 SUP2    0.0000
     26 C10        5.2903    4.4347    2.6350 Du        2 SUP2    0.0000
     27 H13        4.7472    3.7373    2.2112 Du        2 SUP2    0.0000
     28 H14        5.9129    4.7888    1.9657 Du        2 SUP2    0.0000
     29 C11        6.0629    3.8495    3.7961 C.3       1 RES1    0.0000
     30 H15        6.2096    2.9982    3.3126 H         1 RES1    0.0000
     31 H16        6.3193    2.9350    3.5152 Du        2 SUP2    0.0000
     32 C12        5.6453    5.1479    7.3402 C.ar      1 RES1    0.0000
     33 C13        5.6509    6.5087    7.5176 C.ar      1 RES1    0.0000
     34 H17        5.9568    7.0598    6.8203 H         1 RES1    0.0000
     35 C14        5.2181    7.0931    8.7011 C.ar      1 RES1    0.0000
     36 H18        5.2286    8.0278    8.7963 H         1 RES1    0.0000
     37 C15        4.7701    6.2927    9.7437 C.ar      1 RES1    0.0000
     38 H19        4.4813    6.6837   10.5483 H         1 RES1    0.0000
     39 C16        4.7499    4.9320    9.5944 C.ar      1 RES1    0.0000
     40 H20        4.4446    4.3819   10.2935 H         1 RES1    0.0000
     41 O4         6.0082    2.3539    7.6174 O.2       1 RES1    0.0000
     42 N2         5.1872    2.9134    8.3287 N.pl3     1 RES1    0.0000
     43 C17        5.1849    4.3734    8.4043 C.ar      1 RES1    0.0000
     44 O5         4.3864    2.2963    9.0157 O.2       1 RES1    0.0000
@<TRIPOS>BOND
     1    1    2 1
     2    2    3 2
     3    3    4 1
     4    4    5 1
     5    7    4 1
     6    8    7 2
     7    9    7 1
     8   10    9 1
     9   11    9 1
    10   12    9 1
    11   13   12 1
    12   14   12 1
    13   15   12 1
    14   16   15 1
    15   17   15 1
    16   29    1 1
    17   30   29 1
    18   32    3 1
    19   33   32 ar
    20   34   33 1
    21   35   33 ar
    22   36   35 1
    23   37   35 ar
    24   38   37 1
    25   39   37 ar
    26   40   39 1
    27   41   42 2
    28   42   43 1
    29   43   32 ar
    30   44   42 2
    31    4   29 1
    32   15   29 1
    33   39   43 ar
@<TRIPOS>SUBSTRUCTURE
     1 RES1 1
     2 SUP2 6

@<TRIPOS>CRYSIN
   7.4940    8.3890    9.9280 109.5600  93.2500  91.1230   2 1

