# MOL2 file generated by ConQuest
# Please check atom types

@<TRIPOS>MOLECULE
NASXOV
   106   112     2
SMALL
NO_CHARGES
****
Generated from CSD

@<TRIPOS>ATOM
      1 C1         3.0694    5.9372    1.8362 C.2       1 RES1    0.0000
      2 O1         3.3344    5.5229    4.1828 O.2       1 RES1    0.0000
      3 C2         3.8223    5.9611    3.1554 C.2       1 RES1    0.0000
      4 C3         5.1774    6.4795    3.0786 C.2       1 RES1    0.0000
      5 H1         5.7487    6.3759    3.8175 H         1 RES1    0.0000
      6 C4         5.6312    7.0954    1.9918 C.2       1 RES1    0.0000
      7 H2         6.5292    7.3751    1.9779 H         1 RES1    0.0000
      8 C5         4.8085    7.3573    0.8232 C.ar      1 RES1    0.0000
      9 C6         5.2816    8.1545   -0.2077 C.ar      1 RES1    0.0000
     10 H3         6.1600    8.4869   -0.1703 H         1 RES1    0.0000
     11 C7         4.4767    8.4670   -1.2923 C.ar      1 RES1    0.0000
     12 H4         4.8106    9.0003   -1.9901 H         1 RES1    0.0000
     13 C8         3.1834    7.9919   -1.3412 C.ar      1 RES1    0.0000
     14 H5         2.6265    8.2266   -2.0615 H         1 RES1    0.0000
     15 C9         2.7012    7.1726   -0.3384 C.ar      1 RES1    0.0000
     16 H6         1.8209    6.8473   -0.3907 H         1 RES1    0.0000
     17 C10        3.5020    6.8205    0.7519 C.ar      1 RES1    0.0000
     18 N1         2.2008    4.9807    1.8203 N.2       1 RES1    0.0000
     19 O2         1.5969    4.8048    0.5747 O.3       1 RES1    0.0000
     20 C11        0.8258    3.5592    0.6051 C.3       1 RES1    0.0000
     21 O3        -0.5902    2.7631    2.3901 O.2       1 RES1    0.0000
     22 C12       -0.1385    3.6882    1.7792 C.2       1 RES1    0.0000
     23 H7        -0.3965    4.5529    2.0418 H         1 RES1    0.0000
     24 C13       -0.0069    3.5968   -0.6756 C.ar      1 RES1    0.0000
     25 C14        0.3412    4.4018   -1.7444 C.ar      1 RES1    0.0000
     26 H8         1.0844    4.9732   -1.6739 H         1 RES1    0.0000
     27 C15       -0.3897    4.3760   -2.9126 C.ar      1 RES1    0.0000
     28 H9        -0.1412    4.9295   -3.6305 H         1 RES1    0.0000
     29 C16       -1.4888    3.5396   -3.0374 C.ar      1 RES1    0.0000
     30 C17       -1.8438    2.7265   -1.9857 C.ar      1 RES1    0.0000
     31 H10       -2.5851    2.1529   -2.0600 H         1 RES1    0.0000
     32 C18       -1.0998    2.7582   -0.8123 C.ar      1 RES1    0.0000
     33 H11       -1.3434    2.1985   -0.0973 H         1 RES1    0.0000
     34 O4        -2.1343    3.5879   -4.2386 O.3       1 RES1    0.0000
     35 C19       -3.2344    2.7258   -4.4446 C.3       1 RES1    0.0000
     36 H12       -2.9566    1.8076   -4.3025 H         1 RES1    0.0000
     37 H13       -3.5600    2.8290   -5.3530 H         1 RES1    0.0000
     38 H14       -3.9421    2.9508   -3.8205 H         1 RES1    0.0000
     39 C20        1.7403    2.3503    0.6989 C.ar      1 RES1    0.0000
     40 C21        1.9608    1.5117   -0.3959 C.ar      1 RES1    0.0000
     41 H15        1.4877    1.6589   -1.1950 H         1 RES1    0.0000
     42 C22        2.8602    0.4730   -0.3211 C.ar      1 RES1    0.0000
     43 H16        2.9874   -0.0865   -1.0657 H         1 RES1    0.0000
     44 C23        3.5770    0.2454    0.8359 C.ar      1 RES1    0.0000
     45 C24        3.3440    1.0405    1.9547 C.ar      1 RES1    0.0000
     46 H17        3.8076    0.8783    2.7563 H         1 RES1    0.0000
     47 C25        2.4277    2.0689    1.8768 C.ar      1 RES1    0.0000
     48 H18        2.2627    2.5932    2.6393 H         1 RES1    0.0000
     49 O5         4.4791   -0.7848    0.7997 O.3       1 RES1    0.0000
     50 C26        5.4702   -0.8118    1.8154 C.3       1 RES1    0.0000
     51 H19        5.9043    0.0544    1.8669 H         1 RES1    0.0000
     52 H20        6.1298   -1.4913    1.6055 H         1 RES1    0.0000
     53 H21        5.0543   -1.0171    2.6682 H         1 RES1    0.0000
     54 C27       -0.2324   -3.0677   -8.8356 C.2       2 RES2    0.0000
     55 O6         0.4055   -1.8760  -10.8140 O.2       2 RES2    0.0000
     56 C28        0.6613   -2.7778  -10.0324 C.2       2 RES2    0.0000
     57 C29        1.8290   -3.6288  -10.1832 C.2       2 RES2    0.0000
     58 H22        2.4772   -3.4121  -10.8292 H         2 RES2    0.0000
     59 C30        1.9997   -4.7067   -9.4276 C.2       2 RES2    0.0000
     60 H23        2.7775   -5.2205   -9.5537 H         2 RES2    0.0000
     61 C31        1.0480   -5.1350   -8.4154 C.ar      2 RES2    0.0000
     62 C32        1.2491   -6.3279   -7.7381 C.ar      2 RES2    0.0000
     63 H24        2.0171   -6.8381   -7.9193 H         2 RES2    0.0000
     64 C33        0.3384   -6.7774   -6.8011 C.ar      2 RES2    0.0000
     65 H25        0.4919   -7.5844   -6.3443 H         2 RES2    0.0000
     66 C34       -0.8000   -6.0353   -6.5381 C.ar      2 RES2    0.0000
     67 H26       -1.4276   -6.3458   -5.9095 H         2 RES2    0.0000
     68 C35       -1.0171   -4.8393   -7.1972 C.ar      2 RES2    0.0000
     69 H27       -1.7959   -4.3455   -7.0132 H         2 RES2    0.0000
     70 C36       -0.1002   -4.3511   -8.1314 C.ar      2 RES2    0.0000
     71 N2        -0.9589   -2.0305   -8.5563 N.2       2 RES2    0.0000
     72 O7        -1.8254   -2.2072   -7.4819 O.3       2 RES2    0.0000
     73 C37       -2.3571   -0.8881   -7.1291 C.3       2 RES2    0.0000
     74 O8        -2.8150    0.9314   -8.6710 O.2       2 RES2    0.0000
     75 C38       -2.8117   -0.2470   -8.4361 C.2       2 RES2    0.0000
     76 H28       -3.1143   -0.8214   -9.1158 H         2 RES2    0.0000
     77 C39       -3.6329   -1.1620   -6.3306 C.ar      2 RES2    0.0000
     78 C40       -3.8878   -2.3917   -5.7231 C.ar      2 RES2    0.0000
     79 H29       -3.2702   -3.0940   -5.8167 H         2 RES2    0.0000
     80 C41       -5.0399   -2.5857   -4.9851 C.ar      2 RES2    0.0000
     81 H30       -5.1976   -3.4170   -4.5761 H         2 RES2    0.0000
     82 C42       -5.9690   -1.5585   -4.8433 C.ar      2 RES2    0.0000
     83 C43       -5.7278   -0.3336   -5.4354 C.ar      2 RES2    0.0000
     84 H31       -6.3468    0.3666   -5.3393 H         2 RES2    0.0000
     85 C44       -4.5670   -0.1396   -6.1741 C.ar      2 RES2    0.0000
     86 H32       -4.4092    0.6955   -6.5754 H         2 RES2    0.0000
     87 O9        -7.0751   -1.8692   -4.1036 O.3       2 RES2    0.0000
     88 C45       -8.0763   -0.8615   -3.9619 C.3       2 RES2    0.0000
     89 H33       -7.7042   -0.1002   -3.4891 H         2 RES2    0.0000
     90 H34       -8.8255   -1.2185   -3.4602 H         2 RES2    0.0000
     91 H35       -8.3794   -0.5812   -4.8392 H         2 RES2    0.0000
     92 C46       -1.3113   -0.1415   -6.3104 C.ar      2 RES2    0.0000
     93 C47       -1.1021   -0.5322   -4.9878 C.ar      2 RES2    0.0000
     94 H36       -1.6370   -1.2124   -4.6202 H         2 RES2    0.0000
     95 C48       -0.1302    0.0555   -4.2056 C.ar      2 RES2    0.0000
     96 H37       -0.0071   -0.2288   -3.3173 H         2 RES2    0.0000
     97 C49        0.6643    1.0627   -4.7259 C.ar      2 RES2    0.0000
     98 C50        0.4820    1.4667   -6.0349 C.ar      2 RES2    0.0000
     99 H38        1.0173    2.1495   -6.3975 H         2 RES2    0.0000
    100 C51       -0.4994    0.8568   -6.8153 C.ar      2 RES2    0.0000
    101 H39       -0.6116    1.1307   -7.7065 H         2 RES2    0.0000
    102 O10        1.6022    1.5784   -3.8747 O.3       2 RES2    0.0000
    103 C52        2.4706    2.5845   -4.3727 C.3       2 RES2    0.0000
    104 H40        2.9948    2.2258   -5.1052 H         2 RES2    0.0000
    105 H41        3.0633    2.8796   -3.6640 H         2 RES2    0.0000
    106 H42        1.9455    3.3364   -4.6886 H         2 RES2    0.0000
@<TRIPOS>BOND
     1    1    3 1
     2    2    3 2
     3    3    4 1
     4    4    5 1
     5    6    4 2
     6    7    6 1
     7    8    6 1
     8    9    8 ar
     9   10    9 1
    10   11    9 ar
    11   12   11 1
    12   13   11 ar
    13   14   13 1
    14   15   13 ar
    15   16   15 1
    16   17    1 1
    17   18    1 2
    18   19   18 1
    19   20   19 1
    20   21   22 2
    21   22   20 1
    22   23   22 1
    23   24   20 1
    24   25   24 ar
    25   26   25 1
    26   27   25 ar
    27   28   27 1
    28   29   27 ar
    29   30   29 ar
    30   31   30 1
    31   32   24 ar
    32   33   32 1
    33   34   29 1
    34   35   34 1
    35   36   35 1
    36   37   35 1
    37   38   35 1
    38   39   20 1
    39   40   39 ar
    40   41   40 1
    41   42   40 ar
    42   43   42 1
    43   44   42 ar
    44   45   44 ar
    45   46   45 1
    46   47   39 ar
    47   48   47 1
    48   49   44 1
    49   50   49 1
    50   51   50 1
    51   52   50 1
    52   53   50 1
    53   54   56 1
    54   55   56 2
    55   56   57 1
    56   57   58 1
    57   59   57 2
    58   60   59 1
    59   61   59 1
    60   62   61 ar
    61   63   62 1
    62   64   62 ar
    63   65   64 1
    64   66   64 ar
    65   67   66 1
    66   68   66 ar
    67   69   68 1
    68   70   54 1
    69   71   54 2
    70   72   71 1
    71   73   72 1
    72   74   75 2
    73   75   73 1
    74   76   75 1
    75   77   73 1
    76   78   77 ar
    77   79   78 1
    78   80   78 ar
    79   81   80 1
    80   82   80 ar
    81   83   82 ar
    82   84   83 1
    83   85   77 ar
    84   86   85 1
    85   87   82 1
    86   88   87 1
    87   89   88 1
    88   90   88 1
    89   91   88 1
    90   92   73 1
    91   93   92 ar
    92   94   93 1
    93   95   93 ar
    94   96   95 1
    95   97   95 ar
    96   98   97 ar
    97   99   98 1
    98  100   92 ar
    99  101  100 1
   100  102   97 1
   101  103  102 1
   102  104  103 1
   103  105  103 1
   104  106  103 1
   105    8   17 ar
   106   15   17 ar
   107   30   32 ar
   108   45   47 ar
   109   61   70 ar
   110   68   70 ar
   111   83   85 ar
   112   98  100 ar
@<TRIPOS>SUBSTRUCTURE
     1 RES1 1
     2 RES2 54

@<TRIPOS>CRYSIN
  11.6320   11.9140   15.9760 103.6300 100.1000  95.1200   2 1

