# MOL2 file generated by ConQuest
# Please check atom types

@<TRIPOS>MOLECULE
NATZEN
   118   118     3
SMALL
NO_CHARGES
****
Generated from CSD

@<TRIPOS>ATOM
      1 N1         1.4293    3.3883   15.3624 N.3       1 RES1    0.0000
      2 C1         2.0692    2.9208   16.4942 C.2       1 RES1    0.0000
      3 C2         3.5003    3.2063   16.8671 C.3       1 RES1    0.0000
      4 N2         3.7945    2.4596   18.0662 N.3       1 RES1    0.0000
      5 C3         2.7248    2.4126   19.0953 C.3       1 RES1    0.0000
      6 C4         1.5592    1.6063   18.5572 C.3       1 RES1    0.0000
      7 C5         1.1928    2.1867   17.2330 C.2       1 RES1    0.0000
      8 C6        -0.0625    2.1867   16.5414 C.ar      1 RES1    0.0000
      9 C7        -1.3158    1.6502   16.8093 C.ar      1 RES1    0.0000
     10 C8        -2.3405    1.8981   15.9206 C.ar      1 RES1    0.0000
     11 C9        -2.1559    2.6604   14.7900 C.ar      1 RES1    0.0000
     12 C10       -0.9157    3.1969   14.4855 C.ar      1 RES1    0.0000
     13 C11        0.1146    2.9459   15.3872 C.ar      1 RES1    0.0000
     14 O1         3.5355    4.6683   17.2743 O.3       1 RES1    0.0000
     15 N3         3.7211    5.6785   16.3290 N.2       1 RES1    0.0000
     16 C12        4.0634    5.3397   15.1523 C.2       1 RES1    0.0000
     17 C13        4.3522    3.9718   14.6578 C.3       1 RES1    0.0000
     18 C14        4.5563    2.9679   15.7908 C.3       1 RES1    0.0000
     19 C15        5.9524    3.2251   16.3880 C.3       1 RES1    0.0000
     20 C16        6.1801    2.3906   17.6531 C.3       1 RES1    0.0000
     21 C17        5.1150    2.7232   18.6610 C.3       1 RES1    0.0000
     22 C18        4.4031    1.5247   15.2550 C.3       1 RES1    0.0000
     23 C19        5.4861    1.0730   14.2991 C.3       1 RES1    0.0000
     24 C20        4.2244    6.4597   14.2035 C.2       1 RES1    0.0000
     25 O2         4.2233    6.2934   13.0044 O.2       1 RES1    0.0000
     26 O3         4.3468    7.6362   14.7523 O.3       1 RES1    0.0000
     27 C21        4.6398    8.8127   13.8400 C.3       1 RES1    0.0000
     28 C22        3.3141    9.3303   13.3821 C.3       1 RES1    0.0000
     29 H1         1.8167    3.8557   14.4525 H         1 RES1    0.0000
     30 H2         2.4330    3.3130   19.3078 H         1 RES1    0.0000
     31 H3         3.0637    2.0016   19.9061 H         1 RES1    0.0000
     32 H4         1.8124    0.6745   18.4580 H         1 RES1    0.0000
     33 H5         0.8065    1.6565   19.1661 H         1 RES1    0.0000
     34 H6        -1.4601    1.1326   17.5693 H         1 RES1    0.0000
     35 H7        -3.1826    1.5404   16.0918 H         1 RES1    0.0000
     36 H8        -2.8759    2.8204   14.2224 H         1 RES1    0.0000
     37 H9        -0.7772    3.7020   13.7161 H         1 RES1    0.0000
     38 H10        5.1495    3.9938   14.1079 H         1 RES1    0.0000
     39 H11        3.6152    3.6738   14.1008 H         1 RES1    0.0000
     40 H12        6.6299    3.0024   15.7294 H         1 RES1    0.0000
     41 H13        6.0410    4.1663   16.6028 H         1 RES1    0.0000
     42 H14        6.1465    1.4463   17.4360 H         1 RES1    0.0000
     43 H15        7.0559    2.5883   18.0225 H         1 RES1    0.0000
     44 H16        5.2337    2.1836   19.4565 H         1 RES1    0.0000
     45 H17        5.1810    3.6581   18.9136 H         1 RES1    0.0000
     46 H18        4.3861    0.9161   16.0115 H         1 RES1    0.0000
     47 H19        3.5462    1.4526   14.8054 H         1 RES1    0.0000
     48 H20        5.5855    1.7224   13.5980 H         1 RES1    0.0000
     49 H21        5.2444    0.2259   13.9179 H         1 RES1    0.0000
     50 H22        6.3159    0.9851   14.7735 H         1 RES1    0.0000
     51 H23        5.1378    8.5146   13.0752 H         1 RES1    0.0000
     52 H24        5.1461    9.4903   14.2955 H         1 RES1    0.0000
     53 H25        2.8751    8.6621   12.8522 H         1 RES1    0.0000
     54 H26        3.4461   10.1209   12.8545 H         1 RES1    0.0000
     55 H27        2.7719    9.5437   14.1456 H         1 RES1    0.0000
     56 N4         4.9472    4.3044   11.0193 N.3       2 RES2    0.0000
     57 C23        4.5217    3.0118   10.7160 C.2       2 RES2    0.0000
     58 C24        3.0757    2.6102   10.4529 C.3       2 RES2    0.0000
     59 N5         3.0682    1.2581   10.0103 N.3       2 RES2    0.0000
     60 C25        3.9984    0.3514   10.6995 C.3       2 RES2    0.0000
     61 C26        5.4260    0.7279   10.3974 C.3       2 RES2    0.0000
     62 C27        5.5891    2.1773   10.6452 C.2       2 RES2    0.0000
     63 C28        6.7446    2.9397   10.9108 C.ar      2 RES2    0.0000
     64 C29        8.1100    2.6636   10.9627 C.ar      2 RES2    0.0000
     65 C30        8.9789    3.6801   11.2483 C.ar      2 RES2    0.0000
     66 C31        8.5467    4.9507   11.5079 C.ar      2 RES2    0.0000
     67 C32        7.1983    5.2926   11.4702 C.ar      2 RES2    0.0000
     68 C33        6.3134    4.2354   11.1586 C.ar      2 RES2    0.0000
     69 O4         2.3947    2.6165   11.8171 O.3       2 RES2    0.0000
     70 N6         1.8434    3.7773   12.3423 N.2       2 RES2    0.0000
     71 C34        1.7091    4.7844   11.5847 C.2       2 RES2    0.0000
     72 C35        2.0674    4.9005   10.1531 C.3       2 RES2    0.0000
     73 C36        2.2714    3.5232    9.4957 C.3       2 RES2    0.0000
     74 C37        0.8909    2.9146    9.2892 C.3       2 RES2    0.0000
     75 C38        0.9423    1.4683    8.8278 C.3       2 RES2    0.0000
     76 C39        1.7448    0.6557    9.8238 C.3       2 RES2    0.0000
     77 C40        3.0531    3.6801    8.1728 C.3       2 RES2    0.0000
     78 C41        2.4147    4.5899    7.1295 C.3       2 RES2    0.0000
     79 C42        1.0596    5.9828   12.2467 C.2       2 RES2    0.0000
     80 O5         0.6551    6.9052   11.5988 O.2       2 RES2    0.0000
     81 O6         1.0020    5.8699   13.5626 O.3       2 RES2    0.0000
     82 C43        0.3175    6.9491   14.2920 C.3       2 RES2    0.0000
     83 C44        0.3162    6.6824   15.6421 C.3       2 RES2    0.0000
     84 H28        4.1951    4.8942   11.3156 H         2 RES2    0.0000
     85 H29        3.8348   -0.5616   10.4127 H         2 RES2    0.0000
     86 H30        3.8459    0.3984   11.6566 H         2 RES2    0.0000
     87 H31        6.0295    0.2227   10.9651 H         2 RES2    0.0000
     88 H32        5.6346    0.5239    9.4721 H         2 RES2    0.0000
     89 H33        8.4253    1.8008   10.8057 H         2 RES2    0.0000
     90 H34        9.8925    3.5044   11.2660 H         2 RES2    0.0000
     91 H35        9.1719    5.6064   11.7168 H         2 RES2    0.0000
     92 H36        6.9001    6.1585   11.6378 H         2 RES2    0.0000
     93 H37        2.8840    5.4181   10.0705 H         2 RES2    0.0000
     94 H38        1.3644    5.3742    9.6857 H         2 RES2    0.0000
     95 H39        0.3962    2.9647   10.1224 H         2 RES2    0.0000
     96 H40        0.4108    3.4416    8.6295 H         2 RES2    0.0000
     97 H41        0.0430    1.1106    8.7605 H         2 RES2    0.0000
     98 H42        1.3560    1.4149    7.9509 H         2 RES2    0.0000
     99 H43        1.2767    0.6275   10.6736 H         2 RES2    0.0000
    100 H44        1.8424   -0.2541    9.5005 H         2 RES2    0.0000
    101 H45        3.9370    4.0220    8.3793 H         2 RES2    0.0000
    102 H46        3.1686    2.7985    7.7809 H         2 RES2    0.0000
    103 H47        1.5496    4.2479    6.8923 H         2 RES2    0.0000
    104 H48        2.9719    4.6212    6.3482 H         2 RES2    0.0000
    105 H49        2.3215    5.4746    7.4906 H         2 RES2    0.0000
    106 H50       -0.5852    7.0307   13.9745 H         2 RES2    0.0000
    107 H51        0.7743    7.7742   14.1220 H         2 RES2    0.0000
    108 H52        0.1452    5.7475   15.7849 H         2 RES2    0.0000
    109 H53       -0.3687    7.2001   16.0705 H         2 RES2    0.0000
    110 H54        1.1711    6.9115   16.0139 H         2 RES2    0.0000
    111 C45        6.1256    8.9319   14.0205 Du        3 SUP3    0.0000
    112 C46       -1.1756    6.8456   14.3864 Du        3 SUP3    0.0000
    113 H55        6.4390    9.7194   13.5756 Du        3 SUP3    0.0000
    114 H56        6.5563    8.1601   13.6476 Du        3 SUP3    0.0000
    115 H57        6.3291    8.9884   14.9576 Du        3 SUP3    0.0000
    116 H58       -1.4124    6.0675   14.8986 Du        3 SUP3    0.0000
    117 H59       -1.5511    6.7797   13.5083 Du        3 SUP3    0.0000
    118 H60       -1.5226    7.6299   14.8266 Du        3 SUP3    0.0000
@<TRIPOS>BOND
     1    1    2 1
     2    2    3 1
     3    3    4 1
     4    4    5 1
     5    5    6 1
     6    6    7 1
     7    7    2 2
     8    8    7 1
     9    9    8 ar
    10   10    9 ar
    11   11   10 ar
    12   12   11 ar
    13   13    1 1
    14   14    3 1
    15   15   14 1
    16   16   15 2
    17   17   16 1
    18   18    3 1
    19   19   18 1
    20   20   19 1
    21   21    4 1
    22   22   18 1
    23   23   22 1
    24   24   16 1
    25   25   24 2
    26   26   24 1
    27   27   26 1
    28   28   27 1
    29   29    1 1
    30   30    5 1
    31   31    5 1
    32   32    6 1
    33   33    6 1
    34   34    9 1
    35   35   10 1
    36   36   11 1
    37   37   12 1
    38   38   17 1
    39   39   17 1
    40   40   19 1
    41   41   19 1
    42   42   20 1
    43   43   20 1
    44   44   21 1
    45   45   21 1
    46   46   22 1
    47   47   22 1
    48   48   23 1
    49   49   23 1
    50   50   23 1
    51   51   27 1
    52   52   27 1
    53   53   28 1
    54   54   28 1
    55   55   28 1
    56   56   57 1
    57   57   58 1
    58   58   59 1
    59   59   60 1
    60   60   61 1
    61   61   62 1
    62   62   57 2
    63   63   62 1
    64   64   63 ar
    65   65   64 ar
    66   66   65 ar
    67   67   66 ar
    68   68   56 1
    69   69   58 1
    70   70   69 1
    71   71   70 2
    72   72   71 1
    73   73   58 1
    74   74   73 1
    75   75   74 1
    76   76   59 1
    77   77   73 1
    78   78   77 1
    79   79   71 1
    80   80   79 2
    81   81   79 1
    82   82   81 1
    83   83   82 1
    84   84   56 1
    85   85   60 1
    86   86   60 1
    87   87   61 1
    88   88   61 1
    89   89   64 1
    90   90   65 1
    91   91   66 1
    92   92   67 1
    93   93   72 1
    94   94   72 1
    95   95   74 1
    96   96   74 1
    97   97   75 1
    98   98   75 1
    99   99   76 1
   100  100   76 1
   101  101   77 1
   102  102   77 1
   103  103   78 1
   104  104   78 1
   105  105   78 1
   106  106   82 1
   107  107   82 1
   108  108   83 1
   109  109   83 1
   110  110   83 1
   111    8   13 ar
   112   12   13 ar
   113   17   18 1
   114   20   21 1
   115   63   68 ar
   116   67   68 ar
   117   72   73 1
   118   75   76 1
@<TRIPOS>SUBSTRUCTURE
     1 RES1 1
     2 RES2 56
     3 SUP3 111

@<TRIPOS>CRYSIN
  11.7690   31.3730   12.6330  90.0000 110.9000  90.0000  14 1

