# MOL2 file generated by ConQuest
# Please check atom types

@<TRIPOS>MOLECULE
NAVHID
    41    43     1
SMALL
NO_CHARGES
****
Generated from CSD

@<TRIPOS>ATOM
      1 O1        -8.9319    1.9503    8.8883 O.2       1 RES1    0.0000
      2 O2        -9.5116    0.7001   10.5344 O.2       1 RES1    0.0000
      3 O3        -0.1749   -2.4348    6.5249 O.2       1 RES1    0.0000
      4 O4        -3.1944   -0.3745   12.0490 O.2       1 RES1    0.0000
      5 O5        -1.2430    0.5405   11.3982 O.3       1 RES1    0.0000
      6 N1        -8.7092    1.0520    9.6846 N.pl3     1 RES1    0.0000
      7 N2        -3.2939   -1.8403    8.0093 N.3       1 RES1    0.0000
      8 N3        -1.8604   -1.7146    7.9239 N.am      1 RES1    0.0000
      9 C1        -5.2839    0.1056    8.5873 C.ar      1 RES1    0.0000
     10 H1        -4.6593    0.3422    7.9123 H         1 RES1    0.0000
     11 C2        -6.5107    0.7464    8.6383 C.ar      1 RES1    0.0000
     12 H2        -6.7331    1.4212    8.0083 H         1 RES1    0.0000
     13 C3        -7.4033    0.3815    9.6260 C.ar      1 RES1    0.0000
     14 C4        -7.1070   -0.5788   10.5705 C.ar      1 RES1    0.0000
     15 H3        -7.7326   -0.8075   11.2480 H         1 RES1    0.0000
     16 C5        -5.8693   -1.2030   10.5035 C.ar      1 RES1    0.0000
     17 H4        -5.6444   -1.8638   11.1478 H         1 RES1    0.0000
     18 C6        -4.9556   -0.8800    9.5129 C.ar      1 RES1    0.0000
     19 C7        -3.6237   -1.5906    9.4281 C.3       1 RES1    0.0000
     20 H5        -3.6705   -2.4592    9.9225 H         1 RES1    0.0000
     21 C8        -3.5363   -3.1724    7.4373 C.3       1 RES1    0.0000
     22 H6        -4.4596   -3.2554    7.0907 H         1 RES1    0.0000
     23 H7        -3.3706   -3.8874    8.1014 H         1 RES1    0.0000
     24 C9        -2.5149   -3.2117    6.3118 C.3       1 RES1    0.0000
     25 H8        -2.2591   -4.1432    6.0941 H         1 RES1    0.0000
     26 H9        -2.8646   -2.7735    5.4955 H         1 RES1    0.0000
     27 C10       -1.3428   -2.4418    6.8878 C.2       1 RES1    0.0000
     28 C11       -1.3809   -0.9638    8.9884 C.2       1 RES1    0.0000
     29 C12        0.0400   -0.5447    9.0033 C.3       1 RES1    0.0000
     30 H10        0.2206   -0.0306    9.8180 H         1 RES1    0.0000
     31 H11        0.2256    0.0113    8.2186 H         1 RES1    0.0000
     32 H12        0.6152   -1.3392    8.9837 H         1 RES1    0.0000
     33 C13       -2.4001   -0.8066    9.8783 C.2       1 RES1    0.0000
     34 C14       -2.3432   -0.2025   11.2059 C.2       1 RES1    0.0000
     35 C15       -1.0348    1.0275   12.7429 C.3       1 RES1    0.0000
     36 H13       -1.0410    0.2759   13.3866 H         1 RES1    0.0000
     37 H14       -1.7489    1.6648   12.9942 H         1 RES1    0.0000
     38 C16        0.3075    1.7137   12.7480 C.3       1 RES1    0.0000
     39 H15        0.4939    2.0603   13.6450 H         1 RES1    0.0000
     40 H16        0.2987    2.4548   12.1063 H         1 RES1    0.0000
     41 H17        1.0035    1.0712   12.4945 H         1 RES1    0.0000
@<TRIPOS>BOND
     1    1    6 2
     2    2    6 2
     3    3   27 2
     4    4   34 2
     5    5   34 1
     6    6   13 1
     7    7    8 1
     8    8   27 1
     9    9   10 1
    10   11    9 ar
    11   12   11 1
    12   13   11 ar
    13   14   13 ar
    14   15   14 1
    15   16   14 ar
    16   17   16 1
    17   18    9 ar
    18   19    7 1
    19   20   19 1
    20   21    7 1
    21   22   21 1
    22   23   21 1
    23   24   21 1
    24   25   24 1
    25   26   24 1
    26   27   24 1
    27   28    8 1
    28   29   28 1
    29   30   29 1
    30   31   29 1
    31   32   29 1
    32   33   19 1
    33   34   33 1
    34   35    5 1
    35   36   35 1
    36   37   35 1
    37   38   35 1
    38   39   38 1
    39   40   38 1
    40   41   38 1
    41   16   18 ar
    42   18   19 1
    43   28   33 2
@<TRIPOS>SUBSTRUCTURE
     1 RES1 1

@<TRIPOS>CRYSIN
  12.5340    8.7299   14.2500  90.0000  97.8500  90.0000 231 1

