# MOL2 file generated by ConQuest
# Please check atom types

@<TRIPOS>MOLECULE
NAVKUT
   140   140     1
SMALL
NO_CHARGES
****
Generated from CSD

@<TRIPOS>ATOM
      1 O1         4.9314   12.8894   29.6594 O.2       1 RES1    0.0000
      2 N1         2.8271   13.2895   28.9314 N.am      1 RES1    0.0000
      3 H1         2.7135   13.9352   29.4847 H         1 RES1    0.0000
      4 H2         2.1957   13.0704   28.3889 H         1 RES1    0.0000
      5 C1         3.9799   12.6274   28.9094 C.2       1 RES1    0.0000
      6 O2         3.0083   11.4050   27.0093 O.3       1 RES1    0.0000
      7 N2         3.1085   12.3706   25.9979 N.am      1 RES1    0.0000
      8 H3         3.8343   12.4813   25.5500 H         1 RES1    0.0000
      9 C2         4.1147   11.4775   27.9411 C.3       1 RES1    0.0000
     10 H4         4.9562   11.5624   27.4468 H         1 RES1    0.0000
     11 O3         1.0857   13.2245   26.5358 O.2       1 RES1    0.0000
     12 N3         3.0011   12.2480   22.9971 N.am      1 RES1    0.0000
     13 H5         2.2829   12.0148   22.5866 H         1 RES1    0.0000
     14 C3         2.0124   13.1105   25.7634 C.2       1 RES1    0.0000
     15 O4         3.1265   13.5167   23.5724 O.3       1 RES1    0.0000
     16 N4         3.0119   11.0657   20.2719 N.am      1 RES1    0.0000
     17 H6         3.7239   11.0935   19.7893 H         1 RES1    0.0000
     18 C4         2.0124   13.8385   24.4340 C.3       1 RES1    0.0000
     19 H7         1.1843   13.6123   23.9604 H         1 RES1    0.0000
     20 O5         4.9608   11.5996   23.9098 O.2       1 RES1    0.0000
     21 N5         2.9670   11.0063   17.2799 N.am      1 RES1    0.0000
     22 H8         2.2597   10.7895   16.8424 H         1 RES1    0.0000
     23 C5         4.0347   11.4163   23.1088 C.2       1 RES1    0.0000
     24 O6         2.8818   10.1615   21.3390 O.3       1 RES1    0.0000
     25 N6         3.0321    9.7292   14.5639 N.am      1 RES1    0.0000
     26 H9         3.7476    9.6703   14.0907 H         1 RES1    0.0000
     27 C6         4.0181   10.2051   22.2301 C.3       1 RES1    0.0000
     28 H10        4.8405   10.1863   21.6984 H         1 RES1    0.0000
     29 O7         1.0718   12.0654   20.8543 O.2       1 RES1    0.0000
     30 N7         3.3924    9.8870   11.4768 N.am      1 RES1    0.0000
     31 H11        2.7708    9.7857   10.8907 H         1 RES1    0.0000
     32 C7         1.9747   11.8852   20.0387 C.2       1 RES1    0.0000
     33 O8         3.1023   12.2662   17.8651 O.3       1 RES1    0.0000
     34 C8         1.9727   12.5850   18.7085 C.3       1 RES1    0.0000
     35 H12        1.1539   12.3329   18.2328 H         1 RES1    0.0000
     36 O9         4.8922   10.3079   18.2503 O.2       1 RES1    0.0000
     37 C9         3.9810   10.1509   17.4281 C.2       1 RES1    0.0000
     38 O10        2.8199    8.8835   15.6608 O.3       1 RES1    0.0000
     39 C10        3.9526    8.9162   16.5710 C.3       1 RES1    0.0000
     40 H13        4.7807    8.8738   16.0497 H         1 RES1    0.0000
     41 O11        1.1544   10.8885   15.0362 O.2       1 RES1    0.0000
     42 C11        2.0847   10.6293   14.2771 C.2       1 RES1    0.0000
     43 O12        3.5039   11.0261   12.2990 O.3       1 RES1    0.0000
     44 C12        2.2726   11.3574   12.9626 C.3       1 RES1    0.0000
     45 H14        1.5251   11.1359   12.3683 H         1 RES1    0.0000
     46 O13        4.9805    8.8060   12.7381 O.2       1 RES1    0.0000
     47 C13        4.3558    8.9751   11.6984 C.2       1 RES1    0.0000
     48 O14        4.5401    8.2117   10.5940 O.3       1 RES1    0.0000
     49 C14        5.4632    7.0948   10.7812 C.3       1 RES1    0.0000
     50 H15        5.0538    6.4091   11.3307 H         1 RES1    0.0000
     51 H16        6.2732    7.3988   11.2186 H         1 RES1    0.0000
     52 C15        5.7776    6.5576    9.4289 C.ar      1 RES1    0.0000
     53 C16        5.1033    5.4690    8.9317 C.ar      1 RES1    0.0000
     54 H17        4.4420    5.0660    9.4464 H         1 RES1    0.0000
     55 C17        5.3899    4.9671    7.6907 C.ar      1 RES1    0.0000
     56 H18        4.9495    4.2107    7.3795 H         1 RES1    0.0000
     57 C18        6.3088    5.5703    6.9217 C.ar      1 RES1    0.0000
     58 H19        6.4652    5.2381    6.0679 H         1 RES1    0.0000
     59 C19        7.0264    6.6542    7.3504 C.ar      1 RES1    0.0000
     60 H20        7.6723    7.0477    6.8067 H         1 RES1    0.0000
     61 C20        6.7621    7.1561    8.6329 C.ar      1 RES1    0.0000
     62 H21        7.2402    7.8842    8.9566 H         1 RES1    0.0000
     63 C21        4.1007   10.1627   28.6944 C.3       1 RES1    0.0000
     64 H22        4.8091   10.1839   29.3560 H         1 RES1    0.0000
     65 H23        3.2587   10.0944   29.1734 H         1 RES1    0.0000
     66 C22        4.2727    8.9186   27.8519 C.3       1 RES1    0.0000
     67 H24        3.4838    8.8503   27.2766 H         1 RES1    0.0000
     68 C23        4.2783    7.6910   28.7475 C.3       1 RES1    0.0000
     69 H25        3.4962    7.6980   29.3062 H         1 RES1    0.0000
     70 H26        4.2788    6.8992   28.2063 H         1 RES1    0.0000
     71 H27        5.0636    7.7027   29.2979 H         1 RES1    0.0000
     72 C24        5.4807    8.9704   26.9479 C.3       1 RES1    0.0000
     73 H28        5.5365    8.1575   26.4424 H         1 RES1    0.0000
     74 H29        5.4002    9.7150   26.3469 H         1 RES1    0.0000
     75 H30        6.2742    9.0718   27.4800 H         1 RES1    0.0000
     76 C25        2.0527   15.3324   24.6199 C.3       1 RES1    0.0000
     77 H31        2.8890   15.5681   25.0520 H         1 RES1    0.0000
     78 H32        1.3330   15.5893   25.2180 H         1 RES1    0.0000
     79 C26        1.9262   16.1407   23.3233 C.3       1 RES1    0.0000
     80 H33        2.6650   15.8720   22.7361 H         1 RES1    0.0000
     81 C27        0.6335   15.8744   22.5746 C.3       1 RES1    0.0000
     82 H34        0.5550   14.9342   22.3957 H         1 RES1    0.0000
     83 H35       -0.1105   16.1619   23.1096 H         1 RES1    0.0000
     84 H36        0.6386   16.3574   21.7441 H         1 RES1    0.0000
     85 C28        2.1017   17.6133   23.6317 C.3       1 RES1    0.0000
     86 H37        2.9267   17.7453   24.1057 H         1 RES1    0.0000
     87 H38        2.1188   18.1129   22.8108 H         1 RES1    0.0000
     88 H39        1.3702   17.9149   24.1763 H         1 RES1    0.0000
     89 C29        3.9412    8.9327   23.0581 C.3       1 RES1    0.0000
     90 H40        4.7595    8.8856   23.5952 H         1 RES1    0.0000
     91 C30        2.7755    8.9563   24.0185 C.3       1 RES1    0.0000
     92 H41        2.7600    8.1387   24.5207 H         1 RES1    0.0000
     93 H42        2.8689    9.7009   24.6162 H         1 RES1    0.0000
     94 H43        1.9561    9.0435   23.5246 H         1 RES1    0.0000
     95 C31        3.9066    7.6839   22.1720 C.3       1 RES1    0.0000
     96 H44        3.8870    6.9016   22.7444 H         1 RES1    0.0000
     97 H45        3.0821    7.6910   21.6611 H         1 RES1    0.0000
     98 C32        5.0713    7.5402   21.2029 C.3       1 RES1    0.0000
     99 H46        4.9660    6.7343   20.6940 H         1 RES1    0.0000
    100 H47        5.0873    8.2942   20.6110 H         1 RES1    0.0000
    101 H48        5.8943    7.5025   21.6943 H         1 RES1    0.0000
    102 C33        1.9768   14.1025   18.8853 C.3       1 RES1    0.0000
    103 H49        1.1502   14.3428   19.3535 H         1 RES1    0.0000
    104 C34        3.1410   14.5784   19.7477 C.3       1 RES1    0.0000
    105 H50        3.1312   14.1095   20.5861 H         1 RES1    0.0000
    106 H51        3.9686   14.4041   19.2912 H         1 RES1    0.0000
    107 H52        3.0563   15.5209   19.9055 H         1 RES1    0.0000
    108 C35        1.9649   14.8282   17.5451 C.3       1 RES1    0.0000
    109 H53        1.8957   15.7825   17.7140 H         1 RES1    0.0000
    110 H54        2.8142   14.6727   17.1039 H         1 RES1    0.0000
    111 C36        0.8482   14.4253   16.5955 C.3       1 RES1    0.0000
    112 H55        0.9210   14.9319   15.7841 H         1 RES1    0.0000
    113 H56        0.9195   13.4898   16.3942 H         1 RES1    0.0000
    114 H57       -0.0010   14.6020   17.0085 H         1 RES1    0.0000
    115 C37        3.8374    7.6556   17.4131 C.3       1 RES1    0.0000
    116 H58        4.6423    7.6085   17.9714 H         1 RES1    0.0000
    117 C38        2.6479    7.7145   18.3565 C.3       1 RES1    0.0000
    118 H59        2.6072    6.9040   18.8720 H         1 RES1    0.0000
    119 H60        2.7455    8.4638   18.9467 H         1 RES1    0.0000
    120 H61        1.8405    7.8111   17.8468 H         1 RES1    0.0000
    121 C39        3.8137    6.3879   16.5581 C.3       1 RES1    0.0000
    122 H62        3.8214    5.6198   17.1496 H         1 RES1    0.0000
    123 H63        2.9778    6.3667   16.0663 H         1 RES1    0.0000
    124 C40        4.9583    6.2371   15.5649 C.3       1 RES1    0.0000
    125 H64        4.8545    5.4148   15.0785 H         1 RES1    0.0000
    126 H65        4.9479    6.9746   14.9498 H         1 RES1    0.0000
    127 H66        5.7931    6.2253   16.0373 H         1 RES1    0.0000
    128 C41        2.2912   12.8560   13.1855 C.3       1 RES1    0.0000
    129 H67        1.4554   13.0845   13.6425 H         1 RES1    0.0000
    130 C42        3.4208   13.2778   14.0986 C.3       1 RES1    0.0000
    131 H68        3.3986   14.2321   14.2152 H         1 RES1    0.0000
    132 H69        3.3206   12.8489   14.9498 H         1 RES1    0.0000
    133 H70        4.2597   13.0233   13.7089 H         1 RES1    0.0000
    134 C43        2.3134   13.6500   11.8798 C.3       1 RES1    0.0000
    135 H71        2.3599   14.5949   12.0944 H         1 RES1    0.0000
    136 H72        3.1209   13.4215   11.3929 H         1 RES1    0.0000
    137 C44        1.1306   13.4215   10.9783 C.3       1 RES1    0.0000
    138 H73        1.2241   13.9540   10.1852 H         1 RES1    0.0000
    139 H74        1.0878   12.4931   10.7372 H         1 RES1    0.0000
    140 H75        0.3253   13.6689   11.4386 H         1 RES1    0.0000
@<TRIPOS>BOND
     1    1    5 2
     2    2    3 1
     3    4    2 1
     4    5    2 1
     5    6    7 1
     6    7    8 1
     7    9    5 1
     8   10    9 1
     9   11   14 2
    10   12   13 1
    11   14    7 1
    12   15   12 1
    13   16   17 1
    14   18   14 1
    15   19   18 1
    16   20   23 2
    17   21   22 1
    18   23   12 1
    19   24   16 1
    20   25   26 1
    21   27   23 1
    22   28   27 1
    23   29   32 2
    24   30   31 1
    25   32   16 1
    26   33   21 1
    27   34   32 1
    28   35   34 1
    29   36   37 2
    30   37   21 1
    31   38   25 1
    32   39   37 1
    33   40   39 1
    34   41   42 2
    35   42   25 1
    36   43   30 1
    37   44   42 1
    38   45   44 1
    39   46   47 2
    40   47   30 1
    41   48   47 1
    42   49   48 1
    43   50   49 1
    44   51   49 1
    45   52   49 1
    46   53   52 ar
    47   54   53 1
    48   55   53 ar
    49   56   55 1
    50   57   55 ar
    51   58   57 1
    52   59   57 ar
    53   60   59 1
    54   61   52 ar
    55   62   61 1
    56   63    9 1
    57   64   63 1
    58   65   63 1
    59   66   63 1
    60   67   66 1
    61   68   66 1
    62   69   68 1
    63   70   68 1
    64   71   68 1
    65   72   66 1
    66   73   72 1
    67   74   72 1
    68   75   72 1
    69   76   18 1
    70   77   76 1
    71   78   76 1
    72   79   76 1
    73   80   79 1
    74   81   79 1
    75   82   81 1
    76   83   81 1
    77   84   81 1
    78   85   79 1
    79   86   85 1
    80   87   85 1
    81   88   85 1
    82   89   27 1
    83   90   89 1
    84   91   89 1
    85   92   91 1
    86   93   91 1
    87   94   91 1
    88   95   89 1
    89   96   95 1
    90   97   95 1
    91   98   95 1
    92   99   98 1
    93  100   98 1
    94  101   98 1
    95  102   34 1
    96  103  102 1
    97  104  102 1
    98  105  104 1
    99  106  104 1
   100  107  104 1
   101  108  102 1
   102  109  108 1
   103  110  108 1
   104  111  108 1
   105  112  111 1
   106  113  111 1
   107  114  111 1
   108  115   39 1
   109  116  115 1
   110  117  115 1
   111  118  117 1
   112  119  117 1
   113  120  117 1
   114  121  115 1
   115  122  121 1
   116  123  121 1
   117  124  121 1
   118  125  124 1
   119  126  124 1
   120  127  124 1
   121  128   44 1
   122  129  128 1
   123  130  128 1
   124  131  130 1
   125  132  130 1
   126  133  130 1
   127  134  128 1
   128  135  134 1
   129  136  134 1
   130  137  134 1
   131  138  137 1
   132  139  137 1
   133  140  137 1
   134    6    9 1
   135   15   18 1
   136   24   27 1
   137   33   34 1
   138   38   39 1
   139   43   44 1
   140   59   61 ar
@<TRIPOS>SUBSTRUCTURE
     1 RES1 1

@<TRIPOS>CRYSIN
   5.1627   23.5630   41.5043  90.0000  90.0000  90.0000  19 1

