# MOL2 file generated by ConQuest
# Please check atom types

@<TRIPOS>MOLECULE
NAVVIP
    52    55     1
SMALL
NO_CHARGES
****
Generated from CSD

@<TRIPOS>ATOM
      1 N1         7.8950    0.4382    5.6445 N.pl3     1 RES1    0.0000
      2 C1         7.4652    0.8646    4.4407 C.2       1 RES1    0.0000
      3 C2         7.9975    0.0382    3.4266 C.2       1 RES1    0.0000
      4 C3         8.8418   -0.9930    4.0816 C.2       1 RES1    0.0000
      5 C4         8.9039   -0.6599    5.5615 C.3       1 RES1    0.0000
      6 C5        10.2604   -0.0912    5.9306 C.3       1 RES1    0.0000
      7 C6         8.5044   -1.8301    6.4288 C.3       1 RES1    0.0000
      8 C7         6.4470    1.9234    4.3248 C.ar      1 RES1    0.0000
      9 C8         5.4014    1.7823    3.4153 C.ar      1 RES1    0.0000
     10 C9         4.4700    2.7870    3.2750 C.ar      1 RES1    0.0000
     11 C10        4.5705    3.9296    4.0154 C.ar      1 RES1    0.0000
     12 C11        5.5986    4.0855    4.9148 C.ar      1 RES1    0.0000
     13 C12        6.5376    3.0819    5.0834 C.ar      1 RES1    0.0000
     14 O1         7.4921    0.8477    6.7739 O.2       1 RES1    0.0000
     15 O2         9.4779   -1.8767    3.5540 O.2       1 RES1    0.0000
     16 N2         7.9534   -0.1793   -0.1727 N.pl3     1 RES1    0.0000
     17 C13        7.8685   -0.7808    1.0302 C.2       1 RES1    0.0000
     18 C14        7.8935    0.2143    2.0470 C.2       1 RES1    0.0000
     19 C15        7.9582    1.5330    1.3903 C.2       1 RES1    0.0000
     20 C16        8.0451    1.3081   -0.1019 C.3       1 RES1    0.0000
     21 C17        9.3841    1.7643   -0.6523 C.3       1 RES1    0.0000
     22 C18        6.8620    1.9404   -0.8154 C.3       1 RES1    0.0000
     23 C19        7.5277   -2.2077    1.1622 C.ar      1 RES1    0.0000
     24 C20        6.6482   -2.5939    2.1638 C.ar      1 RES1    0.0000
     25 C21        6.2243   -3.9009    2.2542 C.ar      1 RES1    0.0000
     26 C22        6.6736   -4.8462    1.3736 C.ar      1 RES1    0.0000
     27 C23        7.5534   -4.4791    0.3856 C.ar      1 RES1    0.0000
     28 C24        7.9802   -3.1710    0.2663 C.ar      1 RES1    0.0000
     29 O3         7.8819   -0.7448   -1.3080 O.2       1 RES1    0.0000
     30 O4         8.0302    2.6257    1.9104 O.2       1 RES1    0.0000
     31 H1        10.2448    0.2228    6.8624 H         1 RES1    0.0000
     32 H2        10.5585    0.6408    5.2931 H         1 RES1    0.0000
     33 H3        10.9191   -0.8455    5.8341 H         1 RES1    0.0000
     34 H4         7.6407   -2.1939    6.1756 H         1 RES1    0.0000
     35 H5         8.4857   -1.5097    7.2921 H         1 RES1    0.0000
     36 H6         9.2212   -2.5759    6.3578 H         1 RES1    0.0000
     37 H7         5.3738    0.9686    2.8988 H         1 RES1    0.0000
     38 H8         3.7732    2.6820    2.6034 H         1 RES1    0.0000
     39 H9         3.9452    4.6457    3.8600 H         1 RES1    0.0000
     40 H10        5.6072    4.9024    5.4792 H         1 RES1    0.0000
     41 H11        7.2866    3.1551    5.7094 H         1 RES1    0.0000
     42 H12        9.4249    2.7074   -0.6446 H         1 RES1    0.0000
     43 H13        9.4828    1.3707   -1.5655 H         1 RES1    0.0000
     44 H14       10.0923    1.3728   -0.1631 H         1 RES1    0.0000
     45 H15        6.8481    2.9472   -0.7444 H         1 RES1    0.0000
     46 H16        6.8619    1.6974   -1.7017 H         1 RES1    0.0000
     47 H17        6.0429    1.6009   -0.3396 H         1 RES1    0.0000
     48 H18        6.3147   -1.9605    2.7473 H         1 RES1    0.0000
     49 H19        5.6020   -4.1693    2.9487 H         1 RES1    0.0000
     50 H20        6.3323   -5.7840    1.4024 H         1 RES1    0.0000
     51 H21        7.8608   -5.1358   -0.2513 H         1 RES1    0.0000
     52 H22        8.6335   -2.8835   -0.4182 H         1 RES1    0.0000
@<TRIPOS>BOND
     1    1    2 2
     2    2    3 1
     3    3    4 1
     4    4    5 1
     5    5    1 1
     6    6    5 1
     7    7    5 1
     8    8    2 1
     9    9    8 ar
    10   10    9 ar
    11   11   10 ar
    12   12   11 ar
    13   13    8 ar
    14   14    1 1
    15   15    4 2
    16   16   17 2
    17   17   18 1
    18   18    3 2
    19   19   18 1
    20   20   16 1
    21   21   20 1
    22   22   20 1
    23   23   17 1
    24   24   23 ar
    25   25   24 ar
    26   26   25 ar
    27   27   26 ar
    28   28   23 ar
    29   29   16 1
    30   30   19 2
    31   31    6 1
    32   32    6 1
    33   33    6 1
    34   34    7 1
    35   35    7 1
    36   36    7 1
    37   37    9 1
    38   38   10 1
    39   39   11 1
    40   40   12 1
    41   41   13 1
    42   42   21 1
    43   43   21 1
    44   44   21 1
    45   45   22 1
    46   46   22 1
    47   47   22 1
    48   48   24 1
    49   49   25 1
    50   50   26 1
    51   51   27 1
    52   52   28 1
    53   12   13 ar
    54   19   20 1
    55   27   28 ar
@<TRIPOS>SUBSTRUCTURE
     1 RES1 1

@<TRIPOS>CRYSIN
  10.4450   10.6090   19.3630  90.0000  97.7800  90.0000  14 1

