# MOL2 file generated by ConQuest
# Please check atom types

@<TRIPOS>MOLECULE
NAVVOV
    56    57     1
SMALL
NO_CHARGES
****
Generated from CSD

@<TRIPOS>ATOM
      1 O1        -0.8181    1.3189    0.3937 O.2       1 RES1    0.0000
      2 O2        -0.0639    3.0786    4.6315 O.2       1 RES1    0.0000
      3 N1        -0.3940    2.0843    1.3066 N.pl3     1 RES1    0.0000
      4 C1         0.3447    3.2091    1.1505 C.2       1 RES1    0.0000
      5 C2         0.5596    3.7903    2.4160 C.2       1 RES1    0.0000
      6 C3        -0.0075    2.8922    3.4347 C.2       1 RES1    0.0000
      7 C4        -0.6056    1.7043    2.7309 C.3       1 RES1    0.0000
      8 C5         0.2107    0.4452    3.0217 C.3       1 RES1    0.0000
      9 H1        -0.1221   -0.2851    2.5363 H         1 RES1    0.0000
     10 H2         0.0886    0.1441    3.9430 H         1 RES1    0.0000
     11 H3         1.1706    0.6166    2.8885 H         1 RES1    0.0000
     12 C6        -2.0718    1.4991    3.0358 C.3       1 RES1    0.0000
     13 H4        -2.3866    0.8408    2.4526 H         1 RES1    0.0000
     14 H5        -2.4860    2.2759    2.8005 H         1 RES1    0.0000
     15 H6        -2.1748    1.1564    3.9924 H         1 RES1    0.0000
     16 C7         0.9707    3.4928   -0.2060 C.3       1 RES1    0.0000
     17 C8         1.7846    2.2358   -0.6030 C.3       1 RES1    0.0000
     18 H7         2.1089    2.4440   -1.4818 H         1 RES1    0.0000
     19 H8         1.2089    1.3710   -0.5262 H         1 RES1    0.0000
     20 H9         2.6104    2.1157    0.0301 H         1 RES1    0.0000
     21 C9        -0.1077    3.7958   -1.2417 C.3       1 RES1    0.0000
     22 H10        0.2681    3.9175   -2.1648 H         1 RES1    0.0000
     23 H11       -0.6523    4.5998   -0.9643 H         1 RES1    0.0000
     24 H12       -0.7433    3.0334   -1.3186 H         1 RES1    0.0000
     25 C10        1.9725    4.6575   -0.1430 C.3       1 RES1    0.0000
     26 H13        2.5051    4.6526   -1.0008 H         1 RES1    0.0000
     27 H14        2.7014    4.4845    0.6400 H         1 RES1    0.0000
     28 H15        1.5811    5.5688    0.0150 H         1 RES1    0.0000
     29 O3         2.0383    7.7396    4.7297 O.2       1 RES1    0.0000
     30 O4        -0.5015    6.2249    1.1477 O.2       1 RES1    0.0000
     31 N2         1.5237    6.9497    3.8820 N.pl3     1 RES1    0.0000
     32 C11        1.7020    5.6101    3.8092 C.2       1 RES1    0.0000
     33 C12        0.9453    5.1125    2.7212 C.2       1 RES1    0.0000
     34 C13        0.3028    6.2555    2.0561 C.2       1 RES1    0.0000
     35 C14        0.7253    7.5147    2.7683 C.3       1 RES1    0.0000
     36 C15        1.6589    8.3427    1.8916 C.3       1 RES1    0.0000
     37 H16        1.9258    9.1339    2.3989 H         1 RES1    0.0000
     38 H17        1.2017    8.6070    1.0802 H         1 RES1    0.0000
     39 H18        2.4524    7.7421    1.5420 H         1 RES1    0.0000
     40 C16       -0.4381    8.3251    3.3009 C.3       1 RES1    0.0000
     41 H19       -0.1029    9.0843    3.9151 H         1 RES1    0.0000
     42 H20       -1.0736    7.7085    3.8077 H         1 RES1    0.0000
     43 H21       -0.9025    8.5541    2.5105 H         1 RES1    0.0000
     44 C17        2.7612    4.9467    4.6755 C.3       1 RES1    0.0000
     45 C18        4.0850    5.7273    4.5050 C.3       1 RES1    0.0000
     46 H22        4.3567    5.7273    3.5607 H         1 RES1    0.0000
     47 H23        4.7972    5.2484    5.0232 H         1 RES1    0.0000
     48 H24        3.9737    6.6498    4.8128 H         1 RES1    0.0000
     49 C19        2.3304    4.9570    6.1370 C.3       1 RES1    0.0000
     50 H25        3.1239    4.5501    6.7005 H         1 RES1    0.0000
     51 H26        1.5105    4.3900    6.2302 H         1 RES1    0.0000
     52 H27        2.1855    5.8763    6.5115 H         1 RES1    0.0000
     53 C20        3.0641    3.5243    4.2172 C.3       1 RES1    0.0000
     54 H28        3.2101    3.5267    3.2665 H         1 RES1    0.0000
     55 H29        2.3723    2.9341    4.4047 H         1 RES1    0.0000
     56 H30        3.8121    3.1279    4.7226 H         1 RES1    0.0000
@<TRIPOS>BOND
     1    1    3 1
     2    2    6 2
     3    3    4 2
     4    4    5 1
     5    5    6 1
     6    6    7 1
     7    7    3 1
     8    8    7 1
     9    9    8 1
    10   10    8 1
    11   11    8 1
    12   12    7 1
    13   13   12 1
    14   14   12 1
    15   15   12 1
    16   16    4 1
    17   17   16 1
    18   18   17 1
    19   19   17 1
    20   20   17 1
    21   21   16 1
    22   22   21 1
    23   23   21 1
    24   24   21 1
    25   25   16 1
    26   26   25 1
    27   27   25 1
    28   28   25 1
    29   29   31 1
    30   30   34 2
    31   31   32 2
    32   32   33 1
    33   33    5 2
    34   34   33 1
    35   35   31 1
    36   36   35 1
    37   37   36 1
    38   38   36 1
    39   39   36 1
    40   40   35 1
    41   41   40 1
    42   42   40 1
    43   43   40 1
    44   44   32 1
    45   45   44 1
    46   46   45 1
    47   47   45 1
    48   48   45 1
    49   49   44 1
    50   50   49 1
    51   51   49 1
    52   52   49 1
    53   53   44 1
    54   54   53 1
    55   55   53 1
    56   56   53 1
    57   34   35 1
@<TRIPOS>SUBSTRUCTURE
     1 RES1 1

@<TRIPOS>CRYSIN
  11.9690   16.0160   21.4760  90.0000  90.0000  90.0000  61 1

