# MOL2 file generated by ConQuest
# Please check atom types

@<TRIPOS>MOLECULE
NAVVEL
    38    39     1
SMALL
NO_CHARGES
****
Generated from CSD

@<TRIPOS>ATOM
      1 N1         0.4327    2.1606    4.4089 N.pl3     1 RES1    0.0000
      2 C1        -0.4193    2.5677    3.4593 C.2       1 RES1    0.0000
      3 C2        -0.4963    3.9904    3.4497 C.2       1 RES1    0.0000
      4 C3         0.4886    4.4677    4.4586 C.2       1 RES1    0.0000
      5 C4         1.0844    3.2705    5.1597 C.3       1 RES1    0.0000
      6 C5         0.6359    3.2272    6.6178 C.3       1 RES1    0.0000
      7 C6         2.5909    3.1920    5.0053 C.3       1 RES1    0.0000
      8 C7        -1.1829    1.5238    2.7417 C.3       1 RES1    0.0000
      9 O1         0.6549    0.9506    4.7227 O.2       1 RES1    0.0000
     10 O2         0.8413    5.6048    4.6547 O.2       1 RES1    0.0000
     11 N2        -2.3721    6.6664    1.9144 N.pl3     1 RES1    0.0000
     12 C8        -1.7001    6.1620    2.9492 C.2       1 RES1    0.0000
     13 C9        -1.2636    4.8331    2.6519 C.2       1 RES1    0.0000
     14 C10       -1.7302    4.5354    1.2791 C.2       1 RES1    0.0000
     15 C11       -2.4469    5.7578    0.7408 C.3       1 RES1    0.0000
     16 C12       -3.8957    5.4619    0.3956 C.3       1 RES1    0.0000
     17 C13       -1.6844    6.3569   -0.4230 C.3       1 RES1    0.0000
     18 C14       -1.6439    6.9433    4.2038 C.3       1 RES1    0.0000
     19 O3        -2.9695    7.7946    1.8917 O.2       1 RES1    0.0000
     20 O4        -1.5222    3.5465    0.6179 O.2       1 RES1    0.0000
     21 H1        -0.3382    3.3002    6.6569 H         1 RES1    0.0000
     22 H2         0.8424    2.3854    7.0164 H         1 RES1    0.0000
     23 H3        -4.4085    5.1886    1.2069 H         1 RES1    0.0000
     24 H4        -4.2676    6.3055    0.1039 H         1 RES1    0.0000
     25 H5        -2.4381    7.5271    4.2358 H         1 RES1    0.0000
     26 H6        -1.6718    6.3262    4.9779 H         1 RES1    0.0000
     27 H7         1.0252    4.0040    7.1233 H         1 RES1    0.0000
     28 H8        -3.9303    4.7537   -0.3032 H         1 RES1    0.0000
     29 H9         2.8874    3.2885    4.0741 H         1 RES1    0.0000
     30 H10       -0.8533    7.4964    4.2835 H         1 RES1    0.0000
     31 H11        2.9601    3.9742    5.4457 H         1 RES1    0.0000
     32 H12       -0.7575    6.5256   -0.1314 H         1 RES1    0.0000
     33 H13        2.8740    2.3665    5.3894 H         1 RES1    0.0000
     34 H14       -2.0440    7.1581   -0.6829 H         1 RES1    0.0000
     35 H15       -1.6790    5.7326   -1.0914 H         1 RES1    0.0000
     36 H16       -0.6372    1.0574    2.1598 H         1 RES1    0.0000
     37 H17       -1.8972    1.8712    2.2262 H         1 RES1    0.0000
     38 H18       -1.5631    0.9157    3.3350 H         1 RES1    0.0000
@<TRIPOS>BOND
     1    1    2 2
     2    2    3 1
     3    3    4 1
     4    4    5 1
     5    5    1 1
     6    6    5 1
     7    7    5 1
     8    8    2 1
     9    9    1 1
    10   10    4 2
    11   11   12 2
    12   12   13 1
    13   13    3 2
    14   14   13 1
    15   15   11 1
    16   16   15 1
    17   17   15 1
    18   18   12 1
    19   19   11 1
    20   20   14 2
    21   21    6 1
    22   22    6 1
    23   23   16 1
    24   24   16 1
    25   25   18 1
    26   26   18 1
    27   27    6 1
    28   28   16 1
    29   29    7 1
    30   30   18 1
    31   31    7 1
    32   32   17 1
    33   33    7 1
    34   34   17 1
    35   35   17 1
    36   36    8 1
    37   37    8 1
    38   38    8 1
    39   14   15 1
@<TRIPOS>SUBSTRUCTURE
     1 RES1 1

@<TRIPOS>CRYSIN
  10.9870    9.0220   14.5580  90.0000  97.3900  90.0000 231 1

