# MOL2 file generated by ConQuest
# Please check atom types

@<TRIPOS>MOLECULE
NAWFOH
    72    74     1
SMALL
NO_CHARGES
****
Generated from CSD

@<TRIPOS>ATOM
      1 O1         4.0414    3.3389    0.9338 O.2       1 RES1    0.0000
      2 O2         4.1198    2.7869    3.0768 O.3       1 RES1    0.0000
      3 O3         6.4641    4.5823    6.4073 O.2       1 RES1    0.0000
      4 O4         7.8532    3.5401    7.6557 O.2       1 RES1    0.0000
      5 O5         6.3541    1.2961    8.3207 O.3       1 RES1    0.0000
      6 O6         5.4458   -0.9463    7.1591 O.3       1 RES1    0.0000
      7 O7         7.2755   -5.1346    2.9682 O.2       1 RES1    0.0000
      8 O8         7.6507   -5.0537    5.0782 O.2       1 RES1    0.0000
      9 O9         9.9166   -3.5622    5.3642 O.3       1 RES1    0.0000
     10 O10       10.6454   -0.9919    5.1593 O.3       1 RES1    0.0000
     11 O11        6.9734   -0.7811   -1.5332 O.2       1 RES1    0.0000
     12 O12        8.2107   -1.6349    0.0975 O.3       1 RES1    0.0000
     13 N1         5.8565    1.0625    0.4736 N.3       1 RES1    0.0000
     14 N2         7.0115    3.5663    6.7981 N.pl3     1 RES1    0.0000
     15 N3         7.6523   -4.5606    3.9695 N.pl3     1 RES1    0.0000
     16 C1         5.5067    1.6089    1.6839 C.2       1 RES1    0.0000
     17 C2         6.1731    0.9232    2.6925 C.2       1 RES1    0.0000
     18 C3         6.9517   -0.0753    2.0690 C.2       1 RES1    0.0000
     19 C4         6.7426    0.0329    0.6970 C.2       1 RES1    0.0000
     20 C5         5.3386    1.4970   -0.8414 C.3       1 RES1    0.0000
     21 H1         4.4192    1.7880   -0.7379 H         1 RES1    0.0000
     22 H2         5.3423    0.7402   -1.4481 H         1 RES1    0.0000
     23 C6         6.1439    2.6215   -1.4537 C.3       1 RES1    0.0000
     24 H3         6.1363    3.3885   -0.8604 H         1 RES1    0.0000
     25 H4         7.0644    2.3380   -1.5689 H         1 RES1    0.0000
     26 C7         5.5699    3.0006   -2.7694 C.2       1 RES1    0.0000
     27 H5         5.7716    2.4443   -3.4872 H         1 RES1    0.0000
     28 C8         4.8430    3.9917   -3.0154 C.2       1 RES1    0.0000
     29 H6         4.6111    4.5796   -2.3330 H         1 RES1    0.0000
     30 H7         4.5343    4.1383   -3.8807 H         1 RES1    0.0000
     31 C9         4.4881    2.6749    1.8168 C.2       1 RES1    0.0000
     32 C10        3.1185    3.7714    3.3930 C.3       1 RES1    0.0000
     33 H8         3.2999    4.1459    4.2578 H         1 RES1    0.0000
     34 H9         2.2524    3.3566    3.3991 H         1 RES1    0.0000
     35 H10        3.1344    4.4676    2.7330 H         1 RES1    0.0000
     36 C11        6.1312    1.1036    4.1664 C.ar      1 RES1    0.0000
     37 C12        6.5300    2.2679    4.7871 C.ar      1 RES1    0.0000
     38 H11        6.7520    3.0181    4.2839 H         1 RES1    0.0000
     39 C13        6.5949    2.3036    6.1644 C.ar      1 RES1    0.0000
     40 C14        6.2827    1.2196    6.9674 C.ar      1 RES1    0.0000
     41 C15        5.8170    0.0646    6.3278 C.ar      1 RES1    0.0000
     42 C16        5.7545    0.0157    4.9566 C.ar      1 RES1    0.0000
     43 H12        5.4528   -0.7619    4.5435 H         1 RES1    0.0000
     44 C17        7.3744    0.4833    8.8960 C.3       1 RES1    0.0000
     45 H13        7.1611    0.3048    9.8135 H         1 RES1    0.0000
     46 H14        8.2152    0.9437    8.8454 H         1 RES1    0.0000
     47 H15        7.4335   -0.3444    8.4128 H         1 RES1    0.0000
     48 C18        4.9813   -2.1480    6.5821 C.3       1 RES1    0.0000
     49 H16        4.7652   -2.7750    7.2765 H         1 RES1    0.0000
     50 H17        5.6642   -2.5184    6.0194 H         1 RES1    0.0000
     51 H18        4.1965   -1.9690    6.0586 H         1 RES1    0.0000
     52 C19        7.7819   -1.0326    2.8373 C.ar      1 RES1    0.0000
     53 C20        7.4418   -2.3668    2.9375 C.ar      1 RES1    0.0000
     54 H19        6.7559   -2.7174    2.4162 H         1 RES1    0.0000
     55 C21        8.1303   -3.1753    3.8183 C.ar      1 RES1    0.0000
     56 C22        9.1928   -2.7191    4.5829 C.ar      1 RES1    0.0000
     57 C23        9.5590   -1.3804    4.4335 C.ar      1 RES1    0.0000
     58 C24        8.8492   -0.5523    3.5881 C.ar      1 RES1    0.0000
     59 H20        9.0898    0.3434    3.5199 H         1 RES1    0.0000
     60 C25        9.8017   -3.3326    6.7696 C.3       1 RES1    0.0000
     61 H21       10.4591   -3.8573    7.2340 H         1 RES1    0.0000
     62 H22        8.9244   -3.5852    7.0642 H         1 RES1    0.0000
     63 H23        9.9463   -2.4021    6.9549 H         1 RES1    0.0000
     64 C26       10.9954    0.3780    5.1358 C.3       1 RES1    0.0000
     65 H24       11.2229    0.6341    4.2399 H         1 RES1    0.0000
     66 H25       11.7482    0.5253    5.7125 H         1 RES1    0.0000
     67 H26       10.2511    0.9026    5.4398 H         1 RES1    0.0000
     68 C27        7.2925   -0.8021   -0.3814 C.2       1 RES1    0.0000
     69 C28        8.6853   -2.6644   -0.7908 C.3       1 RES1    0.0000
     70 H27        9.2892   -3.2414   -0.3184 H         1 RES1    0.0000
     71 H28        9.1426   -2.2616   -1.5330 H         1 RES1    0.0000
     72 H29        7.9403   -3.1763   -1.1151 H         1 RES1    0.0000
@<TRIPOS>BOND
     1    1   31 2
     2    2   31 1
     3    3   14 2
     4    4   14 2
     5    5   40 1
     6    6   41 1
     7    7   15 2
     8    8   15 2
     9    9   56 1
    10   10   57 1
    11   11   68 2
    12   12   68 1
    13   13   16 1
    14   14   39 1
    15   15   55 1
    16   16   17 2
    17   17   18 1
    18   18   19 2
    19   19   13 1
    20   20   13 1
    21   21   20 1
    22   22   20 1
    23   23   20 1
    24   24   23 1
    25   25   23 1
    26   26   23 1
    27   27   26 1
    28   28   26 2
    29   29   28 1
    30   30   28 1
    31   31   16 1
    32   32    2 1
    33   33   32 1
    34   34   32 1
    35   35   32 1
    36   36   17 1
    37   37   36 ar
    38   38   37 1
    39   39   37 ar
    40   40   39 ar
    41   41   40 ar
    42   42   36 ar
    43   43   42 1
    44   44    5 1
    45   45   44 1
    46   46   44 1
    47   47   44 1
    48   48    6 1
    49   49   48 1
    50   50   48 1
    51   51   48 1
    52   52   18 1
    53   53   52 ar
    54   54   53 1
    55   55   53 ar
    56   56   55 ar
    57   57   56 ar
    58   58   52 ar
    59   59   58 1
    60   60    9 1
    61   61   60 1
    62   62   60 1
    63   63   60 1
    64   64   10 1
    65   65   64 1
    66   66   64 1
    67   67   64 1
    68   68   19 1
    69   69   12 1
    70   70   69 1
    71   71   69 1
    72   72   69 1
    73   41   42 ar
    74   57   58 ar
@<TRIPOS>SUBSTRUCTURE
     1 RES1 1

@<TRIPOS>CRYSIN
   8.9660   10.1441   16.7100  77.7230  87.1330  80.4210   2 1

