# MOL2 file generated by ConQuest
# Please check atom types

@<TRIPOS>MOLECULE
NAWKON
    27    28     1
SMALL
NO_CHARGES
****
Generated from CSD

@<TRIPOS>ATOM
      1 C1         0.8741    3.4586   17.7481 C.3       1 RES1    0.0000
      2 H1         1.2694    2.7965   18.3199 H         1 RES1    0.0000
      3 H2        -0.0450    3.5862   17.9947 H         1 RES1    0.0000
      4 H3         1.3492    4.2878   17.8434 H         1 RES1    0.0000
      5 C2         0.9499    3.0049   16.3417 C.3       1 RES1    0.0000
      6 H4         0.4924    2.1557   16.2412 H         1 RES1    0.0000
      7 H5         0.5234    3.6530   15.7601 H         1 RES1    0.0000
      8 C3         2.6001    2.4244   14.7620 C.2       1 RES1    0.0000
      9 C4         4.0520    2.4521   14.4511 C.ar      1 RES1    0.0000
     10 C5         4.5896    1.8940   13.2515 C.ar      1 RES1    0.0000
     11 C6         5.9738    2.0363   12.9969 C.ar      1 RES1    0.0000
     12 C7         4.9171    3.0844   15.3129 C.ar      1 RES1    0.0000
     13 H6         4.5831    3.4415   16.1035 H         1 RES1    0.0000
     14 C8         6.2688    3.2067   15.0407 C.ar      1 RES1    0.0000
     15 H7         6.8212    3.6359   15.6527 H         1 RES1    0.0000
     16 C9         6.5703    1.5275   11.8375 C.ar      1 RES1    0.0000
     17 H8         7.4829    1.6339   11.6949 H         1 RES1    0.0000
     18 C10        5.8039    0.8752   10.9204 C.ar      1 RES1    0.0000
     19 H9         6.1917    0.5401   10.1441 H         1 RES1    0.0000
     20 C11        4.4321    0.7081   11.1451 C.ar      1 RES1    0.0000
     21 H10        3.9163    0.2597   10.5148 H         1 RES1    0.0000
     22 C12        3.8418    1.1916   12.2727 C.ar      1 RES1    0.0000
     23 H11        2.9311    1.0591   12.4029 H         1 RES1    0.0000
     24 N1         6.7918    2.7175   13.9125 N.pl3     1 RES1    0.0000
     25 O1         2.3394    2.8614   15.9861 O.3       1 RES1    0.0000
     26 O2         1.7310    2.0831   14.0172 O.2       1 RES1    0.0000
     27 O3         8.0383    2.8658   13.6458 O.2       1 RES1    0.0000
@<TRIPOS>BOND
     1    1    2 1
     2    3    1 1
     3    4    1 1
     4    5    1 1
     5    6    5 1
     6    7    5 1
     7    8    9 1
     8    9   10 ar
     9   10   11 ar
    10   11   16 ar
    11   12    9 ar
    12   13   12 1
    13   14   12 ar
    14   15   14 1
    15   16   17 1
    16   18   16 ar
    17   19   18 1
    18   20   18 ar
    19   21   20 1
    20   22   10 ar
    21   23   22 1
    22   24   11 ar
    23   25    5 1
    24   26    8 2
    25   27   24 1
    26    8   25 1
    27   14   24 ar
    28   20   22 ar
@<TRIPOS>SUBSTRUCTURE
     1 RES1 1

@<TRIPOS>CRYSIN
  16.8651    4.0766   15.1319  90.0000  91.0830  90.0000  14 1

