# MOL2 file generated by ConQuest
# Please check atom types

@<TRIPOS>MOLECULE
NAWKUT
    51    54     1
SMALL
NO_CHARGES
****
Generated from CSD

@<TRIPOS>ATOM
      1 O1         3.4550    6.6746    1.6017 O.3       1 RES1    0.0000
      2 O2         5.4599    3.3695   -0.8807 O.2       1 RES1    0.0000
      3 N1         2.3233    6.0827    0.9046 N.3       1 RES1    0.0000
      4 O3         6.0235    5.5219   -0.6916 O.3       1 RES1    0.0000
      5 C1        -1.1185    6.9688    3.1276 C.ar      1 RES1    0.0000
      6 H1        -1.8745    7.1668    3.6315 H         1 RES1    0.0000
      7 C2        -1.1436    7.0997    1.7731 C.ar      1 RES1    0.0000
      8 H2        -1.9290    7.3658    1.3519 H         1 RES1    0.0000
      9 C3        -0.0077    6.8403    1.0110 C.ar      1 RES1    0.0000
     10 H3        -0.0307    6.9457    0.0884 H         1 RES1    0.0000
     11 C4         1.1566    6.4252    1.6340 C.ar      1 RES1    0.0000
     12 C5         4.6146    5.8871    1.2788 C.3       1 RES1    0.0000
     13 H4         5.3976    6.3758    1.6081 H         1 RES1    0.0000
     14 C6         4.7295    5.8223   -0.2171 C.2       1 RES1    0.0000
     15 C7         6.2563    4.2435   -1.0687 C.2       1 RES1    0.0000
     16 C8         7.5553    4.0708   -1.7590 C.ar      1 RES1    0.0000
     17 C9         7.8308    2.8297   -2.3094 C.ar      1 RES1    0.0000
     18 H5         7.2382    2.1235   -2.1824 H         1 RES1    0.0000
     19 C10        8.9769    2.6421   -3.0413 C.ar      1 RES1    0.0000
     20 H6         9.1568    1.8092   -3.4150 H         1 RES1    0.0000
     21 C11        9.8568    3.6761   -3.2209 C.ar      1 RES1    0.0000
     22 H7        10.6265    3.5441   -3.7243 H         1 RES1    0.0000
     23 N2         4.6392    4.6063    1.8800 N.pl3     1 RES1    0.0000
     24 H8         4.6080    3.9108    1.3762 H         1 RES1    0.0000
     25 C12        4.7106    4.4309    3.2613 C.ar      1 RES1    0.0000
     26 C13        4.6165    3.1481    3.7837 C.ar      1 RES1    0.0000
     27 H9         4.4762    2.4294    3.2096 H         1 RES1    0.0000
     28 C14        4.7266    2.9208    5.1358 C.ar      1 RES1    0.0000
     29 H10        4.6487    2.0554    5.4649 H         1 RES1    0.0000
     30 C15        4.9507    3.9621    6.0035 C.ar      1 RES1    0.0000
     31 H11        5.0520    3.8018    6.9140 H         1 RES1    0.0000
     32 C16        5.0237    5.2297    5.5159 C.ar      1 RES1    0.0000
     33 H12        5.1680    5.9369    6.1011 H         1 RES1    0.0000
     34 C17        4.8865    5.4853    4.1504 C.ar      1 RES1    0.0000
     35 H13        4.9118    6.3601    3.8369 H         1 RES1    0.0000
     36 C18        9.6092    4.9008   -2.6638 C.ar      1 RES1    0.0000
     37 H14       10.2170    5.5953   -2.7766 H         1 RES1    0.0000
     38 C19        8.4505    5.1092   -1.9293 C.ar      1 RES1    0.0000
     39 H15        8.2781    5.9421   -1.5529 H         1 RES1    0.0000
     40 C20        3.7584    6.1470   -1.0415 C.2       1 RES1    0.0000
     41 C21        3.8902    6.1814   -2.5361 C.3       1 RES1    0.0000
     42 H16        4.8199    6.1935   -2.7744 H         1 RES1    0.0000
     43 H17        3.4606    6.9698   -2.8760 H         1 RES1    0.0000
     44 H18        3.4735    5.4026   -2.9114 H         1 RES1    0.0000
     45 C22        2.4171    6.5116   -0.4762 C.3       1 RES1    0.0000
     46 H19        2.2910    7.4716   -0.5279 H         1 RES1    0.0000
     47 H20        1.7176    6.0867   -0.9984 H         1 RES1    0.0000
     48 C23        1.1629    6.2648    3.0055 C.ar      1 RES1    0.0000
     49 H21        1.9322    5.9683    3.4349 H         1 RES1    0.0000
     50 C24        0.0312    6.5445    3.7404 C.ar      1 RES1    0.0000
     51 H22        0.0483    6.4429    4.6653 H         1 RES1    0.0000
@<TRIPOS>BOND
     1    1    3 1
     2    2   15 2
     3    3   11 1
     4    4   14 1
     5    5    6 1
     6    7    5 ar
     7    8    7 1
     8    9    7 ar
     9   10    9 1
    10   11    9 ar
    11   12    1 1
    12   13   12 1
    13   14   12 1
    14   15    4 1
    15   16   15 1
    16   17   16 ar
    17   18   17 1
    18   19   17 ar
    19   20   19 1
    20   21   19 ar
    21   22   21 1
    22   23   12 1
    23   24   23 1
    24   25   23 1
    25   26   25 ar
    26   27   26 1
    27   28   26 ar
    28   29   28 1
    29   30   28 ar
    30   31   30 1
    31   32   30 ar
    32   33   32 1
    33   34   25 ar
    34   35   34 1
    35   36   21 ar
    36   37   36 1
    37   38   16 ar
    38   39   38 1
    39   40   14 2
    40   41   40 1
    41   42   41 1
    42   43   41 1
    43   44   41 1
    44   45    3 1
    45   46   45 1
    46   47   45 1
    47   48   11 ar
    48   49   48 1
    49   50    5 ar
    50   51   50 1
    51   32   34 ar
    52   36   38 ar
    53   40   45 1
    54   48   50 ar
@<TRIPOS>SUBSTRUCTURE
     1 RES1 1

@<TRIPOS>CRYSIN
  18.1039   10.4762   22.3799  90.0000  99.2420  90.0000  15 1

