# MOL2 file generated by ConQuest
# Please check atom types

@<TRIPOS>MOLECULE
NAWTUC
    90    93     1
SMALL
NO_CHARGES
****
Generated from CSD

@<TRIPOS>ATOM
      1 O1        10.4432   -0.7609   15.5992 O.3       1 RES1    0.0000
      2 O2         5.5443    1.7424   12.6736 O.2       1 RES1    0.0000
      3 N1         8.5925    0.8679   18.9138 N.3       1 RES1    0.0000
      4 O3         9.6461    1.8341   15.5254 O.2       1 RES1    0.0000
      5 O4         5.3178   -0.8853   12.0167 O.3       1 RES1    0.0000
      6 O5         4.9572   -0.9100   18.6115 O.3       1 RES1    0.0000
      7 N2         6.1568   -0.1966   18.6735 N.am      1 RES1    0.0000
      8 H1         6.8636   -0.6486   18.9353 H         1 RES1    0.0000
      9 N3         9.0128    0.2521   17.7037 N.am      1 RES1    0.0000
     10 H2         9.3033    0.7489   17.0600 H         1 RES1    0.0000
     11 O6         8.4951   -1.8494   18.4008 O.2       1 RES1    0.0000
     12 N4         3.1751    0.5242   15.1795 N.3       1 RES1    0.0000
     13 N5         9.0872    0.8191   12.0863 N.3       1 RES1    0.0000
     14 N6         3.8583   -0.0394   16.2819 N.am      1 RES1    0.0000
     15 H3         4.0342    0.4614   16.9673 H         1 RES1    0.0000
     16 C1         8.9680   -1.0758   17.5694 C.2       1 RES1    0.0000
     17 N7         4.7547   -0.3357   13.1773 N.am      1 RES1    0.0000
     18 H4         4.2771   -0.9093   13.7980 H         1 RES1    0.0000
     19 N8         9.9060   -0.1524   14.4589 N.am      1 RES1    0.0000
     20 H5         9.9091   -0.7355   13.6759 H         1 RES1    0.0000
     21 C2         4.8413    0.9755   13.3636 C.2       1 RES1    0.0000
     22 C3         6.1547    1.1066   18.4276 C.2       1 RES1    0.0000
     23 O7         5.1633    1.7451   18.0521 O.2       1 RES1    0.0000
     24 C4         9.5058    1.9918   20.9352 C.ar      1 RES1    0.0000
     25 N9         7.8242    0.1805   12.2121 N.am      1 RES1    0.0000
     26 H6         7.0149    0.6887   12.1278 H         1 RES1    0.0000
     27 C5         9.2870    1.7866   13.1658 C.3       1 RES1    0.0000
     28 H7         8.4606    2.3235   13.2705 H         1 RES1    0.0000
     29 H8        10.0190    2.4044   12.9092 H         1 RES1    0.0000
     30 C6         9.6299    1.1514   14.5012 C.2       1 RES1    0.0000
     31 C7         7.4826    1.7986   18.6403 C.3       1 RES1    0.0000
     32 H9         7.7029    2.3288   17.8316 H         1 RES1    0.0000
     33 H10        7.3992    2.4278   19.3992 H         1 RES1    0.0000
     34 O8         8.7593   -1.8768   12.4460 O.2       1 RES1    0.0000
     35 O9         4.1273   -2.0768   15.3069 O.2       1 RES1    0.0000
     36 C8        10.5696    1.7732   10.3254 C.ar      1 RES1    0.0000
     37 C9         6.3938   -1.7759   12.3317 C.3       1 RES1    0.0000
     38 H11        6.3848   -2.5201   11.6786 H         1 RES1    0.0000
     39 H12        6.2258   -2.1637   13.2266 H         1 RES1    0.0000
     40 C10        4.2699   -1.3152   16.2465 C.2       1 RES1    0.0000
     41 C11        7.7811   -1.1520   12.3303 C.2       1 RES1    0.0000
     42 C12        4.0144    1.5305   14.5002 C.3       1 RES1    0.0000
     43 H13        4.6213    1.9390   15.1653 H         1 RES1    0.0000
     44 H14        3.4286    2.2466   14.1471 H         1 RES1    0.0000
     45 C13        9.5125   -1.6167   16.2694 C.3       1 RES1    0.0000
     46 H15        9.9587   -2.4826   16.4496 H         1 RES1    0.0000
     47 H16        8.7542   -1.7933   15.6585 H         1 RES1    0.0000
     48 C14        9.7564    1.5820   19.4983 C.3       1 RES1    0.0000
     49 H17        9.9475    2.3890   18.9572 H         1 RES1    0.0000
     50 H18       10.5516    0.9936   19.4602 H         1 RES1    0.0000
     51 C15        9.7026    3.2917   21.3508 C.ar      1 RES1    0.0000
     52 H19        9.9242    3.9616   20.7152 H         1 RES1    0.0000
     53 C16        9.1418    1.5011   10.7627 C.3       1 RES1    0.0000
     54 H20        8.6486    2.3583   10.8167 H         1 RES1    0.0000
     55 H21        8.6960    0.9347   10.0842 H         1 RES1    0.0000
     56 C17        0.9029    0.0856   16.1295 C.ar      1 RES1    0.0000
     57 C18        4.9521   -1.8093   17.5003 C.3       1 RES1    0.0000
     58 H22        4.5091   -2.6484   17.7828 H         1 RES1    0.0000
     59 H23        5.8915   -2.0300   17.2749 H         1 RES1    0.0000
     60 C19        1.9105    1.1066   15.6407 C.3       1 RES1    0.0000
     61 H24        1.5086    1.6208   14.8967 H         1 RES1    0.0000
     62 H25        2.0998    1.7411   16.3764 H         1 RES1    0.0000
     63 C20        9.5825    3.6287   22.6889 C.ar      1 RES1    0.0000
     64 H26        9.7301    4.5246   22.9665 H         1 RES1    0.0000
     65 C21        9.1763    1.0143   21.8655 C.ar      1 RES1    0.0000
     66 H27        9.0451    0.1143   21.5918 H         1 RES1    0.0000
     67 C22       11.4536    0.7201   10.2409 C.ar      1 RES1    0.0000
     68 H28       11.1860   -0.1471   10.5237 H         1 RES1    0.0000
     69 C23        9.2500    2.6685   23.6130 C.ar      1 RES1    0.0000
     70 H29        9.1661    2.9039   24.5291 H         1 RES1    0.0000
     71 C24        0.9474   -1.2550   15.7357 C.ar      1 RES1    0.0000
     72 H30        1.6621   -1.5659   15.1897 H         1 RES1    0.0000
     73 C25       -0.1358    0.4894   16.9480 C.ar      1 RES1    0.0000
     74 H31       -0.1807    1.3861   17.2603 H         1 RES1    0.0000
     75 C26       10.9571    3.0229    9.9313 C.ar      1 RES1    0.0000
     76 H32       10.3528    3.7510    9.9987 H         1 RES1    0.0000
     77 C27       -1.0844   -1.7364   16.9074 C.ar      1 RES1    0.0000
     78 H33       -1.7644   -2.3502   17.1553 H         1 RES1    0.0000
     79 C28       -0.0429   -2.1249   16.1381 C.ar      1 RES1    0.0000
     80 H34        0.0091   -3.0329   15.8636 H         1 RES1    0.0000
     81 C29       12.7392    0.9267    9.7416 C.ar      1 RES1    0.0000
     82 H35       13.3497    0.2026    9.6862 H         1 RES1    0.0000
     83 C30        9.0402    1.3720   23.2189 C.ar      1 RES1    0.0000
     84 H36        8.8011    0.7141   23.8626 H         1 RES1    0.0000
     85 C31       13.1164    2.1784    9.3328 C.ar      1 RES1    0.0000
     86 H37       13.9900    2.3208    8.9805 H         1 RES1    0.0000
     87 C32       12.2357    3.2295    9.4308 C.ar      1 RES1    0.0000
     88 H38       12.5020    4.0987    9.1563 H         1 RES1    0.0000
     89 C33       -1.1263   -0.4333   17.3164 C.ar      1 RES1    0.0000
     90 H39       -1.8468   -0.1438   17.8658 H         1 RES1    0.0000
@<TRIPOS>BOND
     1    1   19 1
     2    2   21 2
     3    3    9 1
     4    4   30 2
     5    5   17 1
     6    6    7 1
     7    7    8 1
     8    9   10 1
     9   11   16 2
    10   12   14 1
    11   13   25 1
    12   14   15 1
    13   16    9 1
    14   17   18 1
    15   19   20 1
    16   21   17 1
    17   22    7 1
    18   23   22 2
    19   24   48 1
    20   25   26 1
    21   27   13 1
    22   28   27 1
    23   29   27 1
    24   30   19 1
    25   31    3 1
    26   32   31 1
    27   33   31 1
    28   34   41 2
    29   35   40 2
    30   36   53 1
    31   37    5 1
    32   38   37 1
    33   39   37 1
    34   40   14 1
    35   41   25 1
    36   42   12 1
    37   43   42 1
    38   44   42 1
    39   45    1 1
    40   46   45 1
    41   47   45 1
    42   48    3 1
    43   49   48 1
    44   50   48 1
    45   51   24 ar
    46   52   51 1
    47   53   13 1
    48   54   53 1
    49   55   53 1
    50   56   60 1
    51   57    6 1
    52   58   57 1
    53   59   57 1
    54   60   12 1
    55   61   60 1
    56   62   60 1
    57   63   51 ar
    58   64   63 1
    59   65   24 ar
    60   66   65 1
    61   67   36 ar
    62   68   67 1
    63   69   63 ar
    64   70   69 1
    65   71   56 ar
    66   72   71 1
    67   73   56 ar
    68   74   73 1
    69   75   36 ar
    70   76   75 1
    71   77   78 1
    72   79   71 ar
    73   80   79 1
    74   81   67 ar
    75   82   81 1
    76   83   65 ar
    77   84   83 1
    78   85   81 ar
    79   86   85 1
    80   87   75 ar
    81   88   87 1
    82   89   73 ar
    83   90   89 1
    84   16   45 1
    85   21   42 1
    86   22   31 1
    87   27   30 1
    88   37   41 1
    89   40   57 1
    90   69   83 ar
    91   77   79 ar
    92   77   89 ar
    93   85   87 ar
@<TRIPOS>SUBSTRUCTURE
     1 RES1 1

@<TRIPOS>CRYSIN
  43.1240    6.6863   28.0461  90.0000 119.4720  90.0000  15 1

