# MOL2 file generated by ConQuest
# Please check atom types

@<TRIPOS>MOLECULE
NAXFOI
    49    46     3
SMALL
NO_CHARGES
****
Generated from CSD

@<TRIPOS>ATOM
      1 O1         5.7940    9.9767   14.6017 O.2       1 RES1    0.0000
      2 O2         5.8147   15.6860    8.4772 O.2       2 RES2    0.0000
      3 O3         8.6499    9.3111   11.9533 O.2       1 RES1    0.0000
      4 O4         2.9120   16.9083   10.8144 O.2       2 RES2    0.0000
      5 O5         8.7385   11.3903   11.3259 O.2       1 RES1    0.0000
      6 O6         2.1527   14.9102   11.1848 O.2       2 RES2    0.0000
      7 O7         6.8642   14.7960   14.3534 O.2       1 RES1    0.0000
      8 O8         6.4009   11.4479    9.5323 O.2       2 RES2    0.0000
      9 O9         5.2467   16.0617   13.4210 O.3       1 RES1    0.0000
     10 O10        5.1584    9.6977    8.8531 O.3       2 RES2    0.0000
     11 N1         8.2366   10.4796   12.0064 N.pl3     1 RES1    0.0000
     12 N2         2.9504   15.6777   10.6371 N.pl3     2 RES2    0.0000
     13 N3         5.5844   12.4708   13.5080 N.3       1 RES1    0.0000
     14 N4         4.5725   13.2241    8.5187 N.3       2 RES2    0.0000
     15 C1         6.7302    9.7854   13.8204 C.2       1 RES1    0.0000
     16 H1         7.1822    8.9495   13.8393 H         1 RES1    0.0000
     17 C2         4.9851   16.0210    9.3296 C.2       2 RES2    0.0000
     18 H2         5.0521   16.8835    9.7230 H         2 RES2    0.0000
     19 C3         7.1543   10.7805   12.8893 C.2       1 RES1    0.0000
     20 C4         3.9326   15.1595    9.7394 C.2       2 RES2    0.0000
     21 C5         6.5735   12.0338   12.7655 C.2       1 RES1    0.0000
     22 H3         6.9156   12.6157   12.0967 H         1 RES1    0.0000
     23 C6         3.7787   13.8341    9.3509 C.2       2 RES2    0.0000
     24 H4         3.0504   13.3435    9.7139 H         2 RES2    0.0000
     25 C7         4.9600   13.7600   13.2919 C.3       1 RES1    0.0000
     26 H5         4.0967   13.7866   13.7759 H         1 RES1    0.0000
     27 H6         4.7697   13.8698   12.3262 H         1 RES1    0.0000
     28 C8         4.4271   11.8134    8.2044 C.3       2 RES2    0.0000
     29 H7         4.5475   11.6771    7.2315 H         2 RES2    0.0000
     30 H8         3.5149   11.5128    8.4455 H         2 RES2    0.0000
     31 C9         5.8231   14.9108   13.7586 C.2       1 RES1    0.0000
     32 C10        5.4452   10.9907    8.9588 C.2       2 RES2    0.0000
     33 C11        6.0045   17.2680   13.7358 C.3       1 RES1    0.0000
     34 H9         6.9020   17.2295   13.3198 H         1 RES1    0.0000
     35 H10        6.1151   17.3594   14.7151 H         1 RES1    0.0000
     36 C12        6.0536    8.7929    9.5712 C.3       2 RES2    0.0000
     37 H11        6.1101    9.0505   10.5248 H         2 RES2    0.0000
     38 H12        6.9627    8.8268    9.1809 H         2 RES2    0.0000
     39 C13        5.2189   18.4335   13.1845 C.3       1 RES1    0.0000
     40 H13        5.1262   18.3344   12.2145 H         1 RES1    0.0000
     41 H14        5.6909   19.2691   13.3848 H         1 RES1    0.0000
     42 H15        4.3304   18.4531   13.5977 H         1 RES1    0.0000
     43 C14        5.4773    7.4161    9.4353 C.3       2 RES2    0.0000
     44 H16        4.6017    7.3833    9.8740 H         2 RES2    0.0000
     45 H17        6.0781    6.7674    9.8574 H         2 RES2    0.0000
     46 H18        5.3754    7.1976    8.4863 H         2 RES2    0.0000
     47 O11        4.9287   17.1349    9.5886 Du        3 SUP3    0.0000
     48 H19        5.2745   11.9499   14.1201 H         1 RES1    0.0000
     49 H20        5.3070   13.7139    8.1692 H         2 RES2    0.0000
@<TRIPOS>BOND
     1    1   15 2
     2    2   17 2
     3    3   11 2
     4    4   12 2
     5    5   11 2
     6    6   12 2
     7    7   31 2
     8    8   32 2
     9    9   31 1
    10   10   32 1
    11   11   19 1
    12   12   20 1
    13   13   21 1
    14   14   23 1
    15   15   16 1
    16   17   18 1
    17   19   15 1
    18   20   17 1
    19   21   19 2
    20   22   21 1
    21   23   20 2
    22   24   23 1
    23   25   13 1
    24   26   25 1
    25   27   25 1
    26   28   14 1
    27   29   28 1
    28   30   28 1
    29   31   25 1
    30   32   28 1
    31   33    9 1
    32   34   33 1
    33   35   33 1
    34   36   10 1
    35   37   36 1
    36   38   36 1
    37   39   33 1
    38   40   39 1
    39   41   39 1
    40   42   39 1
    41   43   36 1
    42   44   43 1
    43   45   43 1
    44   46   43 1
    45   48   13 1
    46   49   14 1
@<TRIPOS>SUBSTRUCTURE
     1 RES1 1
     2 RES2 2
     3 SUP3 47

@<TRIPOS>CRYSIN
   4.9400   12.1418   16.0070  72.0350  82.5340  88.5810   2 1

