# MOL2 file generated by ConQuest
# Please check atom types

@<TRIPOS>MOLECULE
NAXJON
    40    42     1
SMALL
NO_CHARGES
****
Generated from CSD

@<TRIPOS>ATOM
      1 O1         2.7543    4.3811    1.2970 O.3       1 RES1    0.0000
      2 O2        -1.2830    0.7190    0.8751 O.2       1 RES1    0.0000
      3 N1         0.7471    1.6565    0.5761 N.am      1 RES1    0.0000
      4 N2         1.5584    3.6887    1.4220 N.2       1 RES1    0.0000
      5 N3        -0.8999    2.7306    1.8075 N.am      1 RES1    0.0000
      6 N4         3.6259    3.7000    0.5001 N.2       1 RES1    0.0000
      7 C1        -2.4600    2.8556    3.7254 C.ar      1 RES1    0.0000
      8 C2        -0.5327    1.6697    1.0928 C.2       1 RES1    0.0000
      9 C3         3.6245    1.6370   -0.7605 C.2       1 RES1    0.0000
     10 C4         4.9930   -0.2449   -2.6701 C.ar      1 RES1    0.0000
     11 C5         5.5652    0.8941   -2.1429 C.ar      1 RES1    0.0000
     12 C6         4.8538    1.7883   -1.2366 C.2       1 RES1    0.0000
     13 C7         1.7102    2.6109    0.7167 C.2       1 RES1    0.0000
     14 C8         3.0150    2.6129    0.1188 C.2       1 RES1    0.0000
     15 C9        -2.2648    2.9588    2.2377 C.3       1 RES1    0.0000
     16 C10        5.7083   -1.0593   -3.5254 C.ar      1 RES1    0.0000
     17 C11        6.9965   -0.7454   -3.8671 C.ar      1 RES1    0.0000
     18 C12        6.8675    1.2035   -2.5034 C.ar      1 RES1    0.0000
     19 C13       -1.9426    1.8177    4.4400 C.ar      1 RES1    0.0000
     20 C14       -3.2178    3.7800    4.3984 C.ar      1 RES1    0.0000
     21 C15        7.5761    0.3848   -3.3597 C.ar      1 RES1    0.0000
     22 C16       -2.9300    2.6088    6.4486 C.ar      1 RES1    0.0000
     23 C17       -2.1775    1.6913    5.7756 C.ar      1 RES1    0.0000
     24 C18       -3.4522    3.6496    5.7506 C.ar      1 RES1    0.0000
     25 H1         3.0335    0.8424   -0.9480 H         1 RES1    0.0000
     26 H2        -2.8747    2.2203    1.7293 H         1 RES1    0.0000
     27 H3         5.3762    2.5772   -0.8959 H         1 RES1    0.0000
     28 H4        -1.4574    1.2006    3.9587 H         1 RES1    0.0000
     29 H5         8.5235    0.5926   -3.6045 H         1 RES1    0.0000
     30 H6         7.3121    2.0149   -2.1356 H         1 RES1    0.0000
     31 H7         0.9649    0.9265    0.0729 H         1 RES1    0.0000
     32 H8         4.1043   -0.4934   -2.4065 H         1 RES1    0.0000
     33 H9         5.3119   -1.8387   -3.8441 H         1 RES1    0.0000
     34 H10       -1.8421    0.9627    6.1777 H         1 RES1    0.0000
     35 H11       -4.0263    4.2203    6.1465 H         1 RES1    0.0000
     36 H12       -2.4585    3.8512    2.0106 H         1 RES1    0.0000
     37 H13       -3.5109    4.4936    3.9066 H         1 RES1    0.0000
     38 H14        7.4571   -1.3208   -4.4692 H         1 RES1    0.0000
     39 H15       -3.1950    2.4708    7.4383 H         1 RES1    0.0000
     40 H16       -0.2771    3.3174    1.8856 H         1 RES1    0.0000
@<TRIPOS>BOND
     1    1    4 1
     2    2    8 2
     3    3    8 1
     4    4   13 2
     5    5    8 1
     6    6    1 1
     7    7   15 1
     8    9   12 2
     9   10   11 ar
    10   11   12 1
    11   12   27 1
    12   13    3 1
    13   14    6 2
    14   15    5 1
    15   16   10 ar
    16   17   16 ar
    17   18   11 ar
    18   19    7 ar
    19   20    7 ar
    20   21   17 ar
    21   22   23 ar
    22   23   19 ar
    23   24   20 ar
    24   25    9 1
    25   26   15 1
    26   28   19 1
    27   29   21 1
    28   30   18 1
    29   31    3 1
    30   32   10 1
    31   33   16 1
    32   34   23 1
    33   35   24 1
    34   36   15 1
    35   37   20 1
    36   38   17 1
    37   39   22 1
    38   40    5 1
    39    9   14 1
    40   13   14 1
    41   18   21 ar
    42   22   24 ar
@<TRIPOS>SUBSTRUCTURE
     1 RES1 1

@<TRIPOS>CRYSIN
   8.7060    8.9290   11.1990  87.0300  68.5700  76.5400   2 1

