# MOL2 file generated by ConQuest
# Please check atom types

@<TRIPOS>MOLECULE
NAXJAZ
    29    30     1
SMALL
NO_CHARGES
****
Generated from CSD

@<TRIPOS>ATOM
      1 H1        10.9372    2.7445    6.0940 H         1 RES1    0.0000
      2 H2         9.0605    3.8533    6.5429 H         1 RES1    0.0000
      3 H3         8.6784    1.4071    5.0313 H         1 RES1    0.0000
      4 H4        15.3272    0.0945    7.6811 H         1 RES1    0.0000
      5 H5         9.1237    3.3014    8.1142 H         1 RES1    0.0000
      6 H6        15.8753   -0.3679    6.3799 H         1 RES1    0.0000
      7 H7         5.1391   -0.1641    6.0677 H         1 RES1    0.0000
      8 H8        14.5835   -0.9646    6.9060 H         1 RES1    0.0000
      9 H9         5.1760    1.2281    8.0002 H         1 RES1    0.0000
     10 H10        6.9423    2.4611    8.4124 H         1 RES1    0.0000
     11 H11        6.9245    0.0149    4.5315 H         1 RES1    0.0000
     12 H12       12.4244    0.3630    7.8442 H         1 RES1    0.0000
     13 O1        10.3312    1.0839    8.5484 O.2       1 RES1    0.0000
     14 N1        12.1775    1.0058    7.2541 N.am      1 RES1    0.0000
     15 C1        14.3460    0.8701    6.0531 C.2       1 RES1    0.0000
     16 C2        13.0357    1.4016    6.2725 C.2       1 RES1    0.0000
     17 C3        10.9345    1.5259    7.5781 C.2       1 RES1    0.0000
     18 O2        13.9188    2.3955    4.5995 O.3       1 RES1    0.0000
     19 N2        10.4418    2.5079    6.8093 N.am      1 RES1    0.0000
     20 N3        14.8666    1.4802    5.0395 N.2       1 RES1    0.0000
     21 N4        12.7806    2.3329    5.3953 N.2       1 RES1    0.0000
     22 C4         7.9853    2.1419    6.7893 C.ar      1 RES1    0.0000
     23 C5         9.1380    3.0737    7.1076 C.3       1 RES1    0.0000
     24 C6         7.9649    1.3842    5.6493 C.ar      1 RES1    0.0000
     25 C7        15.0720   -0.1740    6.8113 C.3       1 RES1    0.0000
     26 C8         6.9039    0.5424    5.3592 C.ar      1 RES1    0.0000
     27 C9         5.8458    1.2092    7.3391 C.ar      1 RES1    0.0000
     28 C10        6.9173    2.0544    7.6372 C.ar      1 RES1    0.0000
     29 C11        5.8535    0.4589    6.2045 C.ar      1 RES1    0.0000
@<TRIPOS>BOND
     1    1   19 1
     2    2   23 1
     3    3   24 1
     4    4   25 1
     5    5   23 1
     6    6   25 1
     7    7   29 1
     8    8   25 1
     9    9   27 1
    10   10   28 1
    11   11   26 1
    12   12   14 1
    13   13   17 2
    14   14   16 1
    15   15   16 1
    16   16   21 2
    17   17   14 1
    18   18   20 1
    19   19   17 1
    20   20   15 2
    21   21   18 1
    22   22   23 1
    23   23   19 1
    24   24   22 ar
    25   25   15 1
    26   26   24 ar
    27   27   28 ar
    28   28   22 ar
    29   29   26 ar
    30   27   29 ar
@<TRIPOS>SUBSTRUCTURE
     1 RES1 1

@<TRIPOS>CRYSIN
  13.2610    4.9720   17.8400  90.0000 100.5800  90.0000  14 1

