# MOL2 file generated by ConQuest
# Please check atom types

@<TRIPOS>MOLECULE
NAXJED
    28    30     1
SMALL
NO_CHARGES
****
Generated from CSD

@<TRIPOS>ATOM
      1 O1         3.5960    5.0882    2.6978 O.3       1 RES1    0.0000
      2 O2         4.8915    1.0145    6.2945 O.2       1 RES1    0.0000
      3 O3         1.1059    2.1155    4.4203 O.3       1 RES1    0.0000
      4 N1         2.4723    4.7244    3.4224 N.2       1 RES1    0.0000
      5 N2         4.6857    4.2685    3.0191 N.2       1 RES1    0.0000
      6 N3         2.9447    2.1167    5.9025 N.am      1 RES1    0.0000
      7 N4         4.8497    2.4658    4.5918 N.am      1 RES1    0.0000
      8 C1         2.8530    3.7289    4.1527 C.2       1 RES1    0.0000
      9 C2         4.2056    3.4597    3.9124 C.2       1 RES1    0.0000
     10 C3         2.0348    2.9272    5.0968 C.3       1 RES1    0.0000
     11 C4         2.3043    1.4744    7.0691 C.3       1 RES1    0.0000
     12 C5         2.0728    2.4387    8.1828 C.ar      1 RES1    0.0000
     13 C6         3.1066    2.9118    8.9461 C.ar      1 RES1    0.0000
     14 C7         2.8999    3.7763    9.9760 C.ar      1 RES1    0.0000
     15 C8         1.6248    4.2106   10.2615 C.ar      1 RES1    0.0000
     16 C9         0.5905    3.7560    9.5181 C.ar      1 RES1    0.0000
     17 C10        0.7850    2.8729    8.4806 C.ar      1 RES1    0.0000
     18 C11        4.2473    1.8264    5.6358 C.2       1 RES1    0.0000
     19 H1         5.6602    2.3654    4.5041 H         1 RES1    0.0000
     20 H2         1.5670    3.4762    5.7103 H         1 RES1    0.0000
     21 H3         1.5358    1.1022    6.7656 H         1 RES1    0.0000
     22 H4         3.5925    4.1018   10.5631 H         1 RES1    0.0000
     23 H5         1.5216    4.7926   10.9494 H         1 RES1    0.0000
     24 H6         2.8610    0.7563    7.3499 H         1 RES1    0.0000
     25 H7         0.0824    2.5209    7.9906 H         1 RES1    0.0000
     26 H8        -0.2505    4.0880    9.7150 H         1 RES1    0.0000
     27 H9         3.9996    2.6101    8.7539 H         1 RES1    0.0000
     28 H10        1.5226    1.3327    3.7315 H         1 RES1    0.0000
@<TRIPOS>BOND
     1    1    4 1
     2    2   18 2
     3    3   10 1
     4    4    8 2
     5    5    1 1
     6    6   10 1
     7    7    9 1
     8    8    9 1
     9    9    5 2
    10   10    8 1
    11   11    6 1
    12   12   11 1
    13   13   12 ar
    14   14   13 ar
    15   15   14 ar
    16   16   15 ar
    17   17   12 ar
    18   18    6 1
    19   19    7 1
    20   20   10 1
    21   21   11 1
    22   22   14 1
    23   23   15 1
    24   24   11 1
    25   25   17 1
    26   26   16 1
    27   27   13 1
    28   28    3 1
    29    7   18 1
    30   16   17 ar
@<TRIPOS>SUBSTRUCTURE
     1 RES1 1

@<TRIPOS>CRYSIN
   6.5290    8.7970    9.5660  81.3880  84.0460  82.6520   2 1

