# MOL2 file generated by ConQuest
# Please check atom types

@<TRIPOS>MOLECULE
NAXPEJ
    40    42     1
SMALL
NO_CHARGES
****
Generated from CSD

@<TRIPOS>ATOM
      1 N1         6.3983   11.0615    0.4873 N.2       1 RES1    0.0000
      2 N2         5.3567   10.1654    0.6378 N.am      1 RES1    0.0000
      3 C1         3.6627    8.5708   -0.0102 C.ar      1 RES1    0.0000
      4 C2         4.6124    9.6299   -0.3843 C.2       1 RES1    0.0000
      5 N3         4.0358    9.0902    2.2743 N.3       1 RES1    0.0000
      6 O1         4.7065   10.0414   -1.5399 O.2       1 RES1    0.0000
      7 C3         3.3833    8.3372    1.3359 C.ar      1 RES1    0.0000
      8 C4         7.8120   12.5717   -0.6345 C.ar      1 RES1    0.0000
      9 C5         5.3867    9.5368    1.9955 C.3       1 RES1    0.0000
     10 C6         2.9806    7.8630   -0.9953 C.ar      1 RES1    0.0000
     11 H1         3.1651    8.0276   -1.8916 H         1 RES1    0.0000
     12 C7         9.4002   13.9721    0.4396 C.ar      1 RES1    0.0000
     13 C8         8.3691   13.0718    0.5304 C.ar      1 RES1    0.0000
     14 H2         8.0490   12.8022    1.3608 H         1 RES1    0.0000
     15 C9         6.6944   11.6252   -0.6067 C.2       1 RES1    0.0000
     16 H3         6.2110   11.4410   -1.3793 H         1 RES1    0.0000
     17 C10        2.3998    7.3972    1.6659 C.ar      1 RES1    0.0000
     18 H4         2.1842    7.2437    2.5574 H         1 RES1    0.0000
     19 C11        2.0413    6.9281   -0.6562 C.ar      1 RES1    0.0000
     20 H5         1.5987    6.4476   -1.3184 H         1 RES1    0.0000
     21 C12        8.3162   12.9943   -1.8545 C.ar      1 RES1    0.0000
     22 H6         7.9443   12.6676   -2.6421 H         1 RES1    0.0000
     23 C13        5.7646   10.5650    3.0477 C.3       1 RES1    0.0000
     24 H7         5.1257   11.2820    3.0379 H         1 RES1    0.0000
     25 H8         6.6388   10.9127    2.8566 H         1 RES1    0.0000
     26 H9         5.7663   10.1507    3.9142 H         1 RES1    0.0000
     27 O2         9.5650   14.0777    2.7482 O.2       1 RES1    0.0000
     28 C14        1.7554    6.7033    0.6752 C.ar      1 RES1    0.0000
     29 H10        1.1144    6.0696    0.9041 H         1 RES1    0.0000
     30 C15        6.3745    8.3748    1.9722 C.3       1 RES1    0.0000
     31 H11        6.1076    7.7415    1.3025 H         1 RES1    0.0000
     32 H12        6.3847    7.9469    2.8314 H         1 RES1    0.0000
     33 H13        7.2528    8.7052    1.7685 H         1 RES1    0.0000
     34 N4         9.9763   14.4998    1.6861 N.pl3     1 RES1    0.0000
     35 C16        9.9022   14.3977   -0.7679 C.ar      1 RES1    0.0000
     36 H14       10.5955   15.0170   -0.8022 H         1 RES1    0.0000
     37 O3        10.8512   15.3453    1.5899 O.2       1 RES1    0.0000
     38 C17        9.3615   13.8921   -1.9181 C.ar      1 RES1    0.0000
     39 H15        9.6992   14.1535   -2.7441 H         1 RES1    0.0000
     40 H16        3.9251    8.8556    3.0856 H         1 RES1    0.0000
@<TRIPOS>BOND
     1    1    2 1
     2    2    4 1
     3    3    4 1
     4    4    6 2
     5    5    7 1
     6    7    3 ar
     7    8   13 ar
     8    9    2 1
     9   10    3 ar
    10   11   10 1
    11   12   13 ar
    12   13   14 1
    13   15    1 2
    14   16   15 1
    15   17    7 ar
    16   18   17 1
    17   19   10 ar
    18   20   19 1
    19   21    8 ar
    20   22   21 1
    21   23    9 1
    22   24   23 1
    23   25   23 1
    24   26   23 1
    25   27   34 2
    26   28   17 ar
    27   29   28 1
    28   30    9 1
    29   31   30 1
    30   32   30 1
    31   33   30 1
    32   34   12 1
    33   35   12 ar
    34   36   35 1
    35   37   34 2
    36   38   21 ar
    37   39   38 1
    38   40    5 1
    39    5    9 1
    40    8   15 1
    41   19   28 ar
    42   35   38 ar
@<TRIPOS>SUBSTRUCTURE
     1 RES1 1

@<TRIPOS>CRYSIN
  10.0006   12.2298   13.3255  90.0000  96.6020  90.0000  14 1

