# MOL2 file generated by ConQuest
# Please check atom types

@<TRIPOS>MOLECULE
NAYNUX
    30    33     1
SMALL
NO_CHARGES
****
Generated from CSD

@<TRIPOS>ATOM
      1 C1         1.1021    1.6199    3.4725 C.3       1 RES1    0.0000
      2 O1         2.3689    2.1564    3.8219 O.3       1 RES1    0.0000
      3 C2         3.2743    1.7433    2.8096 C.3       1 RES1    0.0000
      4 N1         3.9540    0.5076    3.1580 N.3       1 RES1    0.0000
      5 C3         3.0985   -0.6093    3.4356 C.3       1 RES1    0.0000
      6 O2         2.1657   -0.3686    4.4839 O.3       1 RES1    0.0000
      7 C4         0.9736    0.1043    3.8547 C.3       1 RES1    0.0000
      8 N2         0.8541   -0.7122    2.6549 N.3       1 RES1    0.0000
      9 C5         2.2235   -0.8706    2.1682 C.3       1 RES1    0.0000
     10 N3         2.5242    0.1199    1.1476 N.3       1 RES1    0.0000
     11 C6         2.3877    1.5021    1.5513 C.3       1 RES1    0.0000
     12 N4         1.0221    1.7882    2.0350 N.3       1 RES1    0.0000
     13 N5         5.0297    0.6783    4.0699 N.pl3     1 RES1    0.0000
     14 O3         5.7727    1.6064    3.8394 O.2       1 RES1    0.0000
     15 O4         5.1369   -0.1344    4.9572 O.2       1 RES1    0.0000
     16 N6         0.1044   -1.9127    2.8045 N.pl3     1 RES1    0.0000
     17 O5        -0.8389   -1.8759    3.5453 O.2       1 RES1    0.0000
     18 O6         0.4278   -2.8349    2.0975 O.2       1 RES1    0.0000
     19 N7         2.0320   -0.1807   -0.1414 N.pl3     1 RES1    0.0000
     20 O7         1.8755    0.7475   -0.8955 O.2       1 RES1    0.0000
     21 O8         1.9100   -1.3553   -0.4109 O.2       1 RES1    0.0000
     22 N8         0.5169    3.0753    1.6405 N.pl3     1 RES1    0.0000
     23 O9        -0.1964    3.6473    2.4264 O.2       1 RES1    0.0000
     24 O10        0.7879    3.4242    0.5174 O.2       1 RES1    0.0000
     25 H1         0.4355    2.0864    3.9142 H         1 RES1    0.0000
     26 H2         3.8959    2.3953    2.6129 H         1 RES1    0.0000
     27 H3         3.6304   -1.3769    3.6375 H         1 RES1    0.0000
     28 H4         0.2548    0.0067    4.4265 H         1 RES1    0.0000
     29 H5         2.3706   -1.6596    1.7931 H         1 RES1    0.0000
     30 H6         2.5907    2.0638    0.8505 H         1 RES1    0.0000
@<TRIPOS>BOND
     1    1    2 1
     2    2    3 1
     3    3    4 1
     4    4    5 1
     5    5    6 1
     6    6    7 1
     7    7    1 1
     8    8    7 1
     9    9    5 1
    10   10    9 1
    11   11    3 1
    12   12    1 1
    13   13    4 1
    14   14   13 2
    15   15   13 2
    16   16    8 1
    17   17   16 2
    18   18   16 2
    19   19   10 1
    20   20   19 2
    21   21   19 2
    22   22   12 1
    23   23   22 2
    24   24   22 2
    25   25    1 1
    26   26    3 1
    27   27    5 1
    28   28    7 1
    29   29    9 1
    30   30   11 1
    31    8    9 1
    32   10   11 1
    33   11   12 1
@<TRIPOS>SUBSTRUCTURE
     1 RES1 1

@<TRIPOS>CRYSIN
   7.7530    8.3030   10.8390 102.9300  96.5400 116.2300   2 1

