# MOL2 file generated by ConQuest
# Please check atom types

@<TRIPOS>MOLECULE
NAYPAH
    66    71     1
SMALL
NO_CHARGES
****
Generated from CSD

@<TRIPOS>ATOM
      1 C1         1.1261    7.7759   15.3042 C.3       1 RES1    0.0000
      2 C2         1.8992    6.4437   15.0944 C.3       1 RES1    0.0000
      3 H1         2.2716    6.0965   15.9543 H         1 RES1    0.0000
      4 C3         1.0160    5.4270   14.4276 C.2       1 RES1    0.0000
      5 H2         0.5799    4.7609   14.9460 H         1 RES1    0.0000
      6 C4         0.8467    5.4586   13.1108 C.2       1 RES1    0.0000
      7 H3         0.3187    4.7875   12.6934 H         1 RES1    0.0000
      8 C5         1.4692    6.5284   12.2683 C.3       1 RES1    0.0000
      9 H4         0.7327    7.0201   11.8019 H         1 RES1    0.0000
     10 C6         2.2279    7.5417   13.1498 C.3       1 RES1    0.0000
     11 H5         2.8582    8.0866   12.5952 H         1 RES1    0.0000
     12 C7         1.2412    8.4570   13.9097 C.3       1 RES1    0.0000
     13 H6         0.3531    8.4770   13.4522 H         1 RES1    0.0000
     14 C8         1.7448    9.8823   14.1835 C.3       1 RES1    0.0000
     15 H7         2.2810   10.2195   13.4098 H         1 RES1    0.0000
     16 C9         0.5611   10.8042   14.4525 C.3       1 RES1    0.0000
     17 H8         0.0808   10.9704   13.6035 H         1 RES1    0.0000
     18 H9        -0.0653   10.3541   15.0707 H         1 RES1    0.0000
     19 C10        0.9767   12.1415   15.0546 C.3       1 RES1    0.0000
     20 H10        0.1771   12.7063   15.1954 H         1 RES1    0.0000
     21 H11        1.5838   12.6149   14.4313 H         1 RES1    0.0000
     22 C11        1.6850   11.9073   16.3833 C.3       1 RES1    0.0000
     23 H12        1.0702   11.4538   17.0130 H         1 RES1    0.0000
     24 H13        1.9429   12.7777   16.7795 H         1 RES1    0.0000
     25 C12        2.9296   11.0501   16.1745 C.3       1 RES1    0.0000
     26 H14        3.3275   10.8391   17.0554 H         1 RES1    0.0000
     27 H15        3.5964   11.5700   15.6571 H         1 RES1    0.0000
     28 C13        2.6319    9.7461   15.4345 C.3       1 RES1    0.0000
     29 H16        3.5051    9.3507   15.1477 H         1 RES1    0.0000
     30 C14        1.8937    8.6995   16.2345 C.2       1 RES1    0.0000
     31 C15        2.3281    6.7061   10.0839 C.3       1 RES1    0.0000
     32 H17        2.7116    7.5949   10.2895 H         1 RES1    0.0000
     33 H18        1.4095    6.8374    9.7403 H         1 RES1    0.0000
     34 C16        3.1714    6.0184    9.0355 C.ar      1 RES1    0.0000
     35 C17        4.3462    5.3407    9.3537 C.ar      1 RES1    0.0000
     36 H19        4.6180    5.2676   10.2603 H         1 RES1    0.0000
     37 C18        5.1237    4.7725    8.3523 C.ar      1 RES1    0.0000
     38 H20        5.9118    4.2908    8.5755 H         1 RES1    0.0000
     39 C19        4.7436    4.9104    7.0198 C.ar      1 RES1    0.0000
     40 H21        5.2842    4.5400    6.3334 H         1 RES1    0.0000
     41 C20        3.5820    5.5865    6.6945 C.ar      1 RES1    0.0000
     42 H22        3.3225    5.6746    5.7842 H         1 RES1    0.0000
     43 C21        2.7957    6.1347    7.6988 C.ar      1 RES1    0.0000
     44 H23        1.9944    6.5932    7.4717 H         1 RES1    0.0000
     45 C22        1.5793    7.4121   19.4503 C.ar      1 RES1    0.0000
     46 C23        0.7930    6.5683   20.2890 C.ar      1 RES1    0.0000
     47 C24        1.0879    6.4021   21.6432 C.ar      1 RES1    0.0000
     48 H24        0.5462    5.8473   22.1922 H         1 RES1    0.0000
     49 C25        2.1753    7.0550   22.1675 C.ar      1 RES1    0.0000
     50 C26        2.9888    7.8673   21.3798 C.ar      1 RES1    0.0000
     51 H25        3.7442    8.2992   21.7597 H         1 RES1    0.0000
     52 C27        2.6944    8.0401   20.0563 C.ar      1 RES1    0.0000
     53 H26        3.2533    8.5966   19.5283 H         1 RES1    0.0000
     54 N1         2.0104    8.6414   17.5089 N.2       1 RES1    0.0000
     55 N2         1.3032    7.6276   18.1472 N.pl3     1 RES1    0.0000
     56 H27        0.5755    7.2095   17.7506 H         1 RES1    0.0000
     57 N3        -0.3680    5.8659   19.7918 N.pl3     1 RES1    0.0000
     58 N4         2.4692    6.9105   23.5854 N.pl3     1 RES1    0.0000
     59 O1         2.9467    6.8272   14.1845 O.3       1 RES1    0.0000
     60 O2        -0.1893    7.5937   15.8222 O.3       1 RES1    0.0000
     61 H28       -0.6906    7.2992   15.2167 H         1 RES1    0.0000
     62 O3         2.2871    5.9174   11.2694 O.3       1 RES1    0.0000
     63 O4        -0.6596    5.9515   18.5911 O.2       1 RES1    0.0000
     64 O5        -1.0420    5.2146   20.5851 O.2       1 RES1    0.0000
     65 O6         1.6839    6.2809   24.2896 O.2       1 RES1    0.0000
     66 O7         3.4857    7.4420   24.0283 O.2       1 RES1    0.0000
@<TRIPOS>BOND
     1    1    2 1
     2    2    3 1
     3    4    2 1
     4    5    4 1
     5    6    4 2
     6    7    6 1
     7    8    6 1
     8    9    8 1
     9   10    8 1
    10   11   10 1
    11   12    1 1
    12   13   12 1
    13   14   12 1
    14   15   14 1
    15   16   14 1
    16   17   16 1
    17   18   16 1
    18   19   16 1
    19   20   19 1
    20   21   19 1
    21   22   19 1
    22   23   22 1
    23   24   22 1
    24   25   22 1
    25   26   25 1
    26   27   25 1
    27   28   14 1
    28   29   28 1
    29   30    1 1
    30   31   32 1
    31   33   31 1
    32   34   31 1
    33   35   34 ar
    34   36   35 1
    35   37   35 ar
    36   38   37 1
    37   39   37 ar
    38   40   39 1
    39   41   39 ar
    40   42   41 1
    41   43   34 ar
    42   44   43 1
    43   45   46 ar
    44   46   47 ar
    45   47   48 1
    46   49   47 ar
    47   50   49 ar
    48   51   50 1
    49   52   45 ar
    50   53   52 1
    51   54   30 2
    52   55   45 1
    53   56   55 1
    54   57   46 1
    55   58   49 1
    56   59    2 1
    57   60    1 1
    58   61   60 1
    59   62    8 1
    60   63   57 2
    61   64   57 2
    62   65   58 2
    63   66   58 2
    64   10   12 1
    65   10   59 1
    66   25   28 1
    67   28   30 1
    68   31   62 1
    69   41   43 ar
    70   50   52 ar
    71   54   55 1
@<TRIPOS>SUBSTRUCTURE
     1 RES1 1

@<TRIPOS>CRYSIN
   5.5338   16.6117   26.5330  90.0000  90.0000  90.0000  19 1

