# MOL2 file generated by ConQuest
# Please check atom types

@<TRIPOS>MOLECULE
NAYPAF
    30    33     1
SMALL
NO_CHARGES
****
Generated from CSD

@<TRIPOS>ATOM
      1 C1         1.7227    4.1373    2.3307 C.3       1 RES1    0.0000
      2 O1         2.9012    3.3978    2.6180 O.3       1 RES1    0.0000
      3 C2         2.5237    2.0344    2.6440 C.3       1 RES1    0.0000
      4 N1         2.7297    1.3809    1.3587 N.3       1 RES1    0.0000
      5 C3         2.0174    1.9698    0.2491 C.3       1 RES1    0.0000
      6 N2         2.3787    3.3830    0.0917 N.3       1 RES1    0.0000
      7 C4         1.3407    4.1158    0.8039 C.3       1 RES1    0.0000
      8 O2         0.1473    3.3857    0.5517 O.3       1 RES1    0.0000
      9 C5         0.4983    2.0115    0.5808 C.3       1 RES1    0.0000
     10 N3         0.2865    1.4118    1.8844 N.3       1 RES1    0.0000
     11 C6         1.0058    2.0330    2.9771 C.3       1 RES1    0.0000
     12 N4         0.6824    3.4529    3.0749 N.3       1 RES1    0.0000
     13 N5         4.0727    1.0165    1.0713 N.pl3     1 RES1    0.0000
     14 O3         4.8196    0.8861    2.0174 O.2       1 RES1    0.0000
     15 O4         4.3397    0.8094   -0.0948 O.2       1 RES1    0.0000
     16 N6         2.6480    3.8093   -1.2333 N.pl3     1 RES1    0.0000
     17 O5         3.0312    2.9608   -2.0051 O.2       1 RES1    0.0000
     18 O6         2.5835    4.9938   -1.4412 O.2       1 RES1    0.0000
     19 N7        -1.0311    0.9896    2.1671 N.pl3     1 RES1    0.0000
     20 O7        -1.7297    0.7409    1.1982 O.2       1 RES1    0.0000
     21 O8        -1.3349    0.8619    3.3302 O.2       1 RES1    0.0000
     22 N8         0.3614    3.9719    4.3587 N.pl3     1 RES1    0.0000
     23 O9        -0.1392    3.1773    5.1244 O.2       1 RES1    0.0000
     24 O10        0.5294    5.1579    4.5299 O.2       1 RES1    0.0000
     25 H1         1.8413    5.0423    2.6134 H         1 RES1    0.0000
     26 H2         3.0381    1.6001    3.2858 H         1 RES1    0.0000
     27 H3         2.1980    1.4791   -0.5196 H         1 RES1    0.0000
     28 H4         1.2198    4.9616    0.5043 H         1 RES1    0.0000
     29 H5        -0.0575    1.5328   -0.1070 H         1 RES1    0.0000
     30 H6         0.7710    1.5732    3.7749 H         1 RES1    0.0000
@<TRIPOS>BOND
     1    1    2 1
     2    2    3 1
     3    3    4 1
     4    4    5 1
     5    5    6 1
     6    6    7 1
     7    7    1 1
     8    8    7 1
     9    9    5 1
    10   10    9 1
    11   11    3 1
    12   12    1 1
    13   13    4 1
    14   14   13 2
    15   15   13 2
    16   16    6 1
    17   17   16 2
    18   18   16 2
    19   19   10 1
    20   20   19 2
    21   21   19 2
    22   22   12 1
    23   23   22 2
    24   24   22 2
    25   25    1 1
    26   26    3 1
    27   27    5 1
    28   28    7 1
    29   29    9 1
    30   30   11 1
    31    8    9 1
    32   10   11 1
    33   11   12 1
@<TRIPOS>SUBSTRUCTURE
     1 RES1 1

@<TRIPOS>CRYSIN
  11.5080   13.4460   15.2830  90.0000  90.0000  90.0000  61 3

