# MOL2 file generated by ConQuest
# Please check atom types

@<TRIPOS>MOLECULE
NAYQEJ01
    51    53     1
SMALL
NO_CHARGES
****
Generated from CSD

@<TRIPOS>ATOM
      1 O1         3.2646    3.6375    6.6672 O.3       1 RES1    0.0000
      2 O2         2.5936    1.9180    5.4071 O.2       1 RES1    0.0000
      3 O3         0.0000    1.4564    0.0000 O.2       1 RES1    0.0000
      4 O4        -0.4373    1.1348    2.0668 O.2       1 RES1    0.0000
      5 O5         9.0517    9.2286    5.2755 O.3       1 RES1    0.0000
      6 N1         2.8405    4.0090    4.5487 N.am      1 RES1    0.0000
      7 N2         0.1920    1.6726    1.1951 N.pl3     1 RES1    0.0000
      8 C1         4.1675    5.4214    2.5702 C.1       1 RES1    0.0000
      9 C2         3.1591    4.4840    2.2052 C.ar      1 RES1    0.0000
     10 C3         2.4795    3.7464    3.2186 C.ar      1 RES1    0.0000
     11 C4         1.5020    2.8312    2.8902 C.ar      1 RES1    0.0000
     12 C5         1.2146    2.6264    1.5418 C.ar      1 RES1    0.0000
     13 C6         1.8671    3.3506    0.5134 C.ar      1 RES1    0.0000
     14 C7         2.8109    4.2628    0.8584 C.ar      1 RES1    0.0000
     15 C8         5.0196    6.1372    2.9703 C.1       1 RES1    0.0000
     16 C9         6.0499    6.9832    3.5270 C.ar      1 RES1    0.0000
     17 C10        6.3787    6.8368    4.8854 C.ar      1 RES1    0.0000
     18 C11        7.3832    7.6006    5.4321 C.ar      1 RES1    0.0000
     19 C12        8.0744    8.5202    4.6271 C.ar      1 RES1    0.0000
     20 C13        7.7365    8.6706    3.3136 C.ar      1 RES1    0.0000
     21 C14        6.7424    7.8746    2.7402 C.ar      1 RES1    0.0000
     22 C15        2.8570    3.0696    5.5305 C.2       1 RES1    0.0000
     23 C16        3.3068    2.7456    7.8290 C.3       1 RES1    0.0000
     24 C17        3.4523    3.5935    9.0174 C.3       1 RES1    0.0000
     25 C18        9.8500   10.0637    4.4854 C.3       1 RES1    0.0000
     26 C19       10.8879   10.7607    5.3621 C.ar      1 RES1    0.0000
     27 C20       11.0824   10.4847    6.6939 C.ar      1 RES1    0.0000
     28 C21       12.0623   11.1451    7.4056 C.ar      1 RES1    0.0000
     29 C22       12.8167   12.1053    6.8056 C.ar      1 RES1    0.0000
     30 C23       12.6131   12.3987    5.5021 C.ar      1 RES1    0.0000
     31 C24       11.6410   11.7199    4.7971 C.ar      1 RES1    0.0000
     32 H1         3.0974    4.8580    4.8671 H         1 RES1    0.0000
     33 H2         0.9284    2.3251    3.6670 H         1 RES1    0.0000
     34 H3         1.5498    3.1859   -0.4000 H         1 RES1    0.0000
     35 H4         3.1379    4.9618    0.1833 H         1 RES1    0.0000
     36 H5         5.8478    6.1145    5.3838 H         1 RES1    0.0000
     37 H6         7.5519    7.4156    6.5172 H         1 RES1    0.0000
     38 H7         8.1861    9.3597    2.7002 H         1 RES1    0.0000
     39 H8         6.5077    8.1032    1.8002 H         1 RES1    0.0000
     40 H9         4.1424    2.3845    7.5506 H         1 RES1    0.0000
     41 H10        2.4248    2.1421    7.7340 H         1 RES1    0.0000
     42 H11        4.3485    3.7746    8.8174 H         1 RES1    0.0000
     43 H12        3.0829    4.6156    9.1841 H         1 RES1    0.0000
     44 H13        3.4443    2.9385    9.6508 H         1 RES1    0.0000
     45 H14       10.3681    9.5527    3.8170 H         1 RES1    0.0000
     46 H15        9.3608   10.7993    4.0170 H         1 RES1    0.0000
     47 H16       10.4831    9.7901    7.0339 H         1 RES1    0.0000
     48 H17       12.0968   10.6806    8.2507 H         1 RES1    0.0000
     49 H18       13.7114   12.6841    7.2340 H         1 RES1    0.0000
     50 H19       13.4799   13.0106    4.8337 H         1 RES1    0.0000
     51 H20       11.4141   12.2092    3.8670 H         1 RES1    0.0000
@<TRIPOS>BOND
     1    1   22 1
     2    2   22 2
     3    3    7 2
     4    4    7 2
     5    5   19 1
     6    6   10 1
     7    7   12 1
     8    8    9 1
     9    9   10 ar
    10   10   11 ar
    11   11   12 ar
    12   12   13 ar
    13   13   14 ar
    14   14    9 ar
    15   15    8 3
    16   16   15 1
    17   17   16 ar
    18   18   17 ar
    19   19   18 ar
    20   20   19 ar
    21   21   16 ar
    22   22    6 1
    23   23    1 1
    24   24   23 1
    25   25    5 1
    26   26   25 1
    27   27   26 ar
    28   28   27 ar
    29   29   28 ar
    30   30   29 ar
    31   31   26 ar
    32   32    6 1
    33   33   11 1
    34   34   13 1
    35   35   14 1
    36   36   17 1
    37   37   18 1
    38   38   20 1
    39   39   21 1
    40   40   23 1
    41   41   23 1
    42   42   24 1
    43   43   24 1
    44   44   24 1
    45   45   25 1
    46   46   25 1
    47   47   27 1
    48   48   28 1
    49   49   29 1
    50   50   30 1
    51   51   31 1
    52   20   21 ar
    53   30   31 ar
@<TRIPOS>SUBSTRUCTURE
     1 RES1 1

@<TRIPOS>CRYSIN
  25.8270    4.9470   21.0890  90.0000 127.7800  90.0000   9 1

