# MOL2 file generated by ConQuest
# Please check atom types

@<TRIPOS>MOLECULE
NAYQEJ
   143   149     3
SMALL
NO_CHARGES
****
Generated from CSD

@<TRIPOS>ATOM
      1 O1        -4.7241   14.2753    8.7292 O.3       1 RES1    0.0000
      2 O2        -5.3219   12.1009    8.6866 O.2       1 RES1    0.0000
      3 O3        -2.4281    6.8748    8.2596 O.2       1 RES1    0.0000
      4 O4        -4.2806    7.9090    8.6270 O.2       1 RES1    0.0000
      5 O5         1.9070   19.1368    6.9447 O.3       1 RES1    0.0000
      6 N1        -3.1414   12.7748    8.4384 N.am      1 RES1    0.0000
      7 N2        -3.0995    7.8878    8.3306 N.pl3     1 RES1    0.0000
      8 C1        -0.5772   12.8554    7.4256 C.1       1 RES1    0.0000
      9 C2        -1.2075   11.5881    7.6213 C.ar      1 RES1    0.0000
     10 C3        -2.5209   11.5584    8.1547 C.ar      1 RES1    0.0000
     11 C4        -3.1326   10.3335    8.3859 C.ar      1 RES1    0.0000
     12 C5        -2.4055    9.1891    8.0582 C.ar      1 RES1    0.0000
     13 C6        -1.1709    9.1933    7.5178 C.ar      1 RES1    0.0000
     14 C7        -0.5592   10.4098    7.2894 C.ar      1 RES1    0.0000
     15 C8        -0.1010   13.9277    7.3107 C.1       1 RES1    0.0000
     16 C9         0.4762   15.2671    7.1901 C.ar      1 RES1    0.0000
     17 C10       -0.1881   16.3352    7.8072 C.ar      1 RES1    0.0000
     18 C11        0.3070   17.6110    7.6894 C.ar      1 RES1    0.0000
     19 C12        1.4968   17.8187    6.9731 C.ar      1 RES1    0.0000
     20 C13        2.1537   16.7717    6.3518 C.ar      1 RES1    0.0000
     21 C14        1.6208   15.4832    6.4611 C.ar      1 RES1    0.0000
     22 C15       -4.4971   12.9613    8.6185 C.2       1 RES1    0.0000
     23 C16       -6.1810   14.5592    8.9519 C.3       1 RES1    0.0000
     24 C17       -6.2997   15.9410    9.1930 C.3       1 RES1    0.0000
     25 C18        3.1017   19.4590    6.2681 C.3       1 RES1    0.0000
     26 C19        3.2663   20.9636    6.3291 C.ar      1 RES1    0.0000
     27 C20        2.6497   21.7350    7.2866 C.ar      1 RES1    0.0000
     28 C21        2.8555   23.0956    7.3235 C.ar      1 RES1    0.0000
     29 C22        3.6454   23.7059    6.3901 C.ar      1 RES1    0.0000
     30 C23        4.2567   22.9515    5.4284 C.ar      1 RES1    0.0000
     31 C24        4.0636   21.5740    5.3873 C.ar      1 RES1    0.0000
     32 O6        -1.6426   14.6991    4.3972 O.3       2 RES2    0.0000
     33 O7        -1.9764   12.4781    4.2029 O.2       2 RES2    0.0000
     34 O8         1.4605    7.6505    3.3163 O.2       2 RES2    0.0000
     35 O9        -0.5083    8.4304    3.7802 O.2       2 RES2    0.0000
     36 O10        5.3247   20.0184    2.1305 O.3       2 RES2    0.0000
     37 N3         0.0728   13.4191    3.8171 N.am      2 RES2    0.0000
     38 N4         0.6759    8.5660    3.4809 N.pl3     2 RES2    0.0000
     39 C25        2.6346   13.8345    2.8440 C.1       2 RES2    0.0000
     40 C26        2.1267   12.5036    2.9830 C.ar      2 RES2    0.0000
     41 C27        0.8220   12.2874    3.4894 C.ar      2 RES2    0.0000
     42 C28        0.3559   10.9989    3.6511 C.ar      2 RES2    0.0000
     43 C29        1.2021    9.9605    3.2936 C.ar      2 RES2    0.0000
     44 C30        2.4545   10.1173    2.7603 C.ar      2 RES2    0.0000
     45 C31        2.9204   11.4100    2.6085 C.ar      2 RES2    0.0000
     46 C32        3.0593   14.9365    2.7192 C.1       2 RES2    0.0000
     47 C33        3.6538   16.2589    2.5461 C.ar      2 RES2    0.0000
     48 C34        2.9409   17.4245    2.8085 C.ar      2 RES2    0.0000
     49 C35        3.5132   18.6494    2.6312 C.ar      2 RES2    0.0000
     50 C36        4.8277   18.7511    2.2227 C.ar      2 RES2    0.0000
     51 C37        5.5693   17.6025    1.9177 C.ar      2 RES2    0.0000
     52 C38        4.9603   16.3521    2.0780 C.ar      2 RES2    0.0000
     53 C39       -1.2547   13.4276    4.1461 C.2       2 RES2    0.0000
     54 C40       -3.1166   14.7966    4.7674 C.3       2 RES2    0.0000
     55 C41       -3.3645   15.8944    5.3844 C.3       2 RES2    0.0000
     56 C42        6.7337   20.1541    1.8624 C.3       2 RES2    0.0000
     57 C43        7.0990   21.6079    2.0511 C.ar      2 RES2    0.0000
     58 C44        7.2739   22.1250    3.2951 C.ar      2 RES2    0.0000
     59 C45        7.6206   23.4559    3.4582 C.ar      2 RES2    0.0000
     60 C46        7.7955   24.2569    2.3873 C.ar      2 RES2    0.0000
     61 C47        7.5956   23.7610    1.1192 C.ar      2 RES2    0.0000
     62 C48        7.2324   22.4301    0.9248 C.ar      2 RES2    0.0000
     63 O11        2.1863   15.2289   13.7888 O.3       3 RES3    0.0000
     64 O12        1.6604   13.0164   13.6895 O.2       3 RES3    0.0000
     65 O13        4.7397    7.9853   12.6881 O.2       3 RES3    0.0000
     66 O14        2.8830    8.9093   13.3264 O.2       3 RES3    0.0000
     67 O15        8.6656   20.4253   11.5349 O.3       3 RES3    0.0000
     68 N5         3.7534   13.8260   13.2186 N.am      3 RES3    0.0000
     69 N6         4.0376    8.9644   12.9221 N.pl3     3 RES3    0.0000
     70 C49        6.2550   14.1100   12.1490 C.1       3 RES3    0.0000
     71 C50        5.7309   12.8045   12.3377 C.ar      3 RES3    0.0000
     72 C51        4.4259   12.6646   12.8781 C.ar      3 RES3    0.0000
     73 C52        3.8921   11.3931   13.0909 C.ar      3 RES3    0.0000
     74 C53        4.6649   10.3080   12.7079 C.ar      3 RES3    0.0000
     75 C54        5.9268   10.3970   12.1689 C.ar      3 RES3    0.0000
     76 C55        6.4634   11.6559   11.9902 C.ar      3 RES3    0.0000
     77 C56        6.6283   15.2332   12.0115 C.1       3 RES3    0.0000
     78 C57        7.1323   16.5810   11.8398 C.ar      3 RES3    0.0000
     79 C58        6.4895   17.7000   12.3973 C.ar      3 RES3    0.0000
     80 C59        6.9954   18.9503   12.2512 C.ar      3 RES3    0.0000
     81 C60        8.2007   19.1411   11.5661 C.ar      3 RES3    0.0000
     82 C61        8.8458   18.0602   10.9788 C.ar      3 RES3    0.0000
     83 C62        8.3075   16.7675   11.1079 C.ar      3 RES3    0.0000
     84 C63        2.4615   13.9192   13.5689 C.2       3 RES3    0.0000
     85 C64        0.8094   15.5214   14.3774 C.3       3 RES3    0.0000
     86 C65       -0.0800   15.6697   13.2171 C.3       3 RES3    0.0000
     87 C66        9.9180   20.6584   10.8739 C.3       3 RES3    0.0000
     88 C67       10.3518   22.0783   11.1902 C.ar      3 RES3    0.0000
     89 C68       10.5893   22.4768   12.4753 C.ar      3 RES3    0.0000
     90 C69       11.0437   23.7526   12.7150 C.ar      3 RES3    0.0000
     91 C70       11.2760   24.6257   11.6937 C.ar      3 RES3    0.0000
     92 C71       10.9922   24.2273   10.4072 C.ar      3 RES3    0.0000
     93 C72       10.5289   22.9472   10.1093 C.ar      3 RES3    0.0000
     94 H1        -2.6241   13.6056    8.4398 H         1 RES1    0.0000
     95 H2        -4.0990   10.2572    8.7944 H         1 RES1    0.0000
     96 H3        -0.7526    8.5194    7.1490 H         1 RES1    0.0000
     97 H4         0.3541   10.5115    6.8228 H         1 RES1    0.0000
     98 H5        -1.1514   16.1487    8.3405 H         1 RES1    0.0000
     99 H6        -0.3300   18.4375    8.1845 H         1 RES1    0.0000
    100 H7         2.9080   16.9540    5.6596 H         1 RES1    0.0000
    101 H8         2.0246   14.7500    5.6880 H         1 RES1    0.0000
    102 H9         3.9299   18.9885    6.6951 H         1 RES1    0.0000
    103 H10        2.8386   19.1156    5.1490 H         1 RES1    0.0000
    104 H11        1.8167   21.2349    7.9575 H         1 RES1    0.0000
    105 H12        2.4479   23.7356    7.9150 H         1 RES1    0.0000
    106 H13        3.9418   24.6681    6.5249 H         1 RES1    0.0000
    107 H14        4.9341   23.3541    4.7518 H         1 RES1    0.0000
    108 H15        4.5463   20.9382    4.6100 H         1 RES1    0.0000
    109 H16        0.5044   14.2414    3.8724 H         2 RES2    0.0000
    110 H17       -0.6215   10.8082    3.9859 H         2 RES2    0.0000
    111 H18        2.9023    9.3247    2.5107 H         2 RES2    0.0000
    112 H19        3.7366   11.5287    2.0568 H         2 RES2    0.0000
    113 H20        1.9196   17.2931    3.1064 H         2 RES2    0.0000
    114 H21        2.9938   19.4547    2.8936 H         2 RES2    0.0000
    115 H22        6.6307   17.6322    1.7305 H         2 RES2    0.0000
    116 H23        5.4415   15.5553    1.8582 H         2 RES2    0.0000
    117 H24        7.2441   19.5819    2.5674 H         2 RES2    0.0000
    118 H25        7.0144   19.7514    1.0922 H         2 RES2    0.0000
    119 H26        7.0314   21.5740    4.1419 H         2 RES2    0.0000
    120 H27        7.9540   23.7356    4.4681 H         2 RES2    0.0000
    121 H28        8.0224   25.2615    2.5390 H         2 RES2    0.0000
    122 H29        7.3897   24.3714    0.1986 H         2 RES2    0.0000
    123 H30        7.4864   22.0402   -0.0567 H         2 RES2    0.0000
    124 H31        4.4015   14.6228   13.2909 H         3 RES3    0.0000
    125 H32        2.9393   11.2744   13.3760 H         3 RES3    0.0000
    126 H33        6.3490    9.5366   11.7164 H         3 RES3    0.0000
    127 H34        7.2872   11.7406   11.4185 H         3 RES3    0.0000
    128 H35        5.6869   17.5474   12.9647 H         3 RES3    0.0000
    129 H36        6.4876   19.7938   12.7661 H         3 RES3    0.0000
    130 H37        9.7562   18.1832   10.3547 H         3 RES3    0.0000
    131 H38        8.8513   15.9791   10.4398 H         3 RES3    0.0000
    132 H39        0.4753   14.7924   15.1207 H         3 RES3    0.0000
    133 H40        0.9918   16.5301   14.9505 H         3 RES3    0.0000
    134 H41        0.2872   16.3606   12.4115 H         3 RES3    0.0000
    135 H42       -0.0721   14.8348   12.6384 H         3 RES3    0.0000
    136 H43       -1.1316   15.8944   13.6171 H         3 RES3    0.0000
    137 H44       10.6216   20.0481   11.2341 H         3 RES3    0.0000
    138 H45        9.7511   20.3872    9.6880 H         3 RES3    0.0000
    139 H46       10.2892   21.8707   13.3051 H         3 RES3    0.0000
    140 H47       11.6114   23.9899   13.6171 H         3 RES3    0.0000
    141 H48       11.6584   25.6853   11.7306 H         3 RES3    0.0000
    142 H49       11.1086   24.9224    9.5462 H         3 RES3    0.0000
    143 H50       10.3448   22.6336    9.0923 H         3 RES3    0.0000
@<TRIPOS>BOND
     1    1   22 1
     2    2   22 2
     3    3    7 2
     4    4    7 2
     5    5   19 1
     6    6   10 1
     7    7   12 1
     8    8    9 1
     9    9   10 ar
    10   10   11 ar
    11   11   12 ar
    12   12   13 ar
    13   13   14 ar
    14   14    9 ar
    15   15    8 3
    16   16   15 1
    17   17   16 ar
    18   18   17 ar
    19   19   18 ar
    20   20   19 ar
    21   21   16 ar
    22   22    6 1
    23   23    1 1
    24   24   23 1
    25   25    5 1
    26   26   25 1
    27   27   26 ar
    28   28   27 ar
    29   29   28 ar
    30   30   29 ar
    31   31   26 ar
    32   32   53 1
    33   33   53 2
    34   34   38 2
    35   35   38 2
    36   36   50 1
    37   37   41 1
    38   38   43 1
    39   39   40 1
    40   40   41 ar
    41   41   42 ar
    42   42   43 ar
    43   43   44 ar
    44   44   45 ar
    45   45   40 ar
    46   46   39 3
    47   47   46 1
    48   48   47 ar
    49   49   48 ar
    50   50   49 ar
    51   51   50 ar
    52   52   47 ar
    53   53   37 1
    54   54   32 1
    55   55   54 1
    56   56   36 1
    57   57   56 1
    58   58   57 ar
    59   59   58 ar
    60   60   59 ar
    61   61   60 ar
    62   62   57 ar
    63   63   84 1
    64   64   84 2
    65   65   69 2
    66   66   69 2
    67   67   81 1
    68   68   72 1
    69   69   74 1
    70   70   71 1
    71   71   72 ar
    72   72   73 ar
    73   73   74 ar
    74   74   75 ar
    75   75   76 ar
    76   76   71 ar
    77   77   70 3
    78   78   77 1
    79   79   78 ar
    80   80   79 ar
    81   81   80 ar
    82   82   81 ar
    83   83   78 ar
    84   84   68 1
    85   85   63 1
    86   86   85 1
    87   87   67 1
    88   88   87 1
    89   89   88 ar
    90   90   89 ar
    91   91   90 ar
    92   92   91 ar
    93   93   88 ar
    94   94    6 1
    95   95   11 1
    96   96   13 1
    97   97   14 1
    98   98   17 1
    99   99   18 1
   100  100   20 1
   101  101   21 1
   102  102   25 1
   103  103   25 1
   104  104   27 1
   105  105   28 1
   106  106   29 1
   107  107   30 1
   108  108   31 1
   109  109   37 1
   110  110   42 1
   111  111   44 1
   112  112   45 1
   113  113   48 1
   114  114   49 1
   115  115   51 1
   116  116   52 1
   117  117   56 1
   118  118   56 1
   119  119   58 1
   120  120   59 1
   121  121   60 1
   122  122   61 1
   123  123   62 1
   124  124   68 1
   125  125   73 1
   126  126   75 1
   127  127   76 1
   128  128   79 1
   129  129   80 1
   130  130   82 1
   131  131   83 1
   132  132   85 1
   133  133   85 1
   134  134   86 1
   135  135   86 1
   136  136   86 1
   137  137   87 1
   138  138   87 1
   139  139   89 1
   140  140   90 1
   141  141   91 1
   142  142   92 1
   143  143   93 1
   144   20   21 ar
   145   30   31 ar
   146   51   52 ar
   147   61   62 ar
   148   82   83 ar
   149   92   93 ar
@<TRIPOS>SUBSTRUCTURE
     1 RES1 1
     2 RES2 32
     3 RES3 63

@<TRIPOS>CRYSIN
  10.5140   42.3850   14.1850  90.0000  90.4700  90.0000  14 1

