# MOL2 file generated by ConQuest
# Please check atom types

@<TRIPOS>MOLECULE
NAYYUI
    63    48     2
SMALL
NO_CHARGES
****
Generated from CSD

@<TRIPOS>ATOM
      1 O1         5.2797    0.7164   31.3035 O.2       1 RES1    0.0000
      2 O2         3.1300    2.8164   30.6956 O.3       1 RES1    0.0000
      3 O3         3.0344    8.0261   34.1486 O.3       1 RES1    0.0000
      4 N1         3.3016    1.4965   30.3204 N.am      1 RES1    0.0000
      5 C1         3.5658   -0.4521   29.7846 C.3       1 RES1    0.0000
      6 H1         3.1429   -1.1322   30.3816 H         1 RES1    0.0000
      7 C2         2.5319    0.6475   29.4133 C.3       1 RES1    0.0000
      8 H2         2.5573    0.9315   28.4654 H         1 RES1    0.0000
      9 H3         1.6072    0.4597   29.7135 H         1 RES1    0.0000
     10 C3         4.2812    0.6271   30.6312 C.2       1 RES1    0.0000
     11 C4         4.3903   -1.1428   28.7087 C.3       1 RES1    0.0000
     12 O4         5.1370   -0.1144   28.0368 O.3       1 RES1    0.0000
     13 H4         5.6306   -0.4627   27.4528 H         1 RES1    0.0000
     14 O5         4.0264   -2.1206   26.4177 O.3       1 RES1    0.0000
     15 C5         3.4278   -1.7676   27.6880 C.3       1 RES1    0.0000
     16 H5         2.5142   -1.3640   27.6426 H         1 RES1    0.0000
     17 C6         3.5304   -3.1793   27.2742 C.3       1 RES1    0.0000
     18 H6         2.6841   -3.6307   26.9922 H         1 RES1    0.0000
     19 C7         4.6003   -4.0495   27.8494 C.3       1 RES1    0.0000
     20 H7         4.2146   -4.5774   28.6060 H         1 RES1    0.0000
     21 O6         5.0167   -4.9591   26.8146 O.3       1 RES1    0.0000
     22 H8         5.0521   -5.7391   27.1258 H         1 RES1    0.0000
     23 C8         5.7899   -3.2543   28.3620 C.3       1 RES1    0.0000
     24 H9         6.2587   -2.8272   27.6004 H         1 RES1    0.0000
     25 H10        6.4274   -3.8617   28.8170 H         1 RES1    0.0000
     26 C9         5.3110   -2.1827   29.3423 C.3       1 RES1    0.0000
     27 H11        4.8309   -2.6227   30.0862 H         1 RES1    0.0000
     28 H12        6.1001   -1.7214   29.7241 H         1 RES1    0.0000
     29 C10        4.3903   -1.1428   28.7087 Du        2 SUP2    0.0000
     30 O7         4.8934   -0.1908   27.7699 Du        2 SUP2    0.0000
     31 H13        5.1682   -0.5915   27.0836 Du        2 SUP2    0.0000
     32 O8         3.9350   -2.5954   26.6982 Du        2 SUP2    0.0000
     33 C11        3.4579   -2.1168   27.9731 Du        2 SUP2    0.0000
     34 H14        2.4818   -1.9047   28.0224 Du        2 SUP2    0.0000
     35 C12        3.7976   -3.5398   27.7914 Du        2 SUP2    0.0000
     36 H15        3.0321   -4.1813   27.7376 Du        2 SUP2    0.0000
     37 C13        5.0969   -4.0843   28.2829 Du        2 SUP2    0.0000
     38 H16        4.9353   -4.5895   29.1299 Du        2 SUP2    0.0000
     39 O9         5.5823   -5.0022   27.2787 Du        2 SUP2    0.0000
     40 H17        5.5233   -5.7891   27.5653 Du        2 SUP2    0.0000
     41 C14        6.1319   -3.0059   28.5445 Du        2 SUP2    0.0000
     42 H18        6.4404   -2.6242   27.6848 Du        2 SUP2    0.0000
     43 H19        6.9146   -3.3997   29.0068 Du        2 SUP2    0.0000
     44 C15        5.5286   -1.8987   29.4112 Du        2 SUP2    0.0000
     45 H20        6.2405   -1.2557   29.6538 Du        2 SUP2    0.0000
     46 H21        5.1818   -2.2978   30.2480 Du        2 SUP2    0.0000
     47 C16        2.2766    2.9006   31.8745 C.3       1 RES1    0.0000
     48 H22        2.5154    2.1940   32.5263 H         1 RES1    0.0000
     49 H23        1.3258    2.7893   31.6227 H         1 RES1    0.0000
     50 C17        2.5030    4.2570   32.4687 C.ar      1 RES1    0.0000
     51 C18        3.7038    4.5599   33.0973 C.ar      1 RES1    0.0000
     52 H24        4.3850    3.8988   33.1381 H         1 RES1    0.0000
     53 C19        3.9344    5.8080   33.6704 C.ar      1 RES1    0.0000
     54 H25        4.7619    5.9981   34.0980 H         1 RES1    0.0000
     55 C20        2.9342    6.7729   33.6093 C.ar      1 RES1    0.0000
     56 C21        1.7275    6.4965   32.9732 C.ar      1 RES1    0.0000
     57 H26        1.0516    7.1614   32.9201 H         1 RES1    0.0000
     58 C22        1.5181    5.2438   32.4159 C.ar      1 RES1    0.0000
     59 H27        0.6900    5.0545   31.9919 H         1 RES1    0.0000
     60 C23        4.3160    8.4375   34.6370 C.3       1 RES1    0.0000
     61 H28        4.2576    9.3569   34.9735 H         1 RES1    0.0000
     62 H29        4.9713    8.3959   33.9081 H         1 RES1    0.0000
     63 H30        4.5956    7.8423   35.3637 H         1 RES1    0.0000
@<TRIPOS>BOND
     1    1   10 2
     2    2    4 1
     3    3   55 1
     4    4    7 1
     5    5    6 1
     6    7    5 1
     7    8    7 1
     8    9    7 1
     9   10    4 1
    10   11    5 1
    11   12   11 1
    12   13   12 1
    13   14   15 1
    14   15   11 1
    15   16   15 1
    16   17   14 1
    17   18   17 1
    18   19   17 1
    19   20   19 1
    20   21   19 1
    21   22   21 1
    22   23   19 1
    23   24   23 1
    24   25   23 1
    25   26   11 1
    26   27   26 1
    27   28   26 1
    28   47    2 1
    29   48   47 1
    30   49   47 1
    31   50   47 1
    32   51   50 ar
    33   52   51 1
    34   53   51 ar
    35   54   53 1
    36   55   53 ar
    37   56   55 ar
    38   57   56 1
    39   58   50 ar
    40   59   58 1
    41   60    3 1
    42   61   60 1
    43   62   60 1
    44   63   60 1
    45    5   10 1
    46   15   17 1
    47   23   26 1
    48   56   58 ar
@<TRIPOS>SUBSTRUCTURE
     1 RES1 1
     2 SUP2 29

@<TRIPOS>CRYSIN
   5.8978    7.5734   35.1598  90.0000  90.0000  90.0000  19 1

