# MOL2 file generated by ConQuest
# Please check atom types

@<TRIPOS>MOLECULE
NAZXIX
    61    62     1
SMALL
NO_CHARGES
****
Generated from CSD

@<TRIPOS>ATOM
      1 C1         2.0809   29.2257    1.1395 C.3       1 RES1    0.0000
      2 H1         1.8937   29.3103    2.0770 H         1 RES1    0.0000
      3 H2         1.7662   30.0066    0.6777 H         1 RES1    0.0000
      4 H3         3.0287   29.1378    1.0096 H         1 RES1    0.0000
      5 C2         1.8604   26.8464    1.0570 C.ar      1 RES1    0.0000
      6 C3         1.2552   25.7461    0.4582 C.ar      1 RES1    0.0000
      7 H4         0.6018   25.8804   -0.1905 H         1 RES1    0.0000
      8 C4         1.6104   24.4517    0.8120 C.ar      1 RES1    0.0000
      9 H5         1.2106   23.7246    0.3924 H         1 RES1    0.0000
     10 C5         2.5672   24.2508    1.7970 C.ar      1 RES1    0.0000
     11 C6         3.1696   25.3470    2.3844 C.ar      1 RES1    0.0000
     12 H6         3.8177   25.2164    3.0383 H         1 RES1    0.0000
     13 C7         2.8246   26.6384    2.0173 C.ar      1 RES1    0.0000
     14 H7         3.2450   27.3636    2.4194 H         1 RES1    0.0000
     15 C8         2.3739   21.8023    2.0082 C.2       1 RES1    0.0000
     16 H8         1.5486   21.8512    1.5828 H         1 RES1    0.0000
     17 C9         2.8067   20.5551    2.3533 C.2       1 RES1    0.0000
     18 C10        1.8742   19.4749    2.0482 C.2       1 RES1    0.0000
     19 C11        1.5101   17.1231    2.2438 C.3       1 RES1    0.0000
     20 H9         0.6121   17.2658    2.5537 H         1 RES1    0.0000
     21 H10        1.8853   16.3582    2.6863 H         1 RES1    0.0000
     22 H11        1.5002   16.9705    1.2957 H         1 RES1    0.0000
     23 C12        4.1758   20.3227    2.9842 C.3       1 RES1    0.0000
     24 C13        4.0867   19.6937    4.4087 C.3       1 RES1    0.0000
     25 H12        3.7025   18.7943    4.3595 H         1 RES1    0.0000
     26 C14        5.4196   19.6447    5.0124 C.1       1 RES1    0.0000
     27 C15        3.2085   20.6110    5.3251 C.2       1 RES1    0.0000
     28 C16        2.2505   19.9687    6.3280 C.3       1 RES1    0.0000
     29 C17        1.2147   19.1306    5.5797 C.3       1 RES1    0.0000
     30 H13        0.7349   19.6889    4.9644 H         1 RES1    0.0000
     31 H14        0.5993   18.7447    6.2092 H         1 RES1    0.0000
     32 H15        1.6590   18.4299    5.0969 H         1 RES1    0.0000
     33 C18        1.5618   21.0684    7.1283 C.3       1 RES1    0.0000
     34 H16        1.0395   21.6141    6.5366 H         1 RES1    0.0000
     35 H17        2.2246   21.6097    7.5628 H         1 RES1    0.0000
     36 H18        0.9891   20.6720    7.7885 H         1 RES1    0.0000
     37 C19        3.0623   19.0728    7.2732 C.3       1 RES1    0.0000
     38 H19        2.4723   18.6563    7.9061 H         1 RES1    0.0000
     39 H20        3.7099   19.6048    7.7419 H         1 RES1    0.0000
     40 H21        3.5128   18.3954    6.7640 H         1 RES1    0.0000
     41 C20        5.1844   19.6173    2.0739 C.ar      1 RES1    0.0000
     42 C21        5.1111   18.2816    1.7478 C.ar      1 RES1    0.0000
     43 H22        4.4499   17.7465    2.1236 H         1 RES1    0.0000
     44 C22        6.0241   17.7379    0.8586 C.ar      1 RES1    0.0000
     45 C23        7.0453   18.4511    0.3134 C.ar      1 RES1    0.0000
     46 H23        7.6623   18.0548   -0.2581 H         1 RES1    0.0000
     47 C24        7.1284   19.7810    0.6426 C.ar      1 RES1    0.0000
     48 H24        7.8115   20.3012    0.2844 H         1 RES1    0.0000
     49 C25        6.2060   20.3587    1.5029 C.ar      1 RES1    0.0000
     50 H25        6.2749   21.2648    1.7004 H         1 RES1    0.0000
     51 N1         3.0056   22.9575    2.2145 N.pl3     1 RES1    0.0000
     52 N2         6.4560   19.6889    5.4877 N.1       1 RES1    0.0000
     53 N3         5.8685   16.3382    0.4688 N.pl3     1 RES1    0.0000
     54 O1         1.4224   28.0730    0.6272 O.3       1 RES1    0.0000
     55 O2         0.8219   19.5609    1.4432 O.2       1 RES1    0.0000
     56 O3         2.3099   18.2885    2.5361 O.3       1 RES1    0.0000
     57 O4         3.3543   21.8016    5.2309 O.2       1 RES1    0.0000
     58 O5         4.8447   15.7656    0.7927 O.2       1 RES1    0.0000
     59 O6         6.7344   15.7986   -0.1861 O.2       1 RES1    0.0000
     60 H26        4.5244   21.1139    3.1761 H         1 RES1    0.0000
     61 H27        3.7666   22.9506    2.7126 H         1 RES1    0.0000
@<TRIPOS>BOND
     1    1    2 1
     2    3    1 1
     3    4    1 1
     4    5    6 ar
     5    6    7 1
     6    8    6 ar
     7    9    8 1
     8   10    8 ar
     9   11   10 ar
    10   12   11 1
    11   13    5 ar
    12   14   13 1
    13   15   16 1
    14   17   15 2
    15   18   17 1
    16   19   20 1
    17   21   19 1
    18   22   19 1
    19   23   17 1
    20   24   23 1
    21   25   24 1
    22   26   24 1
    23   27   24 1
    24   28   27 1
    25   29   28 1
    26   30   29 1
    27   31   29 1
    28   32   29 1
    29   33   28 1
    30   34   33 1
    31   35   33 1
    32   36   33 1
    33   37   28 1
    34   38   37 1
    35   39   37 1
    36   40   37 1
    37   41   23 1
    38   42   41 ar
    39   43   42 1
    40   44   42 ar
    41   45   44 ar
    42   46   45 1
    43   47   45 ar
    44   48   47 1
    45   49   41 ar
    46   50   49 1
    47   51   10 1
    48   52   26 3
    49   53   44 1
    50   54    1 1
    51   55   18 2
    52   56   18 1
    53   57   27 2
    54   58   53 2
    55   59   53 2
    56   60   23 1
    57   61   51 1
    58    5   54 1
    59   11   13 ar
    60   15   51 1
    61   19   56 1
    62   47   49 ar
@<TRIPOS>SUBSTRUCTURE
     1 RES1 1

@<TRIPOS>CRYSIN
  12.5554   21.5580    8.7822  90.0000  91.6180  90.0000  14 1

