# MOL2 file generated by ConQuest
# Please check atom types

@<TRIPOS>MOLECULE
NBCBRE10
    39    42     1
SMALL
NO_CHARGES
****
Generated from CSD

@<TRIPOS>ATOM
      1 C1         3.3625    4.0309    2.8766 C.3       1 RES1    0.0000
      2 C2         3.8111    2.6053    3.1191 C.3       1 RES1    0.0000
      3 C3         3.4457    1.8604    1.8200 C.3       1 RES1    0.0000
      4 C4         2.6791    2.9394    1.0588 C.3       1 RES1    0.0000
      5 C5         3.8641    3.7618    0.5000 C.3       1 RES1    0.0000
      6 C6         4.2095    4.6445    1.7346 C.3       1 RES1    0.0000
      7 C7         2.0450    3.8080    2.1210 C.3       1 RES1    0.0000
      8 C8         4.8804    2.6854    0.2173 C.2       1 RES1    0.0000
      9 C9         4.6584    1.6272    0.9465 C.2       1 RES1    0.0000
     10 C10        5.6200    4.7451    2.0803 C.1       1 RES1    0.0000
     11 C11        3.4602    2.2007    5.4378 C.2       1 RES1    0.0000
     12 C12        2.4885    1.6905    6.4505 C.ar      1 RES1    0.0000
     13 C13        1.3577    0.9773    6.0981 C.ar      1 RES1    0.0000
     14 C14        0.5086    0.5461    7.0932 C.ar      1 RES1    0.0000
     15 C15        0.7313    0.8220    8.4277 C.ar      1 RES1    0.0000
     16 C16        1.8601    1.5355    8.7373 C.ar      1 RES1    0.0000
     17 C17        2.7495    1.9588    7.7838 C.ar      1 RES1    0.0000
     18 N1         6.7105    4.8663    2.3950 N.1       1 RES1    0.0000
     19 N2        -0.6785   -0.2427    6.7296 N.pl3     1 RES1    0.0000
     20 N3         2.1175    1.8759   10.1505 N.pl3     1 RES1    0.0000
     21 O1         3.0063    2.0483    4.2001 O.3       1 RES1    0.0000
     22 O2         4.5187    2.6797    5.7271 O.2       1 RES1    0.0000
     23 O3        -0.7404   -0.6839    5.6050 O.2       1 RES1    0.0000
     24 O4        -1.5359   -0.4072    7.5857 O.2       1 RES1    0.0000
     25 O5         1.3000    1.5153   10.9764 O.2       1 RES1    0.0000
     26 O6         3.1104    2.5288   10.4092 O.2       1 RES1    0.0000
     27 H1         3.3928    4.5821    3.6557 H         1 RES1    0.0000
     28 H2         4.7237    2.5093    3.3222 H         1 RES1    0.0000
     29 H3         2.9120    1.0279    2.0351 H         1 RES1    0.0000
     30 H4         2.0913    2.5883    0.3573 H         1 RES1    0.0000
     31 H5         3.6966    4.3069   -0.3082 H         1 RES1    0.0000
     32 H6         3.8680    5.5320    1.5409 H         1 RES1    0.0000
     33 H7         1.7428    4.6862    1.8238 H         1 RES1    0.0000
     34 H8         1.3952    3.3440    2.6527 H         1 RES1    0.0000
     35 H9         5.5610    2.8516   -0.3985 H         1 RES1    0.0000
     36 H10        5.2036    0.8287    0.8448 H         1 RES1    0.0000
     37 H11        1.1783    0.8127    5.1979 H         1 RES1    0.0000
     38 H12        0.1173    0.5205    9.0767 H         1 RES1    0.0000
     39 H13        3.4965    2.4332    8.0100 H         1 RES1    0.0000
@<TRIPOS>BOND
     1    1    2 1
     2    2    3 1
     3    3    4 1
     4    4    5 1
     5    5    6 1
     6    6    1 1
     7    7    1 1
     8    8    5 1
     9    9    3 1
    10   10    6 1
    11   11   12 1
    12   12   13 ar
    13   13   14 ar
    14   14   15 ar
    15   15   16 ar
    16   16   17 ar
    17   17   12 ar
    18   18   10 3
    19   19   14 1
    20   20   16 1
    21   21    2 1
    22   22   11 2
    23   23   19 2
    24   24   19 2
    25   25   20 2
    26   26   20 2
    27   27    1 1
    28   28    2 1
    29   29    3 1
    30   30    4 1
    31   31    5 1
    32   32    6 1
    33   33    7 1
    34   34    7 1
    35   35    8 1
    36   36    9 1
    37   37   13 1
    38   38   15 1
    39   39   17 1
    40    4    7 1
    41    8    9 2
    42   11   21 1
@<TRIPOS>SUBSTRUCTURE
     1 RES1 1

@<TRIPOS>CRYSIN
  12.1930   10.0090   14.6990  90.0000 115.3500  90.0000  14 2

