# MOL2 file generated by ConQuest
# Please check atom types

@<TRIPOS>MOLECULE
NBCBCO
    49    51     1
SMALL
NO_CHARGES
****
Generated from CSD

@<TRIPOS>ATOM
      1 N1        -3.0033    4.9193    5.2396 N.am      1 RES1    0.0000
      2 C1        -4.4056    4.8402    4.8764 C.3       1 RES1    0.0000
      3 O1        -4.9914    3.8014    5.7065 O.3       1 RES1    0.0000
      4 C2        -4.3004    2.5508    5.6965 C.3       1 RES1    0.0000
      5 C3        -2.8860    2.7099    6.2492 C.3       1 RES1    0.0000
      6 C4        -2.1315    3.7355    5.3872 C.3       1 RES1    0.0000
      7 C5        -1.0887    4.6851    6.0456 C.3       1 RES1    0.0000
      8 C6        -2.1861    5.7549    5.9499 C.2       1 RES1    0.0000
      9 C7        -4.5143    4.5066    3.4079 C.3       1 RES1    0.0000
     10 C8        -5.1257    6.1257    5.2396 C.3       1 RES1    0.0000
     11 O2        -2.2972    6.9046    6.3290 O.2       1 RES1    0.0000
     12 C9        -0.5237    4.3437    7.4084 C.3       1 RES1    0.0000
     13 C10        0.4553    3.1947    7.3406 C.3       1 RES1    0.0000
     14 O3         0.2247    5.5508    7.8035 O.3       1 RES1    0.0000
     15 C11        0.1806    5.8495    9.0844 C.2       1 RES1    0.0000
     16 O4        -0.3850    5.2491    9.9264 O.2       1 RES1    0.0000
     17 O5         0.9255    6.9357    9.2780 O.3       1 RES1    0.0000
     18 C12        0.9369    7.3817   10.6647 C.3       1 RES1    0.0000
     19 C13        1.9084    8.5051   10.7804 C.ar      1 RES1    0.0000
     20 C14        1.4791    9.8309   10.7684 C.ar      1 RES1    0.0000
     21 C15        2.3649   10.8271   11.0159 C.ar      1 RES1    0.0000
     22 C16        3.6588   10.5377   11.2693 C.ar      1 RES1    0.0000
     23 N2         4.6229   11.6378   11.6244 N.pl3     1 RES1    0.0000
     24 O6         4.1768   12.7588   11.5446 O.2       1 RES1    0.0000
     25 O7         5.7126   11.3282   11.9616 O.2       1 RES1    0.0000
     26 C17        4.1286    9.2669   11.2573 C.ar      1 RES1    0.0000
     27 C18        3.2376    8.2545   11.0039 C.ar      1 RES1    0.0000
     28 H1        -1.3176    4.2281    8.1806 H         1 RES1    0.0000
     29 H2        -4.1894    2.2576    4.6889 H         1 RES1    0.0000
     30 H3        -5.0003    1.9162    6.4048 H         1 RES1    0.0000
     31 H4        -2.4263    1.9783    6.1454 H         1 RES1    0.0000
     32 H5        -1.8287    3.3747    4.4893 H         1 RES1    0.0000
     33 H6        -0.3602    4.8487    5.4072 H         1 RES1    0.0000
     34 H7        -4.1427    5.2754    2.8931 H         1 RES1    0.0000
     35 H8        -3.8732    3.6618    3.1525 H         1 RES1    0.0000
     36 H9        -5.3767    4.3367    3.2722 H         1 RES1    0.0000
     37 H10       -5.0532    6.4004    6.3449 H         1 RES1    0.0000
     38 H11       -4.9047    6.8503    4.5093 H         1 RES1    0.0000
     39 H12       -6.0334    5.9814    5.1079 H         1 RES1    0.0000
     40 H13        1.3230    3.2972    6.4447 H         1 RES1    0.0000
     41 H14        0.9088    3.0489    8.1806 H         1 RES1    0.0000
     42 H15        0.0465    2.5136    7.0632 H         1 RES1    0.0000
     43 H16        0.7293    6.6564   11.2134 H         1 RES1    0.0000
     44 H17       -0.0862    7.6571   10.7744 H         1 RES1    0.0000
     45 H18        0.3939   10.0776   10.6148 H         1 RES1    0.0000
     46 H19        2.1334   11.7534   11.1136 H         1 RES1    0.0000
     47 H20        4.9918    9.1312   11.4728 H         1 RES1    0.0000
     48 H21        3.5300    7.5330   11.0737 H         1 RES1    0.0000
     49 H22       -2.9594    3.0799    7.1031 H         1 RES1    0.0000
@<TRIPOS>BOND
     1    1    2 1
     2    2    3 1
     3    3    4 1
     4    4    5 1
     5    5    6 1
     6    6    1 1
     7    7    6 1
     8    8    1 1
     9    9    2 1
    10   10    2 1
    11   11    8 2
    12   12    7 1
    13   13   12 1
    14   14   12 1
    15   15   14 1
    16   16   15 2
    17   17   15 1
    18   18   17 1
    19   19   18 1
    20   20   19 ar
    21   21   20 ar
    22   22   21 ar
    23   23   22 1
    24   24   23 2
    25   25   23 2
    26   26   22 ar
    27   27   19 ar
    28   28   12 1
    29   29    4 1
    30   30    4 1
    31   31    5 1
    32   32    6 1
    33   33    7 1
    34   34    9 1
    35   35    9 1
    36   36    9 1
    37   37   10 1
    38   38   10 1
    39   39   10 1
    40   40   13 1
    41   41   13 1
    42   42   13 1
    43   43   18 1
    44   44   18 1
    45   45   20 1
    46   46   21 1
    47   47   26 1
    48   48   27 1
    49   49    5 1
    50    7    8 1
    51   26   27 ar
@<TRIPOS>SUBSTRUCTURE
     1 RES1 1

@<TRIPOS>CRYSIN
  12.1000    7.7580   20.1130  90.0000  97.2400  90.0000  14 1

