# MOL2 file generated by ConQuest
# Please check atom types

@<TRIPOS>MOLECULE
NBFURX
    19    20     1
SMALL
NO_CHARGES
****
Generated from CSD

@<TRIPOS>ATOM
      1 N1         0.6920    4.6547   12.3183 N.pl3     1 RES1    0.0000
      2 C1         3.4801    4.6461    9.9310 C.ar      1 RES1    0.0000
      3 C2         2.8161    4.5833   11.1432 C.ar      1 RES1    0.0000
      4 C3         1.4299    4.9327    8.6720 C.ar      1 RES1    0.0000
      5 O1        -0.4515    5.0957   12.3014 O.2       1 RES1    0.0000
      6 C4         2.7905    4.8189    8.7533 C.ar      1 RES1    0.0000
      7 N2         5.9364    4.6805    7.3786 N.2       1 RES1    0.0000
      8 O2         5.8265    4.2596   10.3036 O.2       1 RES1    0.0000
      9 O3         3.6171    4.8507    7.6340 O.3       1 RES1    0.0000
     10 C5         4.8906    4.5088    9.5941 C.2       1 RES1    0.0000
     11 C6         0.7616    4.8843    9.8854 C.ar      1 RES1    0.0000
     12 O4         1.2153    4.1681   13.2978 O.2       1 RES1    0.0000
     13 C7         1.4558    4.7201   11.0692 C.ar      1 RES1    0.0000
     14 C8         4.9006    4.6902    8.1098 C.2       1 RES1    0.0000
     15 O5         5.6118    4.8457    6.0298 O.3       1 RES1    0.0000
     16 H1         0.9220    4.9981    7.8165 H         1 RES1    0.0000
     17 H2        -0.1939    4.9658    9.8674 H         1 RES1    0.0000
     18 H3         3.2745    4.5116   11.9959 H         1 RES1    0.0000
     19 H4         6.2744    4.8148    5.6093 H         1 RES1    0.0000
@<TRIPOS>BOND
     1    1    5 2
     2    2    3 ar
     3    3   13 ar
     4    4    6 ar
     5    6    2 ar
     6    7   14 2
     7    8   10 2
     8    9    6 1
     9   10    2 1
    10   11    4 ar
    11   12    1 2
    12   13    1 1
    13   14    9 1
    14   15    7 1
    15   16    4 1
    16   17   11 1
    17   18    3 1
    18   19   15 1
    19   10   14 1
    20   11   13 ar
@<TRIPOS>SUBSTRUCTURE
     1 RES1 1

@<TRIPOS>CRYSIN
   8.2410    6.4220   15.4840  90.0000  91.5200  90.0000  14 1

