# MOL2 file generated by ConQuest
# Please check atom types

@<TRIPOS>MOLECULE
NBMOCT
   120   126     2
SMALL
NO_CHARGES
****
Generated from CSD

@<TRIPOS>ATOM
      1 C1        -6.8368    1.2885   -0.3271 C.3       1 RES1    0.0000
      2 C2        -6.2405    0.0808   -0.9294 C.3       1 RES1    0.0000
      3 C3        -7.2251   -0.8941   -1.5864 C.3       1 RES1    0.0000
      4 C4        -8.6416   -0.9455   -1.0380 C.3       1 RES1    0.0000
      5 C5        -9.0677    0.3699   -0.4749 C.3       1 RES1    0.0000
      6 C6        -9.0135    1.4355   -1.6137 C.3       1 RES1    0.0000
      7 C7        -7.5768    2.0381   -1.5808 C.3       1 RES1    0.0000
      8 C8        -8.0766    1.0190    0.5897 C.3       1 RES1    0.0000
      9 C9        -5.7584    2.2120    0.3082 C.3       1 RES1    0.0000
     10 C10       -7.7700    0.1029    1.8000 C.3       1 RES1    0.0000
     11 C11       -8.6856    2.3173    1.1438 C.3       1 RES1    0.0000
     12 O1        -5.5219   -0.6761    0.1387 O.3       1 RES1    0.0000
     13 O2        -4.0195   -1.3987   -1.3651 O.2       1 RES1    0.0000
     14 C12       -4.4610   -1.3987   -0.2514 C.2       1 RES1    0.0000
     15 C13       -3.8432   -2.1752    0.9189 C.ar      1 RES1    0.0000
     16 C14       -4.4475   -2.2095    2.1509 C.ar      1 RES1    0.0000
     17 C15       -3.8551   -3.0204    3.1350 C.ar      1 RES1    0.0000
     18 C16       -2.7487   -3.7454    2.8394 C.ar      1 RES1    0.0000
     19 C17       -2.1386   -3.7038    1.6389 C.ar      1 RES1    0.0000
     20 C18       -2.6763   -2.9077    0.6479 C.ar      1 RES1    0.0000
     21 N1        -2.1913   -4.6493    3.8872 N.pl3     1 RES1    0.0000
     22 O3        -2.6517   -4.5318    4.9966 O.2       1 RES1    0.0000
     23 O4        -1.3336   -5.4381    3.5475 O.2       1 RES1    0.0000
     24 O5        -8.6684   -1.9548    0.0154 O.3       1 RES1    0.0000
     25 O6        -9.2526   -3.4833   -1.4940 O.2       1 RES1    0.0000
     26 C19       -9.0087   -3.2041   -0.3523 C.2       1 RES1    0.0000
     27 C20       -8.9419   -4.1962    0.7543 C.ar      1 RES1    0.0000
     28 C21       -8.6766   -3.8189    2.0725 C.ar      1 RES1    0.0000
     29 C22       -8.6336   -4.7620    3.0734 C.ar      1 RES1    0.0000
     30 C23       -8.8467   -6.0530    2.7351 C.ar      1 RES1    0.0000
     31 C24       -9.1057   -6.4669    1.4372 C.ar      1 RES1    0.0000
     32 C25       -9.1820   -5.5287    0.4581 C.ar      1 RES1    0.0000
     33 N2        -8.7605   -7.0793    3.7710 N.pl3     1 RES1    0.0000
     34 O7        -8.5085   -6.7462    4.9224 O.2       1 RES1    0.0000
     35 O8        -8.9346   -8.2527    3.4761 O.2       1 RES1    0.0000
     36 C26        1.3331  -10.4206    3.2548 C.3       2 RES2    0.0000
     37 C27        0.9955   -9.0635    3.9082 C.3       2 RES2    0.0000
     38 C28       -0.4073   -8.9827    4.5232 C.3       2 RES2    0.0000
     39 C29       -1.4384   -9.8572    3.7618 C.3       2 RES2    0.0000
     40 C30       -0.9499  -11.0844    3.1231 C.3       2 RES2    0.0000
     41 C31       -0.3110  -11.9173    4.3502 C.3       2 RES2    0.0000
     42 C32        1.1596  -11.4935    4.3341 C.3       2 RES2    0.0000
     43 C33        0.2728  -10.8787    2.2070 C.3       2 RES2    0.0000
     44 C34        2.7848  -10.3667    2.6986 C.3       2 RES2    0.0000
     45 C35       -0.0037   -9.9037    1.0751 C.3       2 RES2    0.0000
     46 C36        0.6678  -12.2088    1.5633 C.3       2 RES2    0.0000
     47 O9         1.1336   -7.9979    2.9032 O.3       2 RES2    0.0000
     48 O10        1.8198   -6.5943    4.5309 O.2       2 RES2    0.0000
     49 C37        1.5225   -6.8123    3.3157 C.2       2 RES2    0.0000
     50 C38        1.5281   -5.7149    2.3190 C.ar      2 RES2    0.0000
     51 C39        1.2858   -6.0260    0.9820 C.ar      2 RES2    0.0000
     52 C40        1.3031   -5.0290    0.0154 C.ar      2 RES2    0.0000
     53 C41        1.6060   -3.7675    0.4202 C.ar      2 RES2    0.0000
     54 C42        1.8518   -3.4466    1.7132 C.ar      2 RES2    0.0000
     55 C43        1.8500   -4.4656    2.6874 C.ar      2 RES2    0.0000
     56 N3         1.7170   -2.6529   -0.6072 N.pl3     2 RES2    0.0000
     57 O11        1.3567   -2.9542   -1.7356 O.2       2 RES2    0.0000
     58 O12        2.1110   -1.5947   -0.2157 O.2       2 RES2    0.0000
     59 O13       -2.1200   -9.0121    2.7883 O.3       2 RES2    0.0000
     60 O14       -3.5661   -8.2258    4.2927 O.2       2 RES2    0.0000
     61 C44       -3.1169   -8.2429    3.1749 C.2       2 RES2    0.0000
     62 C45       -3.6905   -7.3929    2.0746 C.ar      2 RES2    0.0000
     63 C46       -3.0825   -7.3708    0.8293 C.ar      2 RES2    0.0000
     64 C47       -3.5821   -6.5331   -0.1863 C.ar      2 RES2    0.0000
     65 C48       -4.6776   -5.7860    0.1275 C.ar      2 RES2    0.0000
     66 C49       -5.3366   -5.8251    1.3259 C.ar      2 RES2    0.0000
     67 C50       -4.7949   -6.6531    2.3015 C.ar      2 RES2    0.0000
     68 N4        -5.2080   -4.8478   -0.9539 N.pl3     2 RES2    0.0000
     69 O15       -4.6851   -4.8943   -2.0094 O.2       2 RES2    0.0000
     70 O16       -6.0844   -4.0737   -0.6367 O.2       2 RES2    0.0000
     71 H1        -5.5111    0.2450   -1.5199 H         1 RES1    0.0000
     72 H2        -7.2960   -0.5634   -2.3533 H         1 RES1    0.0000
     73 H3        -6.9166   -1.8617   -1.4568 H         1 RES1    0.0000
     74 H4        -9.3004   -1.2003   -1.6810 H         1 RES1    0.0000
     75 H5        -9.2357    0.9553   -2.4584 H         1 RES1    0.0000
     76 H6        -9.7527    2.1556   -1.4288 H         1 RES1    0.0000
     77 H7        -7.6483    3.0375   -1.3798 H         1 RES1    0.0000
     78 H8        -6.9922    1.8617   -2.3183 H         1 RES1    0.0000
     79 H9        -5.2120    1.6167    0.9736 H         1 RES1    0.0000
     80 H10       -5.1026    2.6456   -0.3852 H         1 RES1    0.0000
     81 H11       -6.1603    2.8905    0.7564 H         1 RES1    0.0000
     82 H12       -5.2430   -1.6657    2.3673 H         1 RES1    0.0000
     83 H13       -4.2142   -3.1355    3.9853 H         1 RES1    0.0000
     84 H14       -1.3317   -4.2378    1.4218 H         1 RES1    0.0000
     85 H15       -2.2007   -2.8170   -0.2241 H         1 RES1    0.0000
     86 H16       -8.5643   -2.8905    2.2693 H         1 RES1    0.0000
     87 H17       -8.4749   -4.4583    3.9432 H         1 RES1    0.0000
     88 H18       -9.2189   -7.4223    1.2537 H         1 RES1    0.0000
     89 H19       -9.3898   -5.7566   -0.5183 H         1 RES1    0.0000
     90 H20       -7.0948    0.6369    2.4864 H         1 RES1    0.0000
     91 H21       -8.6206   -0.1225    2.2693 H         1 RES1    0.0000
     92 H22       -7.3200   -0.6859    1.5129 H         1 RES1    0.0000
     93 H23       -8.1036    2.7436    1.8070 H         1 RES1    0.0000
     94 H24       -8.8363    3.0130    0.5113 H         1 RES1    0.0000
     95 H25       -9.6044    2.2046    1.5269 H         1 RES1    0.0000
     96 H26        1.6706   -8.8920    4.4896 H         2 RES2    0.0000
     97 H27       -0.3929   -9.4310    5.4211 H         2 RES2    0.0000
     98 H28       -0.6443   -8.0347    4.5176 H         2 RES2    0.0000
     99 H29       -2.2166  -10.0434    4.4055 H         2 RES2    0.0000
    100 H30       -1.6997  -11.4886    2.6475 H         2 RES2    0.0000
    101 H31       -0.7643  -11.7826    5.1269 H         2 RES2    0.0000
    102 H32        1.7400  -12.2970    4.0903 H         2 RES2    0.0000
    103 H33        3.4161   -9.6759    3.3619 H         2 RES2    0.0000
    104 H34       -0.4010  -12.9094    4.0903 H         2 RES2    0.0000
    105 H35        1.3131  -11.1457    5.1689 H         2 RES2    0.0000
    106 H36        3.1415  -11.1702    2.5915 H         2 RES2    0.0000
    107 H37        2.8382   -9.8719    1.9051 H         2 RES2    0.0000
    108 H38        1.1516   -6.9324    0.7494 H         2 RES2    0.0000
    109 H39        1.1039   -5.2421   -0.8405 H         2 RES2    0.0000
    110 H40        1.9571   -2.4496    2.0312 H         2 RES2    0.0000
    111 H41        2.0138   -4.3358    3.4880 H         2 RES2    0.0000
    112 H42       -2.3094   -7.8877    0.6444 H         2 RES2    0.0000
    113 H43       -3.0288   -6.3935   -0.8895 H         2 RES2    0.0000
    114 H44       -6.1686   -5.3401    1.5339 H         2 RES2    0.0000
    115 H45       -5.3671   -6.8344    3.0818 H         2 RES2    0.0000
    116 H46        0.8838   -9.7984    0.5883 H         2 RES2    0.0000
    117 H47       -0.5697  -10.3373    0.4413 H         2 RES2    0.0000
    118 H48       -0.3593   -8.9900    1.3378 H         2 RES2    0.0000
    119 H49        0.0763  -12.4440    0.9385 H         2 RES2    0.0000
    120 H50        0.6951  -13.0319    2.2413 H         2 RES2    0.0000
@<TRIPOS>BOND
     1    1    2 1
     2    2    3 1
     3    3    4 1
     4    4    5 1
     5    5    6 1
     6    6    7 1
     7    7    1 1
     8    8    1 1
     9    9    1 1
    10   10    8 1
    11   11    8 1
    12   12    2 1
    13   13   14 2
    14   14   12 1
    15   15   14 1
    16   16   15 ar
    17   17   16 ar
    18   18   17 ar
    19   19   18 ar
    20   20   15 ar
    21   21   18 1
    22   22   21 2
    23   23   21 2
    24   24    4 1
    25   25   26 2
    26   26   24 1
    27   27   26 1
    28   28   27 ar
    29   29   28 ar
    30   30   29 ar
    31   31   30 ar
    32   32   27 ar
    33   33   30 1
    34   34   33 2
    35   35   33 2
    36   36   37 1
    37   37   38 1
    38   38   39 1
    39   39   40 1
    40   40   41 1
    41   41   42 1
    42   42   36 1
    43   43   36 1
    44   44   36 1
    45   45   43 1
    46   46   43 1
    47   47   37 1
    48   48   49 2
    49   49   47 1
    50   50   49 1
    51   51   50 ar
    52   52   51 ar
    53   53   52 ar
    54   54   53 ar
    55   55   50 ar
    56   56   53 1
    57   57   56 2
    58   58   56 2
    59   59   39 1
    60   60   61 2
    61   61   59 1
    62   62   61 1
    63   63   62 ar
    64   64   63 ar
    65   65   64 ar
    66   66   65 ar
    67   67   62 ar
    68   68   65 1
    69   69   68 2
    70   70   68 2
    71   71    2 1
    72   72    3 1
    73   73    3 1
    74   74    4 1
    75   75    6 1
    76   76    6 1
    77   77    7 1
    78   78    7 1
    79   79    9 1
    80   80    9 1
    81   81    9 1
    82   82   16 1
    83   83   17 1
    84   84   19 1
    85   85   20 1
    86   86   28 1
    87   87   29 1
    88   88   31 1
    89   89   32 1
    90   90   10 1
    91   91   10 1
    92   92   10 1
    93   93   11 1
    94   94   11 1
    95   95   11 1
    96   96   37 1
    97   97   38 1
    98   98   38 1
    99   99   39 1
   100  100   40 1
   101  101   41 1
   102  102   42 1
   103  103   44 1
   104  104   41 1
   105  105   42 1
   106  106   44 1
   107  107   44 1
   108  108   51 1
   109  109   52 1
   110  110   54 1
   111  111   55 1
   112  112   63 1
   113  113   64 1
   114  114   66 1
   115  115   67 1
   116  116   45 1
   117  117   45 1
   118  118   45 1
   119  119   46 1
   120  120   46 1
   121    5    8 1
   122   19   20 ar
   123   31   32 ar
   124   40   43 1
   125   54   55 ar
   126   66   67 ar
@<TRIPOS>SUBSTRUCTURE
     1 RES1 1
     2 RES2 36

@<TRIPOS>CRYSIN
  14.0860   24.4960    7.1090  90.0000  99.8600  90.0000   4 1

