# MOL2 file generated by ConQuest
# Please check atom types

@<TRIPOS>MOLECULE
NBPHEN
    24    25     1
SMALL
NO_CHARGES
****
Generated from CSD

@<TRIPOS>ATOM
      1 C1       -18.4148    4.6492    1.3146 C.ar      1 RES1    0.0000
      2 C2       -11.9624    2.8289   -0.7992 C.ar      1 RES1    0.0000
      3 C3       -12.2990    4.1671   -0.7492 C.ar      1 RES1    0.0000
      4 C4       -13.5500    4.5184   -0.3042 C.ar      1 RES1    0.0000
      5 C5       -18.2106    3.4667    0.6334 C.ar      1 RES1    0.0000
      6 C6       -16.9317    3.1006    0.2437 C.ar      1 RES1    0.0000
      7 C7       -15.8339    3.9261    0.5222 C.ar      1 RES1    0.0000
      8 C8       -16.0706    5.1256    1.1988 C.ar      1 RES1    0.0000
      9 C9       -17.3518    5.4792    1.5961 C.ar      1 RES1    0.0000
     10 C10      -14.4738    3.5520    0.0795 C.ar      1 RES1    0.0000
     11 C11      -14.1001    2.2035    0.0098 C.ar      1 RES1    0.0000
     12 C12      -12.8421    1.8385   -0.4276 C.ar      1 RES1    0.0000
     13 H1       -19.2643    4.8891    1.5439 H         1 RES1    0.0000
     14 H2       -18.9394    2.8652    0.4616 H         1 RES1    0.0000
     15 H3       -16.8040    2.2967   -0.2119 H         1 RES1    0.0000
     16 H4       -15.2954    5.6964    1.4379 H         1 RES1    0.0000
     17 H5       -17.5003    6.2762    2.1342 H         1 RES1    0.0000
     18 H6       -14.7848    1.4781    0.1665 H         1 RES1    0.0000
     19 H7       -12.5566    0.8755   -0.4087 H         1 RES1    0.0000
     20 H8       -11.7210    4.7981   -1.0671 H         1 RES1    0.0000
     21 H9       -13.8100    5.4576   -0.2800 H         1 RES1    0.0000
     22 N1       -10.6371    2.4571   -1.3009 N.pl3     1 RES1    0.0000
     23 O1       -10.3377    1.2814   -1.3335 O.2       1 RES1    0.0000
     24 O2        -9.8782    3.3394   -1.6604 O.2       1 RES1    0.0000
@<TRIPOS>BOND
     1    1    5 ar
     2    2    3 ar
     3    3    4 ar
     4    4   10 ar
     5    5    6 ar
     6    6    7 ar
     7    7    8 ar
     8    8    9 ar
     9    9    1 ar
    10   10    7 1
    11   11   10 ar
    12   12    2 ar
    13   13    1 1
    14   14    5 1
    15   15    6 1
    16   16    8 1
    17   17    9 1
    18   18   11 1
    19   19   12 1
    20   20    3 1
    21   21    4 1
    22   22    2 1
    23   23   22 2
    24   24   22 2
    25   11   12 ar
@<TRIPOS>SUBSTRUCTURE
     1 RES1 1

@<TRIPOS>CRYSIN
  23.2100   11.3700    7.5680  90.0000  90.0000  90.0000  61 1

