# MOL2 file generated by ConQuest
# Please check atom types

@<TRIPOS>MOLECULE
NBZANO
    22    24     1
SMALL
NO_CHARGES
****
Generated from CSD

@<TRIPOS>ATOM
      1 C1        -2.0559    4.4295   -0.4370 C.ar      1 RES1    0.0000
      2 C2        -1.8287    3.1014    0.0756 C.ar      1 RES1    0.0000
      3 C3        -3.4257    7.4306    0.8905 C.ar      1 RES1    0.0000
      4 C4        -3.6059    7.1102    2.2439 C.ar      1 RES1    0.0000
      5 C5        -4.1796    8.0347    3.1604 C.ar      1 RES1    0.0000
      6 C6        -4.4942    9.3139    2.6082 C.ar      1 RES1    0.0000
      7 C7        -4.3061    9.6344    1.2872 C.ar      1 RES1    0.0000
      8 C8        -3.7566    8.6976    0.4132 C.ar      1 RES1    0.0000
      9 C9        -1.6550    4.8086   -1.7774 C.ar      1 RES1    0.0000
     10 C10       -1.0110    3.7960   -2.5916 C.ar      1 RES1    0.0000
     11 C11       -0.8267    2.5364   -2.1100 C.ar      1 RES1    0.0000
     12 C12       -1.2150    2.1450   -0.7905 C.ar      1 RES1    0.0000
     13 C13       -1.0347    0.7998   -0.3247 C.ar      1 RES1    0.0000
     14 C14       -1.3746    0.4403    0.9049 C.ar      1 RES1    0.0000
     15 C15       -2.0125    1.3819    1.8033 C.ar      1 RES1    0.0000
     16 C16       -2.2091    2.6660    1.3369 C.ar      1 RES1    0.0000
     17 N1        -2.6140    5.2831    0.4175 N.2       1 RES1    0.0000
     18 N2        -2.8726    6.5232   -0.0353 N.2       1 RES1    0.0000
     19 N3        -5.0844   10.2776    3.5671 N.pl3     1 RES1    0.0000
     20 O1        -1.8844    5.9606   -2.2288 O.3       1 RES1    0.0000
     21 O2        -5.2998    9.9401    4.7161 O.2       1 RES1    0.0000
     22 O3        -5.4049   11.3587    3.0970 O.2       1 RES1    0.0000
@<TRIPOS>BOND
     1    1    2 ar
     2    2   12 ar
     3    3    4 ar
     4    4    5 ar
     5    5    6 ar
     6    6    7 ar
     7    7    8 ar
     8    8    3 ar
     9    9    1 ar
    10   10    9 ar
    11   11   10 ar
    12   12   11 ar
    13   13   12 ar
    14   14   13 ar
    15   15   14 ar
    16   16    2 ar
    17   17    1 1
    18   18    3 1
    19   19    6 1
    20   20    9 1
    21   21   19 2
    22   22   19 2
    23   15   16 ar
    24   17   18 2
@<TRIPOS>SUBSTRUCTURE
     1 RES1 1

@<TRIPOS>CRYSIN
   3.7970   27.0360    7.1990  90.0000  90.0000 115.2200   7 3

