# MOL2 file generated by ConQuest
# Please check atom types

@<TRIPOS>MOLECULE
NBZANO12
    33    35     1
SMALL
USER_CHARGES
****
Generated from CSD

@<TRIPOS>ATOM
      1 N1        26.8499    1.8852    8.4130 N.2       1 RES1    0.0000
      2 N2        25.6503    1.3468    8.5480 N.pl3     1 RES1    1.0000
      3 N3        22.2544    0.9299    4.1239 N.pl3     1 RES1    0.0000
      4 O1        26.1894    0.9845   11.0455 O.2       1 RES1   -1.0000
      5 O2        21.1852    0.3384    4.2499 O.2       1 RES1    0.0000
      6 O3        22.6305    1.4283    3.0562 O.2       1 RES1    0.0000
      7 C1        23.1339    1.0469    5.2824 C.ar      1 RES1    0.0000
      8 C2        27.6445    1.9906    9.4564 C.ar      1 RES1    0.0000
      9 C3        29.4593    2.3080   11.6008 C.ar      1 RES1    0.0000
     10 H1        30.0672    2.4344   12.3202 H         1 RES1    0.0000
     11 C4        23.5687    0.6640    7.5882 C.ar      1 RES1    0.0000
     12 H2        23.3003    0.3361    8.4385 H         1 RES1    0.0000
     13 C5        27.2893    1.5296   10.8143 C.ar      1 RES1    0.0000
     14 C6        28.9624    2.5862    9.2047 C.ar      1 RES1    0.0000
     15 C7        24.3781    1.6294    5.1066 C.ar      1 RES1    0.0000
     16 H3        24.6372    1.9573    4.2548 H         1 RES1    0.0000
     17 C8        28.2753    1.7341   11.8548 C.ar      1 RES1    0.0000
     18 H4        28.0775    1.4541   12.7407 H         1 RES1    0.0000
     19 C9        24.8258    1.2503    7.4284 C.ar      1 RES1    0.0000
     20 C10       22.7157    0.5623    6.5086 C.ar      1 RES1    0.0000
     21 H5        21.8586    0.1671    6.6054 H         1 RES1    0.0000
     22 C11       25.2332    1.7285    6.1815 C.ar      1 RES1    0.0000
     23 H6        26.0948    2.1185    6.0749 H         1 RES1    0.0000
     24 C12       29.8562    2.7436   10.2814 C.ar      1 RES1    0.0000
     25 C13       29.3651    3.0023    7.9285 C.ar      1 RES1    0.0000
     26 H7        28.7683    2.9104    7.1942 H         1 RES1    0.0000
     27 C14       31.1226    3.2996   10.0522 C.ar      1 RES1    0.0000
     28 H8        31.7228    3.4088   10.7805 H         1 RES1    0.0000
     29 C15       30.6129    3.5415    7.7266 C.ar      1 RES1    0.0000
     30 H9        30.8696    3.8170    6.8534 H         1 RES1    0.0000
     31 C16       31.5103    3.6899    8.7908 C.ar      1 RES1    0.0000
     32 H10       32.3752    4.0548    8.6433 H         1 RES1    0.0000
     33 H11       25.3834    1.0918    9.3658 H         1 RES1    0.0000
@<TRIPOS>BOND
     1    1    2 2
     2    2   19 1
     3    3    5 2
     4    4   13 1
     5    6    3 2
     6    7    3 1
     7    8    1 1
     8    9   10 1
     9   11   12 1
    10   13    8 ar
    11   14    8 ar
    12   15    7 ar
    13   16   15 1
    14   17    9 ar
    15   18   17 1
    16   19   11 ar
    17   20    7 ar
    18   21   20 1
    19   22   15 ar
    20   23   22 1
    21   24    9 ar
    22   25   14 ar
    23   26   25 1
    24   27   24 ar
    25   28   27 1
    26   29   25 ar
    27   30   29 1
    28   31   27 ar
    29   32   31 1
    30   33    2 1
    31   11   20 ar
    32   13   17 ar
    33   14   24 ar
    34   19   22 ar
    35   29   31 ar
@<TRIPOS>SUBSTRUCTURE
     1 RES1 1

@<TRIPOS>CRYSIN
  32.5810    3.7389   26.6500  90.0000 125.9820  90.0000  15 1

