# MOL2 file generated by ConQuest
# Please check atom types

@<TRIPOS>MOLECULE
NBZOAC02
    17    17     1
SMALL
NO_CHARGES
****
Generated from CSD

@<TRIPOS>ATOM
      1 O1        -4.2485   -3.4958    7.4325 O.2       1 RES1    0.0000
      2 O2        -2.2944   -3.3546    6.5304 O.2       1 RES1    0.0000
      3 O3        -2.5923    1.3449   12.0142 O.2       1 RES1    0.0000
      4 O4        -0.7601    1.8401   10.8105 O.3       1 RES1    0.0000
      5 N1        -3.1397   -2.9960    7.3418 N.pl3     1 RES1    0.0000
      6 C1        -2.7888   -1.9035    8.2660 C.ar      1 RES1    0.0000
      7 C2        -3.6204   -1.7041    9.3569 C.ar      1 RES1    0.0000
      8 C3        -3.2994   -0.7018   10.2467 C.ar      1 RES1    0.0000
      9 C4        -2.1691    0.0768   10.0457 C.ar      1 RES1    0.0000
     10 C5        -1.3489   -0.1572    8.9450 C.ar      1 RES1    0.0000
     11 C6        -1.6443   -1.1615    8.0405 C.ar      1 RES1    0.0000
     12 C7        -1.8498    1.1342   11.0336 C.2       1 RES1    0.0000
     13 H1        -4.4441   -2.2416    9.4133 H         1 RES1    0.0000
     14 H2        -3.8802   -0.5101   11.0066 H         1 RES1    0.0000
     15 H3        -0.6509    0.3762    8.8740 H         1 RES1    0.0000
     16 H4        -1.1367   -1.2779    7.3051 H         1 RES1    0.0000
     17 H5        -0.5774    2.5713   11.6195 H         1 RES1    0.0000
@<TRIPOS>BOND
     1    1    5 2
     2    2    5 2
     3    3   12 2
     4    4   12 1
     5    5    6 1
     6    6    7 ar
     7    7    8 ar
     8    8    9 ar
     9    9   10 ar
    10   10   11 ar
    11   11    6 ar
    12   12    9 1
    13   13    7 1
    14   14    8 1
    15   15   10 1
    16   16   11 1
    17   17    4 1
@<TRIPOS>SUBSTRUCTURE
     1 RES1 1

@<TRIPOS>CRYSIN
   5.4030    5.1530   24.6920  90.0000  96.8900  90.0000  14 1

