# MOL2 file generated by ConQuest
# Please check atom types

@<TRIPOS>MOLECULE
NBZOAC03
    17    17     1
SMALL
NO_CHARGES
****
Generated from CSD

@<TRIPOS>ATOM
      1 O1        -5.9814    1.2137    1.0279 O.2       1 RES1    0.0000
      2 O2        -8.0523    0.7915    0.3175 O.3       1 RES1    0.0000
      3 O3        -8.5969    5.9497    5.3004 O.2       1 RES1    0.0000
      4 O4       -10.4528    5.9116    4.1979 O.2       1 RES1    0.0000
      5 N1        -9.3161    5.5238    4.4069 N.pl3     1 RES1    0.0000
      6 C1        -7.7621    2.5154    1.9041 C.ar      1 RES1    0.0000
      7 C2        -6.9055    3.2352    2.7350 C.ar      1 RES1    0.0000
      8 C3        -7.4083    4.2220    3.5696 C.ar      1 RES1    0.0000
      9 C4        -8.7661    4.4678    3.5345 C.ar      1 RES1    0.0000
     10 C5        -9.6399    3.7818    2.7166 C.ar      1 RES1    0.0000
     11 C6        -9.1265    2.7854    1.8948 C.ar      1 RES1    0.0000
     12 C7        -7.1924    1.4486    1.0414 C.2       1 RES1    0.0000
     13 H1        -7.5905    0.0313   -0.2221 H         1 RES1    0.0000
     14 H2        -5.9643    3.0585    2.7331 H         1 RES1    0.0000
     15 H3        -6.8228    4.7526    4.1441 H         1 RES1    0.0000
     16 H4       -10.5594    3.9847    2.7564 H         1 RES1    0.0000
     17 H5        -9.7245    2.2724    1.3264 H         1 RES1    0.0000
@<TRIPOS>BOND
     1    1   12 2
     2    2   12 1
     3    3    5 2
     4    4    5 2
     5    5    9 1
     6    6    7 ar
     7    7    8 ar
     8    8    9 ar
     9    9   10 ar
    10   10   11 ar
    11   11    6 ar
    12   12    6 1
    13   13    2 1
    14   14    7 1
    15   15    8 1
    16   16   10 1
    17   17   11 1
@<TRIPOS>SUBSTRUCTURE
     1 RES1 1

@<TRIPOS>CRYSIN
  12.9180    5.0420   21.2980  90.0000  96.6600  90.0000  15 2

