# MOL2 file generated by ConQuest
# Please check atom types

@<TRIPOS>MOLECULE
NBZOAC11
    17    17     1
SMALL
NO_CHARGES
****
Generated from CSD

@<TRIPOS>ATOM
      1 C1         2.0193    2.4975    2.2123 C.ar      1 RES1    0.0000
      2 N1         1.0263    5.5797    4.9209 N.pl3     1 RES1    0.0000
      3 O1         3.4209    0.7443    1.4440 O.3       1 RES1    0.0000
      4 H1         3.6255    0.0519    0.7136 H         1 RES1    0.0000
      5 O2         1.5972    1.2298    0.2509 O.2       1 RES1    0.0000
      6 O3        -0.0832    6.0828    4.8155 O.2       1 RES1    0.0000
      7 O4         1.8645    5.9282    5.7405 O.2       1 RES1    0.0000
      8 C2         2.8378    2.7252    3.3190 C.ar      1 RES1    0.0000
      9 H2         3.6125    2.1925    3.4554 H         1 RES1    0.0000
     10 C3         2.5189    3.7367    4.2262 C.ar      1 RES1    0.0000
     11 H3         3.0639    3.9037    4.9857 H         1 RES1    0.0000
     12 C4         1.3811    4.4878    3.9829 C.ar      1 RES1    0.0000
     13 C5         0.5485    4.2782    2.9017 C.ar      1 RES1    0.0000
     14 H4        -0.2314    4.8063    2.7785 H         1 RES1    0.0000
     15 C6         0.8799    3.2746    1.9997 C.ar      1 RES1    0.0000
     16 H5         0.3318    3.1179    1.2385 H         1 RES1    0.0000
     17 C7         2.3489    1.4301    1.2255 C.2       1 RES1    0.0000
@<TRIPOS>BOND
     1    1    8 ar
     2    2    6 2
     3    3    4 1
     4    5   17 2
     5    7    2 2
     6    8    9 1
     7   10    8 ar
     8   11   10 1
     9   12    2 1
    10   13   12 ar
    11   14   13 1
    12   15    1 ar
    13   16   15 1
    14   17    1 1
    15    3   17 1
    16   10   12 ar
    17   13   15 ar
@<TRIPOS>SUBSTRUCTURE
     1 RES1 1

@<TRIPOS>CRYSIN
   5.4273    5.1870   24.6620  90.0000  96.0690  90.0000 231 1

