# MOL2 file generated by ConQuest
# Please check atom types

@<TRIPOS>MOLECULE
NBZOAO02
    17    17     1
SMALL
NO_CHARGES
****
Generated from CSD

@<TRIPOS>ATOM
      1 C1        -2.2616   -1.7365    1.9239 C.ar      1 RES1    0.0000
      2 C2        -1.9317   -2.6500    2.9186 C.ar      1 RES1    0.0000
      3 C3        -2.8338   -3.5202    3.4841 C.ar      1 RES1    0.0000
      4 C4        -4.1476   -3.4344    3.1054 C.ar      1 RES1    0.0000
      5 C5        -4.5379   -2.5390    2.1654 C.ar      1 RES1    0.0000
      6 C6        -3.5781   -1.6902    1.5602 C.ar      1 RES1    0.0000
      7 C7        -1.2632   -0.9544    1.1209 C.2       1 RES1    0.0000
      8 H1        -1.0754    0.5837    0.0397 H         1 RES1    0.0000
      9 H2        -2.5887   -4.0943    4.0644 H         1 RES1    0.0000
     10 H3        -4.7733   -4.0629    3.4781 H         1 RES1    0.0000
     11 H4        -5.5078   -2.6554    2.1564 H         1 RES1    0.0000
     12 H5        -3.9594   -1.1045    0.6757 H         1 RES1    0.0000
     13 N1        -0.5544   -2.6685    3.4533 N.pl3     1 RES1    0.0000
     14 O1        -0.0896   -1.2960    1.0375 O.2       1 RES1    0.0000
     15 O2        -1.7173    0.0799    0.4969 O.3       1 RES1    0.0000
     16 O3        -0.0777   -1.6294    3.8796 O.2       1 RES1    0.0000
     17 O4        -0.0005   -3.7299    3.4910 O.2       1 RES1    0.0000
@<TRIPOS>BOND
     1    1    2 ar
     2    2    3 ar
     3    3    4 ar
     4    4    5 ar
     5    5    6 ar
     6    6    1 ar
     7    7    1 1
     8    8   15 1
     9    9    3 1
    10   10    4 1
    11   11    5 1
    12   12    6 1
    13   13    2 1
    14   14    7 2
    15   15    7 1
    16   16   13 2
    17   17   13 2
@<TRIPOS>SUBSTRUCTURE
     1 RES1 1

@<TRIPOS>CRYSIN
   7.5500    4.9900   12.5000 122.5000  95.3000 108.9000   2 1

