# MOL2 file generated by ConQuest
# Please check atom types

@<TRIPOS>MOLECULE
NBZOAO
    12    12     1
SMALL
NO_CHARGES
****
Generated from CSD

@<TRIPOS>ATOM
      1 C1        -2.2442   -1.7414    1.9159 C.ar      1 RES1    0.0000
      2 C2        -1.9239   -2.6555    2.9127 C.ar      1 RES1    0.0000
      3 C3        -2.8448   -3.5419    3.4990 C.ar      1 RES1    0.0000
      4 C4        -4.1627   -3.4443    3.1104 C.ar      1 RES1    0.0000
      5 C5        -4.5593   -2.5447    2.1674 C.ar      1 RES1    0.0000
      6 C6        -3.5999   -1.6817    1.5582 C.ar      1 RES1    0.0000
      7 C7        -1.2646   -0.9536    1.1180 C.2       1 RES1    0.0000
      8 N1        -0.5586   -2.6751    3.4483 N.pl3     1 RES1    0.0000
      9 O1        -0.0898   -1.2879    1.0404 O.co2     1 RES1    0.0000
     10 O2        -1.7079    0.0852    0.4830 O.co2     1 RES1    0.0000
     11 O3        -0.0751   -1.6270    3.8845 O.2       1 RES1    0.0000
     12 O4         0.0103   -3.7363    3.4801 O.2       1 RES1    0.0000
@<TRIPOS>BOND
     1    1    2 ar
     2    2    3 ar
     3    3    4 ar
     4    4    5 ar
     5    5    6 ar
     6    6    1 ar
     7    7    1 1
     8    8    2 1
     9    9    7 2
    10   10    7 1
    11   11    8 2
    12   12    8 2
@<TRIPOS>SUBSTRUCTURE
     1 RES1 1

@<TRIPOS>CRYSIN
   7.5500    4.9900   12.5000 122.5000  95.3000 108.9000   2 1

