# MOL2 file generated by ConQuest
# Please check atom types

@<TRIPOS>MOLECULE
NBZOAC14
    17    17     1
SMALL
NO_CHARGES
****
Generated from CSD

@<TRIPOS>ATOM
      1 O1        -0.1915    5.8486   18.0756 O.2       1 RES1    0.0000
      2 O2         1.7272    6.0215   17.1221 O.2       1 RES1    0.0000
      3 O3        -1.8265    0.7453   13.7633 O.3       1 RES1    0.0000
      4 H1        -1.8682    0.1172   13.2377 H         1 RES1    0.0000
      5 O4        -0.0162    1.2136   12.5616 O.2       1 RES1    0.0000
      6 N1         0.6250    5.5168   17.2378 N.pl3     1 RES1    0.0000
      7 C1         0.2563    4.4309   16.2985 C.ar      1 RES1    0.0000
      8 C2        -0.8723    3.6918   16.5428 C.ar      1 RES1    0.0000
      9 H2        -1.4006    3.8574   17.2900 H         1 RES1    0.0000
     10 C3        -1.2018    2.6938   15.6461 C.ar      1 RES1    0.0000
     11 H3        -1.9567    2.1709   15.7931 H         1 RES1    0.0000
     12 C4        -0.4146    2.4683   14.5336 C.ar      1 RES1    0.0000
     13 C5         0.7187    3.2293   14.3214 C.ar      1 RES1    0.0000
     14 H4         1.2506    3.0709   13.5749 H         1 RES1    0.0000
     15 C6         1.0645    4.2236   15.2131 C.ar      1 RES1    0.0000
     16 H5         1.8269    4.7392   15.0792 H         1 RES1    0.0000
     17 C7        -0.7594    1.4151   13.5439 C.2       1 RES1    0.0000
@<TRIPOS>BOND
     1    1    6 2
     2    2    6 2
     3    3    4 1
     4    5   17 2
     5    6    7 1
     6    7    8 ar
     7    8    9 1
     8   10    8 ar
     9   11   10 1
    10   12   10 ar
    11   13   12 ar
    12   14   13 1
    13   15    7 ar
    14   16   15 1
    15   17    3 1
    16   12   17 1
    17   13   15 ar
@<TRIPOS>SUBSTRUCTURE
     1 RES1 1

@<TRIPOS>CRYSIN
   5.4729    5.2085   24.7290  90.0000  95.4050  90.0000  14 1

