# MOL2 file generated by ConQuest
# Please check atom types

@<TRIPOS>MOLECULE
NBZOAC05
    17    17     1
SMALL
NO_CHARGES
****
Generated from CSD

@<TRIPOS>ATOM
      1 O1         6.9242    1.2310    0.9943 O.2       1 RES1    0.0000
      2 O2         4.8358    0.7456    0.2940 O.3       1 RES1    0.0000
      3 O3         4.3192    5.9500    5.3484 O.2       1 RES1    0.0000
      4 O4         2.4453    5.8949    4.2266 O.2       1 RES1    0.0000
      5 N1         3.5907    5.5046    4.4403 N.pl3     1 RES1    0.0000
      6 C1         5.1470    2.5221    1.9102 C.ar      1 RES1    0.0000
      7 C2         6.0169    3.2377    2.7352 C.ar      1 RES1    0.0000
      8 C3         5.5081    4.2270    3.5857 C.ar      1 RES1    0.0000
      9 C4         4.1418    4.4587    3.5603 C.ar      1 RES1    0.0000
     10 C5         3.2459    3.7481    2.7247 C.ar      1 RES1    0.0000
     11 C6         3.7621    2.7573    1.8997 C.ar      1 RES1    0.0000
     12 C7         5.7290    1.4262    1.0302 C.2       1 RES1    0.0000
     13 H1         5.2883    0.0550   -0.1967 H         1 RES1    0.0000
     14 H2         7.0853    3.0025    2.7120 H         1 RES1    0.0000
     15 H3         6.1652    4.7990    4.2309 H         1 RES1    0.0000
     16 H4         2.1848    3.9934    2.7627 H         1 RES1    0.0000
     17 H5         3.0823    2.2169    1.2608 H         1 RES1    0.0000
@<TRIPOS>BOND
     1    1   12 2
     2    2   12 1
     3    3    5 2
     4    4    5 2
     5    5    9 1
     6    6    7 ar
     7    7    8 ar
     8    8    9 ar
     9    9   10 ar
    10   10   11 ar
    11   11    6 ar
    12   12    6 1
    13   13    2 1
    14   14    7 1
    15   15    8 1
    16   16   10 1
    17   17   11 1
@<TRIPOS>SUBSTRUCTURE
     1 RES1 1

@<TRIPOS>CRYSIN
  12.9180    5.0042   21.2980  90.0000  96.6600  90.0000  15 2

