# MOL2 file generated by ConQuest
# Please check atom types

@<TRIPOS>MOLECULE
NBZOAC12
    17    17     1
SMALL
NO_CHARGES
****
Generated from CSD

@<TRIPOS>ATOM
      1 O1         9.1706    6.7739    7.9449 O.3       1 RES1    0.0000
      2 O2         8.7651    6.3174    5.7865 O.2       1 RES1    0.0000
      3 O3         4.1799    1.5898    7.8699 O.2       1 RES1    0.0000
      4 O4         5.0614    1.6114    9.8487 O.2       1 RES1    0.0000
      5 N1         4.9868    2.0073    8.6919 N.pl3     1 RES1    0.0000
      6 C1         7.6620    5.0240    7.4530 C.ar      1 RES1    0.0000
      7 C2         6.9549    4.2892    6.4942 C.ar      1 RES1    0.0000
      8 C3         6.0634    3.2961    6.8929 C.ar      1 RES1    0.0000
      9 C4         5.9200    3.0587    8.2567 C.ar      1 RES1    0.0000
     10 C5         6.6177    3.7629    9.2304 C.ar      1 RES1    0.0000
     11 C6         7.4949    4.7645    8.8190 C.ar      1 RES1    0.0000
     12 C7         8.5833    6.0958    6.9845 C.2       1 RES1    0.0000
     13 H1         9.7902    7.5110    7.6143 H         1 RES1    0.0000
     14 H2         7.0875    4.4828    5.4372 H         1 RES1    0.0000
     15 H3         5.5156    2.7018    6.1725 H         1 RES1    0.0000
     16 H4         6.4622    3.5514   10.2813 H         1 RES1    0.0000
     17 H5         8.0757    5.3126    9.5504 H         1 RES1    0.0000
@<TRIPOS>BOND
     1    1   12 1
     2    2   12 2
     3    3    5 2
     4    4    5 2
     5    5    9 1
     6    6    7 ar
     7    7    8 ar
     8    8    9 ar
     9    9   10 ar
    10   10   11 ar
    11   11    6 ar
    12   12    6 1
    13   13    1 1
    14   14    7 1
    15   15    8 1
    16   16   10 1
    17   17   11 1
@<TRIPOS>SUBSTRUCTURE
     1 RES1 1

@<TRIPOS>CRYSIN
  20.9800    5.0300   12.8500  90.0000  97.2000  90.0000  15 1

