# MOL2 file generated by ConQuest
# Please check atom types

@<TRIPOS>MOLECULE
NBZOAC15
    17    17     1
SMALL
NO_CHARGES
****
Generated from CSD

@<TRIPOS>ATOM
      1 C1         0.5544    5.0441   11.7613 C.ar      1 RES1    0.0000
      2 C2         2.1682    3.3424   12.3046 C.ar      1 RES1    0.0000
      3 H1         2.6669    2.8622   12.9259 H         1 RES1    0.0000
      4 C3         1.5755    3.7813    9.9879 C.ar      1 RES1    0.0000
      5 H2         1.6781    3.5823    9.0858 H         1 RES1    0.0000
      6 C4         2.2868    3.0965   10.9483 C.ar      1 RES1    0.0000
      7 C5         1.2809    4.3306   12.7073 C.ar      1 RES1    0.0000
      8 H3         1.1717    4.5155   13.6126 H         1 RES1    0.0000
      9 O1        -0.5243    6.3462   13.4276 O.2       1 RES1    0.0000
     10 O2        -0.9890    6.7620   11.2842 O.3       1 RES1    0.0000
     11 H4        -1.4701    7.3359   11.6168 H         1 RES1    0.0000
     12 C6        -0.3720    6.1129   12.2276 C.2       1 RES1    0.0000
     13 C7         0.7011    4.7740   10.4009 C.ar      1 RES1    0.0000
     14 O3         3.1438    1.6518    9.3507 O.2       1 RES1    0.0000
     15 N1         3.2228    2.0393   10.5063 N.pl3     1 RES1    0.0000
     16 O4         4.0246    1.6170   11.3217 O.2       1 RES1    0.0000
     17 H5         0.1647    5.2558    9.7455 H         1 RES1    0.0000
@<TRIPOS>BOND
     1    1    7 ar
     2    2    3 1
     3    4    5 1
     4    6    2 ar
     5    7    2 ar
     6    8    7 1
     7    9   12 2
     8   10   11 1
     9   12    1 1
    10   13    1 ar
    11   14   15 2
    12   15    6 1
    13   16   15 2
    14   17   13 1
    15    4    6 ar
    16    4   13 ar
    17   10   12 1
@<TRIPOS>SUBSTRUCTURE
     1 RES1 1

@<TRIPOS>CRYSIN
  21.3174    5.0391   12.9210  90.0000  96.6220  90.0000  15 1

