# MOL2 file generated by ConQuest
# Please check atom types

@<TRIPOS>MOLECULE
NBZOAC10
    12    12     1
SMALL
NO_CHARGES
****
Generated from CSD

@<TRIPOS>ATOM
      1 C1         5.1657    2.5147    1.8869 C.ar      1 RES1    0.0000
      2 C2         6.0475    3.2752    2.7558 C.ar      1 RES1    0.0000
      3 C3         5.5423    4.2355    3.6289 C.ar      1 RES1    0.0000
      4 C4         4.1829    4.5300    3.5608 C.ar      1 RES1    0.0000
      5 C5         3.3261    3.8213    2.7004 C.ar      1 RES1    0.0000
      6 C6         3.8033    2.7677    1.8805 C.ar      1 RES1    0.0000
      7 C7         5.7539    1.4607    1.0371 C.2       1 RES1    0.0000
      8 N1         3.6215    5.5197    4.4723 N.pl3     1 RES1    0.0000
      9 O1         6.9682    1.2614    1.0457 O.co2     1 RES1    0.0000
     10 O2         4.8983    0.8082    0.3045 O.co2     1 RES1    0.0000
     11 O3         4.3619    5.9750    5.3411 O.2       1 RES1    0.0000
     12 O4         2.5258    5.9192    4.2273 O.2       1 RES1    0.0000
@<TRIPOS>BOND
     1    1    2 ar
     2    2    3 ar
     3    3    4 ar
     4    4    5 ar
     5    5    6 ar
     6    6    1 ar
     7    7    1 1
     8    8    4 1
     9    9    7 2
    10   10    7 1
    11   11    8 2
    12   12    8 2
@<TRIPOS>SUBSTRUCTURE
     1 RES1 1

@<TRIPOS>CRYSIN
  12.9700    5.0700   21.4300  90.0000  96.4000  90.0000  15 2

