# MOL2 file generated by ConQuest
# Please check atom types

@<TRIPOS>MOLECULE
NBZOAO04
    17    17     1
SMALL
NO_CHARGES
****
Generated from CSD

@<TRIPOS>ATOM
      1 O1         3.9808    2.3478    3.8149 O.2       1 RES1    0.0000
      2 O2         2.1180    3.4863    4.3236 O.3       1 RES1    0.0000
      3 H1         1.9382    2.7716    4.8227 H         1 RES1    0.0000
      4 O3         4.3604    2.4383    0.9989 O.2       1 RES1    0.0000
      5 O4         6.4031    3.0349    1.4084 O.2       1 RES1    0.0000
      6 N1         5.1911    3.2209    1.4417 N.pl3     1 RES1    0.0000
      7 C1         3.7075    4.5496    2.9557 C.ar      1 RES1    0.0000
      8 C2         4.7157    4.5060    1.9857 C.ar      1 RES1    0.0000
      9 C3         5.2663    5.6422    1.4352 C.ar      1 RES1    0.0000
     10 H2         5.9393    5.5585    0.7860 H         1 RES1    0.0000
     11 C4         4.7663    6.8833    1.8172 C.ar      1 RES1    0.0000
     12 H3         5.1570    7.6676    1.4482 H         1 RES1    0.0000
     13 C5         3.7271    6.9595    2.7340 C.ar      1 RES1    0.0000
     14 H4         3.3539    7.7842    2.9738 H         1 RES1    0.0000
     15 C6         3.2150    5.8038    3.3110 C.ar      1 RES1    0.0000
     16 H5         2.5394    5.8550    3.9641 H         1 RES1    0.0000
     17 C7         3.2774    3.3463    3.7160 C.2       1 RES1    0.0000
@<TRIPOS>BOND
     1    1   17 2
     2    2    3 1
     3    4    6 2
     4    5    6 2
     5    6    8 1
     6    7    8 ar
     7    8    9 ar
     8    9   10 1
     9   11    9 ar
    10   12   11 1
    11   13   11 ar
    12   14   13 1
    13   15    7 ar
    14   16   15 1
    15   17    2 1
    16    7   17 1
    17   13   15 ar
@<TRIPOS>SUBSTRUCTURE
     1 RES1 1

@<TRIPOS>CRYSIN
   4.9576    7.4859   10.3980  68.9190  86.6220  70.8530   2 1

