# MOL2 file generated by ConQuest
# Please check atom types

@<TRIPOS>MOLECULE
NBZOAC06
    17    17     1
SMALL
NO_CHARGES
****
Generated from CSD

@<TRIPOS>ATOM
      1 O1         6.9292    1.2160    1.0175 O.2       1 RES1    0.0000
      2 O2         4.8733    0.7857    0.3046 O.3       1 RES1    0.0000
      3 O3         4.3077    5.9000    5.3034 O.2       1 RES1    0.0000
      4 O4         2.4669    5.8749    4.2076 O.2       1 RES1    0.0000
      5 N1         3.6024    5.4746    4.4064 N.pl3     1 RES1    0.0000
      6 C1         5.1529    2.5021    1.9039 C.ar      1 RES1    0.0000
      7 C2         6.0156    3.2077    2.7352 C.ar      1 RES1    0.0000
      8 C3         5.5060    4.1935    3.5708 C.ar      1 RES1    0.0000
      9 C4         4.1533    4.4287    3.5391 C.ar      1 RES1    0.0000
     10 C5         3.2712    3.7531    2.7183 C.ar      1 RES1    0.0000
     11 C6         3.7892    2.7723    1.8891 C.ar      1 RES1    0.0000
     12 C7         5.7246    1.4212    1.0344 C.2       1 RES1    0.0000
     13 H1         5.2987    0.0751   -0.1967 H         1 RES1    0.0000
     14 H2         7.0012    3.0526    3.2222 H         1 RES1    0.0000
     15 H3         6.1600    4.7440    4.2203 H         1 RES1    0.0000
     16 H4         2.2265    3.9833    2.7374 H         1 RES1    0.0000
     17 H5         3.1188    2.2369    1.2798 H         1 RES1    0.0000
@<TRIPOS>BOND
     1    1   12 2
     2    2   12 1
     3    3    5 2
     4    4    5 2
     5    5    9 1
     6    6    7 ar
     7    7    8 ar
     8    8    9 ar
     9    9   10 ar
    10   10   11 ar
    11   11    6 ar
    12   12    6 1
    13   13    2 1
    14   14    7 1
    15   15    8 1
    16   16   10 1
    17   17   11 1
@<TRIPOS>SUBSTRUCTURE
     1 RES1 1

@<TRIPOS>CRYSIN
  12.9180    5.0042   21.2980  90.0000  96.6600  90.0000  15 2

