# MOL2 file generated by ConQuest
# Please check atom types

@<TRIPOS>MOLECULE
NBZOAO03
    17    17     1
SMALL
NO_CHARGES
****
Generated from CSD

@<TRIPOS>ATOM
      1 O1         5.4158    4.9186    6.0145 O.2       1 RES1    0.0000
      2 O2         7.2690    3.8056    5.4724 O.3       1 RES1    0.0000
      3 H1         7.4156    4.5548    5.0038 H         1 RES1    0.0000
      4 O3         5.0817    4.8282    8.8570 O.2       1 RES1    0.0000
      5 O4         3.0558    4.2283    8.4559 O.2       1 RES1    0.0000
      6 N1         4.2635    4.0541    8.4201 N.pl3     1 RES1    0.0000
      7 C1         5.7201    2.7283    6.8733 C.ar      1 RES1    0.0000
      8 C2         4.7412    2.7702    7.8761 C.ar      1 RES1    0.0000
      9 C3         4.2234    1.6364    8.4469 C.ar      1 RES1    0.0000
     10 H2         3.5462    1.6934    9.0814 H         1 RES1    0.0000
     11 C4         4.7250    0.4085    8.0647 C.ar      1 RES1    0.0000
     12 H3         4.3868   -0.3712    8.4420 H         1 RES1    0.0000
     13 C5         5.7293    0.3407    7.1205 C.ar      1 RES1    0.0000
     14 H4         6.0838   -0.4858    6.8832 H         1 RES1    0.0000
     15 C6         6.2131    1.4867    6.5248 C.ar      1 RES1    0.0000
     16 H5         6.8792    1.4221    5.8795 H         1 RES1    0.0000
     17 C7         6.1261    3.9291    6.0999 C.2       1 RES1    0.0000
@<TRIPOS>BOND
     1    1   17 2
     2    2    3 1
     3    4    6 2
     4    5    6 2
     5    6    8 1
     6    7    8 ar
     7    8    9 ar
     8    9   10 1
     9   11    9 ar
    10   12   11 1
    11   13   11 ar
    12   14   13 1
    13   15    7 ar
    14   16   15 1
    15   17    2 1
    16    7   17 1
    17   13   15 ar
@<TRIPOS>SUBSTRUCTURE
     1 RES1 1

@<TRIPOS>CRYSIN
   5.0147    7.5270   10.6200  69.4100  86.0700  71.0100   2 1

