# MOL2 file generated by ConQuest
# Please check atom types

@<TRIPOS>MOLECULE
NCBXRF
    42    43     1
SMALL
NO_CHARGES
****
Generated from CSD

@<TRIPOS>ATOM
      1 C1         6.5567    8.5264    8.2976 C.3       1 RES1    0.0000
      2 C2         6.1952    9.6071    7.2369 C.3       1 RES1    0.0000
      3 C3         4.6504    9.4568    7.1098 C.3       1 RES1    0.0000
      4 C4         4.2702    8.5542    8.2720 C.3       1 RES1    0.0000
      5 O1         5.4138    7.7186    8.5064 O.3       1 RES1    0.0000
      6 O2         6.4240   10.9088    7.8032 O.3       1 RES1    0.0000
      7 N1         7.7692   11.3516    7.7185 N.pl3     1 RES1    0.0000
      8 O3         7.8950   12.4466    8.1656 O.2       1 RES1    0.0000
      9 O4         8.5693   10.5822    7.2507 O.2       1 RES1    0.0000
     10 O5         3.9394   10.6851    7.3305 O.3       1 RES1    0.0000
     11 N2         3.9476   11.5448    6.2097 N.pl3     1 RES1    0.0000
     12 O6         3.2960   12.5405    6.3958 O.2       1 RES1    0.0000
     13 O7         4.5615   11.2040    5.2563 O.2       1 RES1    0.0000
     14 C5         3.0995    7.6551    7.9096 C.3       1 RES1    0.0000
     15 O8         2.7760    6.7372    8.9929 O.3       1 RES1    0.0000
     16 N3         2.0641    7.3429   10.0596 N.pl3     1 RES1    0.0000
     17 O9         1.8855    6.5682   10.9568 O.2       1 RES1    0.0000
     18 O10        1.7416    8.4692    9.9355 O.2       1 RES1    0.0000
     19 N4         7.6819    7.6524    7.9933 N.pl3     1 RES1    0.0000
     20 C6         8.8059    7.5791    8.7733 C.2       1 RES1    0.0000
     21 N5         9.6290    6.6773    8.3311 N.2       1 RES1    0.0000
     22 C7         9.0651    6.1307    7.2113 C.2       1 RES1    0.0000
     23 C8         7.8262    6.7211    6.9730 C.2       1 RES1    0.0000
     24 C9         9.0460    8.4567    9.9394 C.3       1 RES1    0.0000
     25 C10        9.8199    5.1091    6.4510 C.2       1 RES1    0.0000
     26 N6        11.0572    4.8693    6.9119 N.am      1 RES1    0.0000
     27 O11        9.3831    4.5320    5.4759 O.2       1 RES1    0.0000
     28 C11        6.7634    6.5288    5.9516 C.2       1 RES1    0.0000
     29 O12        5.8509    7.2668    5.8009 O.2       1 RES1    0.0000
     30 N7         6.9962    5.3900    5.2140 N.am      1 RES1    0.0000
     31 N8         6.1587    4.9507    4.2045 N.pl3     1 RES1    0.0000
     32 O13        6.6048    4.0946    3.5091 O.2       1 RES1    0.0000
     33 O14        5.0507    5.3971    4.1227 O.2       1 RES1    0.0000
     34 H1         6.8533    9.0856    9.1614 H         1 RES1    0.0000
     35 H2         6.7295    9.4765    6.3072 H         1 RES1    0.0000
     36 H3         4.3983    9.1043    6.1279 H         1 RES1    0.0000
     37 H4         4.0183    9.1652    9.1338 H         1 RES1    0.0000
     38 H5         3.3683    7.0736    7.0429 H         1 RES1    0.0000
     39 H6         2.2230    8.2464    7.6919 H         1 RES1    0.0000
     40 H7         8.2042    9.0167   10.2270 H         1 RES1    0.0000
     41 H8         9.8400    9.1285    9.7296 H         1 RES1    0.0000
     42 H9         9.3085    7.7955   10.7549 H         1 RES1    0.0000
@<TRIPOS>BOND
     1    1    2 1
     2    2    3 1
     3    3    4 1
     4    4    5 1
     5    5    1 1
     6    6    2 1
     7    7    6 1
     8    8    7 2
     9    9    7 2
    10   10    3 1
    11   11   10 1
    12   12   11 2
    13   13   11 2
    14   14    4 1
    15   15   14 1
    16   16   15 1
    17   17   16 2
    18   18   16 2
    19   19    1 1
    20   20   19 1
    21   21   20 2
    22   22   21 1
    23   23   19 1
    24   24   20 1
    25   25   22 1
    26   26   25 1
    27   27   25 2
    28   28   23 1
    29   29   28 2
    30   30   28 1
    31   31   30 1
    32   32   31 2
    33   33   31 2
    34   34    1 1
    35   35    2 1
    36   36    3 1
    37   37    4 1
    38   38   14 1
    39   39   14 1
    40   40   24 1
    41   41   24 1
    42   42   24 1
    43   22   23 2
@<TRIPOS>SUBSTRUCTURE
     1 RES1 1

@<TRIPOS>CRYSIN
  10.6470    8.9460   10.5890  90.0000 111.5500  90.0000   4 1

