# MOL2 file generated by ConQuest
# Please check atom types

@<TRIPOS>MOLECULE
NEBGIL
    80    82     2
SMALL
NO_CHARGES
****
Generated from CSD

@<TRIPOS>ATOM
      1 O1         3.0646   15.7822    3.3891 O.2       1 RES1    0.0000
      2 O2         5.0950   14.1550    3.6307 O.2       1 RES1    0.0000
      3 O3         5.5439   13.2416    5.5150 O.2       1 RES1    0.0000
      4 O4        -0.3737   17.4394    5.2017 O.2       1 RES1    0.0000
      5 O5         1.4738    9.6350    9.0666 O.3       1 RES1    0.0000
      6 O6         5.5036    9.6207   10.8330 O.3       1 RES1    0.0000
      7 N1         2.0697   14.7475    7.1871 N.2       1 RES1    0.0000
      8 N2         1.7487   15.9038    5.1814 N.am      1 RES1    0.0000
      9 N3         4.8110   13.9600    4.8072 N.pl3     1 RES1    0.0000
     10 N4         0.2764   16.1392    6.9592 N.am      1 RES1    0.0000
     11 N5         3.8102   13.3142    7.4374 N.3       1 RES1    0.0000
     12 C1         2.8804   15.4188    4.5376 C.2       1 RES1    0.0000
     13 C2         3.6532   14.5382    5.3570 C.2       1 RES1    0.0000
     14 C3         3.1868   14.1947    6.6633 C.2       1 RES1    0.0000
     15 C4         1.4003   15.5715    6.4327 C.2       1 RES1    0.0000
     16 C5        -0.5366   17.0841    6.3550 C.2       1 RES1    0.0000
     17 C6        -1.6154   17.6281    7.2308 C.3       1 RES1    0.0000
     18 C7         3.2663   12.8547    8.7228 C.3       1 RES1    0.0000
     19 C8         2.0119   11.9855    8.5402 C.3       1 RES1    0.0000
     20 C9         2.5034   10.5610    8.7118 C.3       1 RES1    0.0000
     21 C10        3.5564   10.6666    9.8090 C.3       1 RES1    0.0000
     22 C11        4.3132   11.9365    9.4092 C.3       1 RES1    0.0000
     23 C12        4.4332    9.4420    9.8950 C.3       1 RES1    0.0000
     24 H1         3.0845   13.6645    9.2297 H         1 RES1    0.0000
     25 H2         4.7193   12.4212   10.2342 H         1 RES1    0.0000
     26 H3         4.8238    9.2503    9.0142 H         1 RES1    0.0000
     27 H4         1.3854   12.2387    9.2744 H         1 RES1    0.0000
     28 H5         0.0937   15.8431    7.7372 H         1 RES1    0.0000
     29 H6         2.9593   10.7560   10.7121 H         1 RES1    0.0000
     30 H7        -1.3452   18.3410    7.6355 H         1 RES1    0.0000
     31 H8         3.9006    8.6344   10.2545 H         1 RES1    0.0000
     32 H9         4.5473   12.9801    7.1251 H         1 RES1    0.0000
     33 H10        2.9337   10.2278    7.8470 H         1 RES1    0.0000
     34 H11       -2.0506   17.0179    7.7189 H         1 RES1    0.0000
     35 H12        1.0317    9.3530    8.3370 H         1 RES1    0.0000
     36 H13        1.5353   12.1019    7.7900 H         1 RES1    0.0000
     37 H14       -2.3903   18.0445    6.6391 H         1 RES1    0.0000
     38 H15        6.0660    9.6153   10.4457 H         1 RES1    0.0000
     39 H16        1.2765   16.4020    4.8070 H         1 RES1    0.0000
     40 H17        5.0563   11.7255    8.7010 H         1 RES1    0.0000
     41 O7        -0.2884    9.7307    6.8567 O.2       2 RES2    0.0000
     42 O8         2.5452    7.6881    4.6413 O.2       2 RES2    0.0000
     43 O9         1.7621    8.1177    6.5934 O.2       2 RES2    0.0000
     44 O10       -3.5509   11.5967    4.9323 O.2       2 RES2    0.0000
     45 O11        2.8242    5.3661   -0.2263 O.3       2 RES2    0.0000
     46 O12       -1.2719    4.6251    1.3874 O.3       2 RES2    0.0000
     47 N6        -0.6425    9.5702    2.8096 N.2       2 RES2    0.0000
     48 N7        -1.3533   10.1919    4.9422 N.am      2 RES2    0.0000
     49 N8         1.6892    8.2217    5.3682 N.pl3     2 RES2    0.0000
     50 N9        -2.5119   10.8594    3.0432 N.am      2 RES2    0.0000
     51 N10        1.2160    8.3071    2.5265 N.3       2 RES2    0.0000
     52 C13       -0.3068    9.5994    5.6350 C.2       2 RES2    0.0000
     53 C14        0.6131    8.9196    4.7877 C.2       2 RES2    0.0000
     54 C15        0.4062    8.9188    3.3736 C.2       2 RES2    0.0000
     55 C16       -1.4759   10.1803    3.6168 C.2       2 RES2    0.0000
     56 C17       -3.4953   11.5740    3.7179 C.2       2 RES2    0.0000
     57 C18       -4.4382   12.3209    2.8413 C.3       2 RES2    0.0000
     58 C19        0.9904    8.2694    1.0741 C.3       2 RES2    0.0000
     59 C20        2.2314    7.6729    0.4097 C.3       2 RES2    0.0000
     60 C21        2.0774    6.1824    0.6814 C.3       2 RES2    0.0000
     61 C22        0.5739    5.9072    0.5584 C.3       2 RES2    0.0000
     62 C23       -0.1089    7.2862    0.6895 C.3       2 RES2    0.0000
     63 C24        0.1015    4.9252    1.6070 C.3       2 RES2    0.0000
     64 H18        2.3368    5.9654    1.6471 H         2 RES2    0.0000
     65 H19        3.3835    5.0757    0.1749 H         2 RES2    0.0000
     66 H20        0.7629    9.2047    0.7646 H         2 RES2    0.0000
     67 H21       -0.4723    7.5851   -0.2399 H         2 RES2    0.0000
     68 H22        2.2396    7.9158   -0.5917 H         2 RES2    0.0000
     69 H23        0.4242    5.5548   -0.3335 H         2 RES2    0.0000
     70 H24        0.6266    4.0834    1.5596 H         2 RES2    0.0000
     71 H25        3.0381    8.0869    0.7503 H         2 RES2    0.0000
     72 H26        0.2358    5.3381    2.5113 H         2 RES2    0.0000
     73 H27       -3.9435   13.1740    2.4991 H         2 RES2    0.0000
     74 H28       -2.5030   10.8928    2.2388 H         2 RES2    0.0000
     75 H29       -1.6455    4.2773    2.0741 H         2 RES2    0.0000
     76 H30        1.8570    7.8588    2.8732 H         2 RES2    0.0000
     77 H31       -0.8958    7.1630    1.4112 H         2 RES2    0.0000
     78 H32       -4.7969   11.7369    2.1473 H         2 RES2    0.0000
     79 H33       -5.1949   12.6151    3.4507 H         2 RES2    0.0000
     80 H34       -1.9359   10.5278    5.3174 H         2 RES2    0.0000
@<TRIPOS>BOND
     1    1   12 2
     2    2    9 2
     3    3    9 2
     4    4   16 2
     5    5   20 1
     6    6   23 1
     7    7   14 1
     8    8   12 1
     9    9   13 1
    10   10   15 1
    11   11   14 1
    12   12   13 1
    13   13   14 2
    14   15    7 2
    15   16   10 1
    16   17   16 1
    17   18   11 1
    18   19   18 1
    19   20   19 1
    20   21   20 1
    21   22   18 1
    22   23   21 1
    23   24   18 1
    24   25   22 1
    25   26   23 1
    26   27   19 1
    27   28   10 1
    28   29   21 1
    29   30   17 1
    30   31   23 1
    31   32   11 1
    32   33   20 1
    33   34   17 1
    34   35    5 1
    35   36   19 1
    36   37   17 1
    37   38    6 1
    38   39    8 1
    39   40   22 1
    40   41   52 2
    41   42   49 2
    42   43   49 2
    43   44   56 2
    44   45   60 1
    45   46   63 1
    46   47   54 1
    47   48   52 1
    48   49   53 1
    49   50   55 1
    50   51   54 1
    51   52   53 1
    52   53   54 2
    53   55   47 2
    54   56   50 1
    55   57   56 1
    56   58   51 1
    57   59   58 1
    58   60   59 1
    59   61   60 1
    60   62   58 1
    61   63   61 1
    62   64   60 1
    63   65   45 1
    64   66   58 1
    65   67   62 1
    66   68   59 1
    67   69   61 1
    68   70   63 1
    69   71   59 1
    70   72   63 1
    71   73   57 1
    72   74   50 1
    73   75   46 1
    74   76   51 1
    75   77   62 1
    76   78   57 1
    77   79   57 1
    78   80   48 1
    79    8   15 1
    80   21   22 1
    81   48   55 1
    82   61   62 1
@<TRIPOS>SUBSTRUCTURE
     1 RES1 1
     2 RES2 41

@<TRIPOS>CRYSIN
   6.1470   11.4061   20.3654  90.0000  93.1720  90.0000   4 1

