# MOL2 file generated by ConQuest
# Please check atom types

@<TRIPOS>MOLECULE
NECBOO
    80    80     3
SMALL
NO_CHARGES
****
Generated from CSD

@<TRIPOS>ATOM
      1 C1         6.8471    0.3280   12.6261 C.2       1 RES1    0.0000
      2 C2         9.0682    0.5189   13.2831 C.3       1 RES1    0.0000
      3 C3        10.3652    0.9839   12.6934 C.3       1 RES1    0.0000
      4 H1        10.1980    1.7031   12.0791 H         1 RES1    0.0000
      5 H2        10.7844    0.2565   12.2265 H         1 RES1    0.0000
      6 H3        10.9443    1.2896   13.3961 H         1 RES1    0.0000
      7 C4         9.3430   -0.7391   14.1603 C.3       1 RES1    0.0000
      8 H4        10.0088   -0.5294   14.8188 H         1 RES1    0.0000
      9 H5         9.6576   -1.4548   13.6050 H         1 RES1    0.0000
     10 H6         8.5320   -1.0061   14.6001 H         1 RES1    0.0000
     11 C5         8.2278    1.5426   14.0178 C.3       1 RES1    0.0000
     12 C6         8.3031    2.8767   13.1725 C.3       1 RES1    0.0000
     13 H7         9.0629    3.3921   13.4551 H         1 RES1    0.0000
     14 H8         7.5014    3.3874   13.3101 H         1 RES1    0.0000
     15 H9         8.3909    2.6612   12.2413 H         1 RES1    0.0000
     16 C7         8.4118    1.4079   15.5633 C.3       1 RES1    0.0000
     17 H10        8.4107    0.4791   15.8065 H         1 RES1    0.0000
     18 H11        7.6906    1.8565   16.0105 H         1 RES1    0.0000
     19 H12        9.2458    1.8061   15.8213 H         1 RES1    0.0000
     20 C8         5.6807   -0.0609   11.8295 C.ar      1 RES1    0.0000
     21 C9         5.6127    0.3245   10.4754 C.ar      1 RES1    0.0000
     22 H13        6.3172    0.8199   10.1257 H         1 RES1    0.0000
     23 C10        3.6248   -0.7192   10.2486 C.ar      1 RES1    0.0000
     24 C11        2.5304   -1.1127    9.4544 C.ar      1 RES1    0.0000
     25 H14        2.4907   -0.8679    8.5581 H         1 RES1    0.0000
     26 C12        1.5438   -1.8436    9.9979 C.ar      1 RES1    0.0000
     27 H15        0.8079   -2.0755    9.4795 H         1 RES1    0.0000
     28 C13        1.6002   -2.2571   11.3248 C.ar      1 RES1    0.0000
     29 H16        0.9051   -2.7666   11.6737 H         1 RES1    0.0000
     30 C14        2.6653   -1.9256   12.1265 C.ar      1 RES1    0.0000
     31 H17        2.7092   -2.2266   13.0054 H         1 RES1    0.0000
     32 C15        3.6843   -1.1280   11.5955 C.ar      1 RES1    0.0000
     33 C16        8.5017    3.8243    7.4492 C.2       2 RES2    0.0000
     34 C17        9.7601    2.1306    6.4703 C.3       2 RES2    0.0000
     35 C18        8.9406    1.5426    5.1992 C.3       2 RES2    0.0000
     36 H18        7.9989    1.6480    5.3491 H         2 RES2    0.0000
     37 H19        9.1445    0.6102    5.0911 H         2 RES2    0.0000
     38 H20        9.1946    2.0205    4.4080 H         2 RES2    0.0000
     39 C19       11.2223    2.0673    6.4327 C.3       2 RES2    0.0000
     40 H21       11.5066    1.1549    6.5236 H         2 RES2    0.0000
     41 H22       11.5840    2.5886    7.1526 H         2 RES2    0.0000
     42 H23       11.5369    2.4187    5.5948 H         2 RES2    0.0000
     43 C20        9.0828    1.5813    7.7229 C.3       2 RES2    0.0000
     44 C21        8.1797    0.3971    7.5261 C.3       2 RES2    0.0000
     45 H24        7.7345    0.1944    8.3541 H         2 RES2    0.0000
     46 H25        8.7013   -0.3608    7.2509 H         2 RES2    0.0000
     47 H26        7.5275    0.5997    6.8529 H         2 RES2    0.0000
     48 C22       10.0454    1.2627    8.8382 C.3       2 RES2    0.0000
     49 H27        9.5542    0.9897    9.6146 H         2 RES2    0.0000
     50 H28       10.5649    2.0439    9.0446 H         2 RES2    0.0000
     51 H29       10.6297    0.5529    8.5605 H         2 RES2    0.0000
     52 C23        7.8923    5.1385    7.7052 C.ar      2 RES2    0.0000
     53 C24        8.1066    5.8249    8.9092 C.ar      2 RES2    0.0000
     54 H30        8.6145    5.4173    9.5729 H         2 RES2    0.0000
     55 C25        6.8774    7.5596    8.1313 C.ar      2 RES2    0.0000
     56 C26        6.3036    8.8445    8.3161 C.ar      2 RES2    0.0000
     57 H31        6.4322    9.3036    9.1134 H         2 RES2    0.0000
     58 C27        5.5741    9.3938    7.3295 C.ar      2 RES2    0.0000
     59 H32        5.2061   10.2395    7.4499 H         2 RES2    0.0000
     60 C28        5.3587    8.7156    6.1305 C.ar      2 RES2    0.0000
     61 H33        4.8393    9.1092    5.4670 H         2 RES2    0.0000
     62 C29        5.8991    7.4893    5.9201 C.ar      2 RES2    0.0000
     63 H34        5.7747    7.0547    5.1059 H         2 RES2    0.0000
     64 C30        6.6402    6.8872    6.9327 C.ar      2 RES2    0.0000
     65 N1         8.1045    0.0726   12.2590 N.3       1 RES1    0.0000
     66 N2         6.8346    1.0612   13.7389 N.pl3     1 RES1    0.0000
     67 N3         4.6292    0.0281    9.6938 N.ar      1 RES1    0.0000
     68 N4         4.7431   -0.7895   12.3980 N.ar      1 RES1    0.0000
     69 N5         8.2728    2.7350    8.1829 N.3       2 RES2    0.0000
     70 N6         9.3524    3.5514    6.4749 N.pl3     2 RES2    0.0000
     71 N7         7.6216    7.0114    9.1318 N.ar      2 RES2    0.0000
     72 N8         7.1837    5.6422    6.7216 N.ar      2 RES2    0.0000
     73 O1         8.4243   -0.7379   11.3174 O.2       1 RES1    0.0000
     74 O2         5.8134    1.4606   14.3649 O.2       1 RES1    0.0000
     75 O3         7.4606    2.6729    9.1630 O.2       2 RES2    0.0000
     76 O4         9.7998    4.3853    5.6297 O.2       2 RES2    0.0000
     77 C31        9.9503    1.5285    5.1501 Du        3 SUP3    0.0000
     78 C32        8.2466    3.0138   14.0669 Du        3 SUP3    0.0000
     79 C33        8.4839    2.3192   15.2512 Du        3 SUP3    0.0000
     80 O5         8.4975   -0.3865   11.1429 Du        3 SUP3    0.0000
@<TRIPOS>BOND
     1    1   20 1
     2    2    3 1
     3    3    4 1
     4    5    3 1
     5    6    3 1
     6    7    2 1
     7    8    7 1
     8    9    7 1
     9   10    7 1
    10   11    2 1
    11   12   11 1
    12   13   12 1
    13   14   12 1
    14   15   12 1
    15   16   11 1
    16   17   16 1
    17   18   16 1
    18   19   16 1
    19   20   21 ar
    20   21   22 1
    21   23   24 ar
    22   24   25 1
    23   26   24 ar
    24   27   26 1
    25   28   26 ar
    26   29   28 1
    27   30   28 ar
    28   31   30 1
    29   32   23 ar
    30   33   52 1
    31   34   35 1
    32   35   36 1
    33   37   35 1
    34   38   35 1
    35   39   34 1
    36   40   39 1
    37   41   39 1
    38   42   39 1
    39   43   34 1
    40   44   43 1
    41   45   44 1
    42   46   44 1
    43   47   44 1
    44   48   43 1
    45   49   48 1
    46   50   48 1
    47   51   48 1
    48   52   53 ar
    49   53   54 1
    50   55   56 ar
    51   56   57 1
    52   58   56 ar
    53   59   58 1
    54   60   58 ar
    55   61   60 1
    56   62   60 ar
    57   63   62 1
    58   64   55 ar
    59   65    1 1
    60   66    1 2
    61   67   21 ar
    62   68   20 ar
    63   69   33 1
    64   70   33 2
    65   71   53 ar
    66   72   52 ar
    67   73   65 1
    68   74   66 1
    69   75   69 1
    70   76   70 1
    71    2   65 1
    72   11   66 1
    73   23   67 ar
    74   30   32 ar
    75   32   68 ar
    76   34   70 1
    77   43   69 1
    78   55   71 ar
    79   62   64 ar
    80   64   72 ar
@<TRIPOS>SUBSTRUCTURE
     1 RES1 1
     2 RES2 33
     3 SUP3 77

@<TRIPOS>CRYSIN
  10.4520   11.7130   24.5710  90.0000  90.0000  90.0000  19 1

