# MOL2 file generated by ConQuest
# Please check atom types

@<TRIPOS>MOLECULE
NECXOL
   142   123     4
SMALL
NO_CHARGES
****
Generated from CSD

@<TRIPOS>ATOM
      1 O1        12.2319    9.9799    9.3153 O.2       1 RES1    0.0000
      2 O2        11.6993   10.5582   11.3187 O.2       1 RES1    0.0000
      3 O3         8.2221    9.0163   11.1563 O.2       1 RES1    0.0000
      4 O4         6.2758    6.2182    8.1655 O.2       1 RES1    0.0000
      5 O5         9.8312    8.6557    6.7979 O.2       1 RES1    0.0000
      6 N1        11.7976    9.7336   10.4300 N.pl3     1 RES1    0.0000
      7 N2         8.0316    7.4560    7.4488 N.am      1 RES1    0.0000
      8 N3         7.2182    7.6254    9.6779 N.am      1 RES1    0.0000
      9 C1         9.3824    8.6298    9.1236 C.3       1 RES1    0.0000
     10 H1         9.6697    9.5667    9.1584 H         1 RES1    0.0000
     11 C2        10.6067    7.7334    9.5623 C.3       1 RES1    0.0000
     12 H2        11.2318    7.7015    8.8084 H         1 RES1    0.0000
     13 C3        10.1493    6.3090    9.8342 C.ar      1 RES1    0.0000
     14 C4         7.1360    7.0342    8.4145 C.2       1 RES1    0.0000
     15 C5         8.2259    8.4707   10.0619 C.2       1 RES1    0.0000
     16 C6        10.2392    5.3685    8.8041 C.ar      1 RES1    0.0000
     17 H3        10.6466    5.6002    8.0001 H         1 RES1    0.0000
     18 C7         7.8790    6.9244    6.0805 C.3       1 RES1    0.0000
     19 H4         7.0759    6.4015    6.0284 H         1 RES1    0.0000
     20 H5         8.6344    6.3721    5.8647 H         1 RES1    0.0000
     21 H6         7.8282    7.6531    5.4568 H         1 RES1    0.0000
     22 C8         9.7273    4.1031    8.9718 C.ar      1 RES1    0.0000
     23 H7         9.7956    3.4842    8.2796 H         1 RES1    0.0000
     24 C9         9.1144    3.7410   10.1561 C.ar      1 RES1    0.0000
     25 H8         8.7652    2.8852   10.2588 H         1 RES1    0.0000
     26 C10       12.6434    7.5398   11.0596 C.3       1 RES1    0.0000
     27 H9        13.1894    7.5070   10.2714 H         1 RES1    0.0000
     28 H10       12.4202    6.6469   11.3315 H         1 RES1    0.0000
     29 H11       13.1262    7.9781   11.7646 H         1 RES1    0.0000
     30 C11       11.3683    8.3143   10.7624 C.3       1 RES1    0.0000
     31 H12       10.7894    8.3186   11.5531 H         1 RES1    0.0000
     32 C12        9.1021    8.2858    7.6876 C.2       1 RES1    0.0000
     33 C13        9.5444    5.9330   11.0306 C.ar      1 RES1    0.0000
     34 H13        9.4911    6.5423   11.7319 H         1 RES1    0.0000
     35 C14        9.0222    4.6624   11.1892 C.ar      1 RES1    0.0000
     36 H14        8.6095    4.4255   11.9887 H         1 RES1    0.0000
     37 C15        6.1831    7.2641   10.6559 C.3       1 RES1    0.0000
     38 H15        5.4317    7.8527   10.5585 H         1 RES1    0.0000
     39 H16        6.5384    7.3462   11.5430 H         1 RES1    0.0000
     40 H17        5.9039    6.3582   10.5056 H         1 RES1    0.0000
     41 O6         3.6871    4.4964    9.5386 O.2       2 RES2    0.0000
     42 O7         1.0307    5.7428    7.6954 O.2       2 RES2    0.0000
     43 O8         5.0182    4.6900    5.4442 O.2       2 RES2    0.0000
     44 O9         1.6110    6.3643    5.7312 O.2       2 RES2    0.0000
     45 O10        7.1210    1.8556    8.2740 O.2       2 RES2    0.0000
     46 N4         5.4287    3.1566    9.0448 N.am      2 RES2    0.0000
     47 N5         6.1928    3.3062    6.8070 N.am      2 RES2    0.0000
     48 N6         1.4813    5.5077    6.5939 N.pl3     2 RES2    0.0000
     49 C16        6.2879    2.7054    8.0597 C.2       2 RES2    0.0000
     50 C17        4.0679    4.3866    7.4430 C.3       2 RES2    0.0000
     51 H18        3.8027    5.3296    7.4058 H         2 RES2    0.0000
     52 C18        4.4257    4.0729    8.8585 C.2       2 RES2    0.0000
     53 C19        3.1520    2.1090    6.8795 C.ar      2 RES2    0.0000
     54 C20        5.1839    4.1887    6.4577 C.2       2 RES2    0.0000
     55 C21        3.2466    1.1695    7.8565 C.ar      2 RES2    0.0000
     56 H19        2.9877    1.2879    8.7404 H         2 RES2    0.0000
     57 C22        0.6123    3.3503    5.8758 C.3       2 RES2    0.0000
     58 H20        0.8274    2.4695    5.5625 H         2 RES2    0.0000
     59 H21        0.1258    3.2863    6.7007 H         2 RES2    0.0000
     60 H22        0.0724    3.8006    5.2226 H         2 RES2    0.0000
     61 C23        5.6220    2.6363   10.4210 C.3       2 RES2    0.0000
     62 H23        6.2150    1.8817   10.3973 H         2 RES2    0.0000
     63 H24        4.7748    2.3675   10.7826 H         2 RES2    0.0000
     64 H25        6.0020    3.3243   10.9714 H         2 RES2    0.0000
     65 C24        7.2030    2.9345    5.8201 C.3       2 RES2    0.0000
     66 H26        8.0531    3.2975    6.0787 H         2 RES2    0.0000
     67 H27        6.9551    3.2837    4.9607 H         2 RES2    0.0000
     68 H28        7.2661    1.9777    5.7715 H         2 RES2    0.0000
     69 C25        2.7555    3.4989    7.1776 C.3       2 RES2    0.0000
     70 H29        2.2308    3.4886    8.0051 H         2 RES2    0.0000
     71 C26        4.1931   -0.4322    6.2122 C.ar      2 RES2    0.0000
     72 H30        4.5333   -1.2853    6.0838 H         2 RES2    0.0000
     73 C27        3.7818    0.0259    7.3328 C.ar      2 RES2    0.0000
     74 H31        3.8733   -0.6215    7.9975 H         2 RES2    0.0000
     75 C28        4.0698    0.5186    5.2150 C.ar      2 RES2    0.0000
     76 H32        4.3280    0.3311    4.3412 H         2 RES2    0.0000
     77 C29        3.5417    1.7650    5.5650 C.ar      2 RES2    0.0000
     78 H33        3.4397    2.4038    4.8977 H         2 RES2    0.0000
     79 C30        1.9027    4.1403    6.1032 C.3       2 RES2    0.0000
     80 H34        2.4072    4.2172    5.2679 H         2 RES2    0.0000
     81 O11       -2.4929    5.1153   14.2432 O.2       3 RES3    0.0000
     82 O12        1.2456    9.3481   15.4660 O.2       3 RES3    0.0000
     83 O13       -0.7059    6.7636   12.0953 O.2       3 RES3    0.0000
     84 O14        3.1650    8.9764   11.3756 O.2       3 RES3    0.0000
     85 N7         1.2401    7.8510   11.7153 N.am      3 RES3    0.0000
     86 N8         2.1923    9.2063   13.4218 N.am      3 RES3    0.0000
     87 N9        -1.6236    5.6624   14.9065 N.pl3     3 RES3    0.0000
     88 C31        2.1682    6.0739   14.5225 C.ar      3 RES3    0.0000
     89 C32        0.3232    7.7222   13.9980 C.3       3 RES3    0.0000
     90 H35       -0.5689    7.9902   14.2979 H         3 RES3    0.0000
     91 C33        0.7352    6.4576   14.8332 C.3       3 RES3    0.0000
     92 H36        0.7067    6.7161   15.7785 H         3 RES3    0.0000
     93 C34        0.2237    7.4110   12.5314 C.2       3 RES3    0.0000
     94 C35        0.1172    4.1584   15.6788 C.3       3 RES3    0.0000
     95 H37        0.0965    4.5241   16.5667 H         3 RES3    0.0000
     96 H38        0.9881    3.7989   15.5015 H         3 RES3    0.0000
     97 H39       -0.5386    3.4609   15.6048 H         3 RES3    0.0000
     98 C36        3.8824    5.1646   13.0945 C.ar      3 RES3    0.0000
     99 H40        4.1229    4.7306   12.3086 H         3 RES3    0.0000
    100 C37        4.5019    6.2338   15.1354 C.ar      3 RES3    0.0000
    101 H41        5.1559    6.5121   15.7357 H         3 RES3    0.0000
    102 C38        1.2547    7.3799   10.3167 C.3       3 RES3    0.0000
    103 H42        2.0649    6.8924   10.1530 H         3 RES3    0.0000
    104 H43        1.2087    8.1345    9.7250 H         3 RES3    0.0000
    105 H44        0.4994    6.8068   10.1631 H         3 RES3    0.0000
    106 C39        4.8669    5.5682   13.9811 C.ar      3 RES3    0.0000
    107 H45        5.7617    5.3927   13.8018 H         3 RES3    0.0000
    108 C40        3.2210   10.1882   13.8038 C.3       3 RES3    0.0000
    109 H46        2.8398   11.0690   13.7968 H         3 RES3    0.0000
    110 H47        3.9483   10.1485   13.1798 H         3 RES3    0.0000
    111 H48        3.5439    9.9868   14.6857 H         3 RES3    0.0000
    112 C41        1.2715    8.8364   14.3638 C.2       3 RES3    0.0000
    113 C42        2.2681    8.6834   12.1252 C.2       3 RES3    0.0000
    114 C43        3.1831    6.4870   15.3990 C.ar      3 RES3    0.0000
    115 H49        2.9543    6.9425   16.1764 H         3 RES3    0.0000
    116 C44        2.5406    5.4014   13.3649 C.ar      3 RES3    0.0000
    117 H50        1.8900    5.1084   12.7694 H         3 RES3    0.0000
    118 C45       -0.1950    5.2562   14.6695 C.3       3 RES3    0.0000
    119 H51       -0.1058    4.8975   13.7615 H         3 RES3    0.0000
    120 O15       -1.8618    6.4862   15.7750 O.2       3 RES3    0.0000
    121 O16        5.4020    4.7531    5.2377 Du        4 SUP4    0.0000
    122 O17        3.8652    4.5612    9.9264 Du        4 SUP4    0.0000
    123 C46        3.0575    3.6450    6.2928 Du        4 SUP4    0.0000
    124 H52        3.1600    3.9830    5.3787 Du        4 SUP4    0.0000
    125 C47        1.7112    3.9043    6.9122 Du        4 SUP4    0.0000
    126 H53        1.6053    3.6277    7.8464 Du        4 SUP4    0.0000
    127 H54        3.8509    5.3426    7.4209 Du        4 SUP4    0.0000
    128 H55       -0.2675    3.4963    6.2323 Du        4 SUP4    0.0000
    129 H56        0.6988    3.8144    5.0387 Du        4 SUP4    0.0000
    130 H57        0.7497    2.4107    5.7363 Du        4 SUP4    0.0000
    131 C48        3.3314    2.1099    6.4590 Du        4 SUP4    0.0000
    132 C49        3.3181    1.1496    7.5166 Du        4 SUP4    0.0000
    133 H58        2.9434    1.4616    8.3047 Du        4 SUP4    0.0000
    134 C50        3.7625   -0.1815    7.5946 Du        4 SUP4    0.0000
    135 H59        3.7529   -0.7477    8.3324 Du        4 SUP4    0.0000
    136 C51        3.8730    1.6820    5.2452 Du        4 SUP4    0.0000
    137 H60        3.9295    2.2499    4.5099 Du        4 SUP4    0.0000
    138 C52        4.3222    0.3803    5.1848 Du        4 SUP4    0.0000
    139 H61        4.6912    0.0752    4.3866 Du        4 SUP4    0.0000
    140 C53        4.2475   -0.4719    6.2323 Du        4 SUP4    0.0000
    141 H62        4.5360   -1.3415    6.0762 Du        4 SUP4    0.0000
    142 H63        2.1555    7.9608    9.9466 Du        4 SUP4    0.0000
@<TRIPOS>BOND
     1    1    6 2
     2    2    6 2
     3    3   15 2
     4    4   14 2
     5    5   32 2
     6    6   30 1
     7    7   14 1
     8    8   14 1
     9    9   10 1
    10   11    9 1
    11   12   11 1
    12   13   11 1
    13   15    8 1
    14   16   13 ar
    15   17   16 1
    16   18    7 1
    17   19   18 1
    18   20   18 1
    19   21   18 1
    20   22   16 ar
    21   23   22 1
    22   24   22 ar
    23   25   24 1
    24   26   27 1
    25   28   26 1
    26   29   26 1
    27   30   11 1
    28   31   30 1
    29   32    7 1
    30   33   13 ar
    31   34   33 1
    32   35   24 ar
    33   36   35 1
    34   37    8 1
    35   38   37 1
    36   39   37 1
    37   40   37 1
    38   41   52 2
    39   42   48 2
    40   43   54 2
    41   44   48 2
    42   45   49 2
    43   46   49 1
    44   47   49 1
    45   48   79 1
    46   50   51 1
    47   52   46 1
    48   53   55 ar
    49   54   47 1
    50   55   56 1
    51   57   58 1
    52   59   57 1
    53   60   57 1
    54   61   46 1
    55   62   61 1
    56   63   61 1
    57   64   61 1
    58   65   47 1
    59   66   65 1
    60   67   65 1
    61   68   65 1
    62   69   50 1
    63   70   69 1
    64   71   72 1
    65   73   55 ar
    66   74   73 1
    67   75   71 ar
    68   76   75 1
    69   77   53 ar
    70   78   77 1
    71   79   57 1
    72   80   79 1
    73   81   87 2
    74   82  112 2
    75   83   93 2
    76   84  113 2
    77   85   93 1
    78   86  108 1
    79   87  118 1
    80   88   91 1
    81   89   90 1
    82   91   89 1
    83   92   91 1
    84   93   89 1
    85   94   95 1
    86   96   94 1
    87   97   94 1
    88   98   99 1
    89  100  101 1
    90  102   85 1
    91  103  102 1
    92  104  102 1
    93  105  102 1
    94  106   98 ar
    95  107  106 1
    96  108  109 1
    97  110  108 1
    98  111  108 1
    99  112   86 1
   100  113   85 1
   101  114   88 ar
   102  115  114 1
   103  116   88 ar
   104  117  116 1
   105  118   91 1
   106  119  118 1
   107  120   87 2
   108    9   15 1
   109    9   32 1
   110   26   30 1
   111   33   35 ar
   112   50   52 1
   113   50   54 1
   114   53   69 1
   115   69   79 1
   116   71   73 ar
   117   75   77 ar
   118   86  113 1
   119   89  112 1
   120   94  118 1
   121   98  116 ar
   122  100  106 ar
   123  100  114 ar
@<TRIPOS>SUBSTRUCTURE
     1 RES1 1
     2 RES2 41
     3 RES3 81
     4 SUP4 121

@<TRIPOS>CRYSIN
  21.4080    8.6436   25.2347  90.0000  93.7330  90.0000  14 1

