# MOL2 file generated by ConQuest
# Please check atom types

@<TRIPOS>MOLECULE
NECYEC
    44    45     1
SMALL
NO_CHARGES
****
Generated from CSD

@<TRIPOS>ATOM
      1 O1         1.6958    1.9711   -1.8442 O.2       1 RES1    0.0000
      2 O2         2.5549    0.0332   -1.4964 O.2       1 RES1    0.0000
      3 O3        -0.8741    3.6154    0.7624 O.2       1 RES1    0.0000
      4 O4         1.2051   -0.4872    1.6346 O.2       1 RES1    0.0000
      5 O5        -1.2015    1.6635    4.8144 O.2       1 RES1    0.0000
      6 O6         3.6006    4.3192    6.0065 O.3       1 RES1    0.0000
      7 N1         2.3316    1.1872   -1.1650 N.pl3     1 RES1    0.0000
      8 N2        -0.8971    2.7268    2.8364 N.am      1 RES1    0.0000
      9 N3         0.0461    0.5869    3.2492 N.am      1 RES1    0.0000
     10 C1         4.1405    2.4806   -0.1877 C.3       1 RES1    0.0000
     11 H1         4.7621    1.9365   -0.7148 H         1 RES1    0.0000
     12 H2         4.5818    2.7749    0.6372 H         1 RES1    0.0000
     13 H3         3.8676    3.2636   -0.7090 H         1 RES1    0.0000
     14 C2         2.9079    1.6485    0.1637 C.3       1 RES1    0.0000
     15 H4         3.1806    0.8550    0.7067 H         1 RES1    0.0000
     16 C3         1.8648    2.4561    0.9222 C.3       1 RES1    0.0000
     17 H5         1.6840    3.2810    0.3858 H         1 RES1    0.0000
     18 C4         2.3951    2.9102    2.2826 C.ar      1 RES1    0.0000
     19 C5         2.2307    4.2240    2.6635 C.ar      1 RES1    0.0000
     20 H6         1.8351    4.8406    2.0588 H         1 RES1    0.0000
     21 C6         2.6312    4.6600    3.9113 C.ar      1 RES1    0.0000
     22 H7         2.5029    5.5688    4.1557 H         1 RES1    0.0000
     23 C7         3.2183    3.7841    4.8103 C.ar      1 RES1    0.0000
     24 C8         3.3978    2.4580    4.4512 C.ar      1 RES1    0.0000
     25 H8         3.7930    1.8438    5.0594 H         1 RES1    0.0000
     26 C9         2.9918    2.0372    3.1883 C.ar      1 RES1    0.0000
     27 H9         3.1248    1.1302    2.9381 H         1 RES1    0.0000
     28 C10        4.3916    3.5057    6.8691 C.3       1 RES1    0.0000
     29 H10        5.1526    3.1442    6.3686 H         1 RES1    0.0000
     30 H11        3.8462    2.7674    7.2120 H         1 RES1    0.0000
     31 H12        4.7189    4.0462    7.6175 H         1 RES1    0.0000
     32 C11        0.4897    1.7043    1.0953 C.3       1 RES1    0.0000
     33 H13        0.2083    1.3781    0.1923 H         1 RES1    0.0000
     34 C12       -0.4927    2.7448    1.5247 C.2       1 RES1    0.0000
     35 C13       -0.7096    1.6578    3.7048 C.2       1 RES1    0.0000
     36 C14        0.6062    0.5077    1.9939 C.2       1 RES1    0.0000
     37 C15        0.2174   -0.5562    4.1638 C.3       1 RES1    0.0000
     38 H14       -0.3027   -0.4022    4.9806 H         1 RES1    0.0000
     39 H15        1.1653   -0.6519    4.3932 H         1 RES1    0.0000
     40 H16       -0.0963   -1.3746    3.7259 H         1 RES1    0.0000
     41 C16       -1.6365    3.8966    3.3297 C.3       1 RES1    0.0000
     42 H17       -1.2473    4.7127    2.9520 H         1 RES1    0.0000
     43 H18       -1.5797    3.9299    4.3075 H         1 RES1    0.0000
     44 H19       -2.5757    3.8269    3.0597 H         1 RES1    0.0000
@<TRIPOS>BOND
     1    1    7 2
     2    2    7 2
     3    3   34 2
     4    4   36 2
     5    5   35 2
     6    6   23 1
     7    7   14 1
     8    8   34 1
     9    9   35 1
    10   10   11 1
    11   12   10 1
    12   13   10 1
    13   14   10 1
    14   15   14 1
    15   16   14 1
    16   17   16 1
    17   18   16 1
    18   19   18 ar
    19   20   19 1
    20   21   19 ar
    21   22   21 1
    22   23   21 ar
    23   24   23 ar
    24   25   24 1
    25   26   18 ar
    26   27   26 1
    27   28    6 1
    28   29   28 1
    29   30   28 1
    30   31   28 1
    31   32   16 1
    32   33   32 1
    33   34   32 1
    34   35    8 1
    35   36    9 1
    36   37    9 1
    37   38   37 1
    38   39   37 1
    39   40   37 1
    40   41    8 1
    41   42   41 1
    42   43   41 1
    43   44   41 1
    44   24   26 ar
    45   32   36 1
@<TRIPOS>SUBSTRUCTURE
     1 RES1 1

@<TRIPOS>CRYSIN
   8.0626    8.9695   11.7796  80.0150  85.9070  83.1670   2 1

