# MOL2 file generated by ConQuest
# Please check atom types

@<TRIPOS>MOLECULE
NEDCAA
    31    32     1
SMALL
NO_CHARGES
****
Generated from CSD

@<TRIPOS>ATOM
      1 N1         5.5717    7.2714    1.4486 N.2       1 RES1    0.0000
      2 C1         4.4693    6.8274    0.9694 C.2       1 RES1    0.0000
      3 H1         4.0674    6.0922    1.3729 H         1 RES1    0.0000
      4 N2         3.8685    7.3932   -0.1100 N.pl3     1 RES1    0.0000
      5 H2         4.2870    8.0220   -0.5205 H         1 RES1    0.0000
      6 C2         6.1286    6.5129    2.5098 C.ar      1 RES1    0.0000
      7 C3         6.6352    7.1756    3.6094 C.ar      1 RES1    0.0000
      8 H3         6.5411    8.0983    3.6709 H         1 RES1    0.0000
      9 C4         7.2748    6.4971    4.6121 C.ar      1 RES1    0.0000
     10 H4         7.6180    6.9477    5.3485 H         1 RES1    0.0000
     11 C5         7.3971    5.1328    4.5022 C.ar      1 RES1    0.0000
     12 C6         6.8774    4.4389    3.4419 C.ar      1 RES1    0.0000
     13 H5         6.9544    3.5133    3.3986 H         1 RES1    0.0000
     14 C7         6.2410    5.1328    2.4443 C.ar      1 RES1    0.0000
     15 H6         5.8833    4.6744    1.7190 H         1 RES1    0.0000
     16 N3         8.1160    4.3971    5.5523 N.pl3     1 RES1    0.0000
     17 O1         8.5539    5.0215    6.4985 O.2       1 RES1    0.0000
     18 O2         8.2424    3.1991    5.4192 O.2       1 RES1    0.0000
     19 C8         2.6110    7.0172   -0.5932 C.ar      1 RES1    0.0000
     20 C9         1.7740    6.1775    0.1089 C.ar      1 RES1    0.0000
     21 H7         2.0486    5.8353    0.9291 H         1 RES1    0.0000
     22 C10        0.5502    5.8441   -0.3833 C.ar      1 RES1    0.0000
     23 H8         0.0013    5.2661    0.0968 H         1 RES1    0.0000
     24 C11        0.1226    6.3457   -1.5717 C.ar      1 RES1    0.0000
     25 C12        0.9225    7.2161   -2.2990 C.ar      1 RES1    0.0000
     26 H9         0.6284    7.5758   -3.1040 H         1 RES1    0.0000
     27 C13        2.1799    7.5352   -1.7876 C.ar      1 RES1    0.0000
     28 H10        2.7359    8.1080   -2.2637 H         1 RES1    0.0000
     29 N4        -1.2153    6.0127   -2.0579 N.pl3     1 RES1    0.0000
     30 O3        -1.6069    6.5449   -3.0859 O.2       1 RES1    0.0000
     31 O4        -1.8579    5.1942   -1.4103 O.2       1 RES1    0.0000
@<TRIPOS>BOND
     1    1    2 2
     2    2    3 1
     3    4    2 1
     4    5    4 1
     5    6    1 1
     6    7    6 ar
     7    8    7 1
     8    9    7 ar
     9   10    9 1
    10   11    9 ar
    11   12   11 ar
    12   13   12 1
    13   14    6 ar
    14   15   14 1
    15   16   11 1
    16   17   16 2
    17   18   16 2
    18   19    4 1
    19   20   19 ar
    20   21   20 1
    21   22   20 ar
    22   23   22 1
    23   24   22 ar
    24   25   24 ar
    25   26   25 1
    26   27   19 ar
    27   28   27 1
    28   29   24 1
    29   30   29 2
    30   31   29 2
    31   12   14 ar
    32   25   27 ar
@<TRIPOS>SUBSTRUCTURE
     1 RES1 1

@<TRIPOS>CRYSIN
   7.6740    8.5750   10.4890  76.2800  79.4600  78.1300   2 1

