# MOL2 file generated by ConQuest
# Please check atom types

@<TRIPOS>MOLECULE
NEDDOP
    34    36     1
SMALL
NO_CHARGES
****
Generated from CSD

@<TRIPOS>ATOM
      1 N1         5.5684    3.0401   -3.0412 N.ar      1 RES1    0.0000
      2 C1         5.6398    4.3671   -2.8810 C.ar      1 RES1    0.0000
      3 H1         5.6912    4.8681   -3.6632 H         1 RES1    0.0000
      4 N2         5.6465    5.0554   -1.7569 N.ar      1 RES1    0.0000
      5 C2         5.6078    4.2645   -0.6860 C.ar      1 RES1    0.0000
      6 C3         5.5718    2.8652   -0.6753 C.ar      1 RES1    0.0000
      7 C4         5.5231    2.2587   -1.9542 C.ar      1 RES1    0.0000
      8 N3         5.4257    0.9326   -2.1458 N.3       1 RES1    0.0000
      9 H2         5.3944    0.6151   -2.9444 H         1 RES1    0.0000
     10 H3         5.3950    0.4012   -1.4702 H         1 RES1    0.0000
     11 C5         5.5564    2.5049    0.7097 C.2       1 RES1    0.0000
     12 N4         5.5718    1.2177    1.3057 N.pl3     1 RES1    0.0000
     13 O1         5.5684    1.1503    2.5236 O.2       1 RES1    0.0000
     14 O2         5.5911    0.2196    0.5939 O.2       1 RES1    0.0000
     15 C6         5.5891    3.6532    1.4504 C.2       1 RES1    0.0000
     16 H4         5.5945    3.6960    2.3793 H         1 RES1    0.0000
     17 N5         5.6118    4.7198    0.6152 N.pl3     1 RES1    0.0000
     18 C7         5.7032    6.1372    1.0141 C.3       1 RES1    0.0000
     19 H5         5.7699    6.6971    0.2127 H         1 RES1    0.0000
     20 C8         4.5447    6.6144    1.8669 C.3       1 RES1    0.0000
     21 H6         3.7857    6.0155    1.7889 H         1 RES1    0.0000
     22 H7         4.2692    7.5080    1.6099 H         1 RES1    0.0000
     23 C9         5.1042    6.6021    3.2792 C.3       1 RES1    0.0000
     24 H8         5.0202    5.7085    3.6720 H         1 RES1    0.0000
     25 O3         4.4740    7.5641    4.1039 O.3       1 RES1    0.0000
     26 H9         4.4333    7.2798    4.8721 H         1 RES1    0.0000
     27 C10        6.5656    6.9329    3.0245 C.3       1 RES1    0.0000
     28 H10        6.6516    7.9006    2.8981 H         1 RES1    0.0000
     29 O4         6.8830    6.2750    1.7849 O.3       1 RES1    0.0000
     30 C11        7.5266    6.4994    4.0864 C.3       1 RES1    0.0000
     31 H11        8.4337    6.7009    3.8071 H         1 RES1    0.0000
     32 H12        7.3479    6.9861    4.9064 H         1 RES1    0.0000
     33 O5         7.3979    5.1029    4.3209 O.3       1 RES1    0.0000
     34 H13        7.6547    4.9280    5.0796 H         1 RES1    0.0000
@<TRIPOS>BOND
     1    1    2 ar
     2    2    3 1
     3    4    2 ar
     4    5    4 ar
     5    6    5 ar
     6    7    1 ar
     7    8    7 1
     8    9    8 1
     9   10    8 1
    10   11    6 1
    11   12   11 1
    12   13   12 2
    13   14   12 2
    14   15   11 2
    15   16   15 1
    16   17    5 1
    17   18   17 1
    18   19   18 1
    19   20   18 1
    20   21   20 1
    21   22   20 1
    22   23   20 1
    23   24   23 1
    24   25   23 1
    25   26   25 1
    26   27   23 1
    27   28   27 1
    28   29   18 1
    29   30   27 1
    30   31   30 1
    31   32   30 1
    32   33   30 1
    33   34   33 1
    34    6    7 ar
    35   15   17 1
    36   27   29 1
@<TRIPOS>SUBSTRUCTURE
     1 RES1 1

@<TRIPOS>CRYSIN
   6.6696    9.5062   19.4450  90.0000  90.0000  90.0000  19 1

