# MOL2 file generated by ConQuest
# Please check atom types

@<TRIPOS>MOLECULE
NEDSEU
    58    60     2
SMALL
NO_CHARGES
****
Generated from CSD

@<TRIPOS>ATOM
      1 N1         2.1707   -0.9140    6.8523 N.pl3     1 RES1    0.0000
      2 N2         2.6399   -1.0594   11.7409 N.pl3     1 RES1    0.0000
      3 O1         2.3692   -2.0730    6.8399 O.2       1 RES1    0.0000
      4 O2         1.7672   -0.3479    5.8908 O.2       1 RES1    0.0000
      5 O3         1.5404   -1.3939   12.1506 O.2       1 RES1    0.0000
      6 O4         3.6814   -1.4386   12.2281 O.2       1 RES1    0.0000
      7 C1         2.4865   -0.1119    8.1183 C.3       1 RES1    0.0000
      8 C2         1.4102    0.9531    8.2330 C.3       1 RES1    0.0000
      9 H1         1.4501    1.5393    7.4610 H         1 RES1    0.0000
     10 H2         0.5362    0.5325    8.2477 H         1 RES1    0.0000
     11 N3         1.5945    1.7329    9.4451 N.3       1 RES1    0.0000
     12 C3         1.5700    0.8972   10.6422 C.3       1 RES1    0.0000
     13 H3         0.7128    0.4520   10.7200 H         1 RES1    0.0000
     14 H4         1.7053    1.4442   11.4325 H         1 RES1    0.0000
     15 C4         2.6901   -0.1365   10.5210 C.3       1 RES1    0.0000
     16 C5         4.0346    0.4956   10.4178 C.2       1 RES1    0.0000
     17 H5         4.5167    0.6925   11.1877 H         1 RES1    0.0000
     18 C6         4.5463    0.7786    9.2122 C.2       1 RES1    0.0000
     19 H6         5.3674    1.2160    9.1802 H         1 RES1    0.0000
     20 C7         3.8966    0.4441    7.9376 C.3       1 RES1    0.0000
     21 H7         4.4380   -0.2126    7.4702 H         1 RES1    0.0000
     22 H8         3.8541    1.2406    7.3859 H         1 RES1    0.0000
     23 C8         2.4195   -1.0382    9.3168 C.3       1 RES1    0.0000
     24 H9         3.0910   -1.7351    9.2506 H         1 RES1    0.0000
     25 H10        1.5442   -1.4510    9.3854 H         1 RES1    0.0000
     26 C9         0.5878    2.7822    9.5303 C.3       1 RES1    0.0000
     27 H11        0.6342    3.3360    8.7483 H         1 RES1    0.0000
     28 H12        0.7476    3.3169   10.3123 H         1 RES1    0.0000
     29 H13       -0.2849    2.3839    9.5879 H         1 RES1    0.0000
     30 N4         1.6615    3.8494    4.4767 N.pl3     2 RES2    0.0000
     31 N5         2.3885    3.8338   -0.3767 N.pl3     2 RES2    0.0000
     32 O5         1.1691    3.2811    5.4163 O.2       2 RES2    0.0000
     33 O6         1.7840    5.0319    4.4504 O.2       2 RES2    0.0000
     34 O7         1.3019    4.0161   -0.8760 O.2       2 RES2    0.0000
     35 O8         3.4068    4.3104   -0.8077 O.2       2 RES2    0.0000
     36 C10        2.1114    3.0227    3.2684 C.3       2 RES2    0.0000
     37 C11        1.1266    1.8738    3.1342 C.3       2 RES2    0.0000
     38 H14        1.1524    1.3279    3.9351 H         2 RES2    0.0000
     39 H15        0.2282    2.2251    3.0360 H         2 RES2    0.0000
     40 N6         1.4630    1.0616    1.9767 N.3       2 RES2    0.0000
     41 C12        1.4282    1.8447    0.7521 C.3       2 RES2    0.0000
     42 H16        0.5427    2.2173    0.6203 H         2 RES2    0.0000
     43 H17        1.6409    1.2820   -0.0089 H         2 RES2    0.0000
     44 C13        2.4568    2.9690    0.8760 C.3       2 RES2    0.0000
     45 C14        3.8335    2.4343    1.0723 C.2       2 RES2    0.0000
     46 H18        4.3736    2.2452    0.3388 H         2 RES2    0.0000
     47 C15        4.2821    2.2307    2.3052 C.2       2 RES2    0.0000
     48 H19        5.1276    1.8548    2.3962 H         2 RES2    0.0000
     49 C16        3.5383    2.5540    3.5540 C.3       2 RES2    0.0000
     50 H20        4.0114    3.2498    4.0359 H         2 RES2    0.0000
     51 H21        3.5074    1.7675    4.1202 H         2 RES2    0.0000
     52 C17        2.0753    3.8987    2.0299 C.3       2 RES2    0.0000
     53 H22        2.7082    4.6292    2.1068 H         2 RES2    0.0000
     54 H23        1.1872    4.2667    1.8954 H         2 RES2    0.0000
     55 C18        0.5697   -0.0850    1.8777 C.3       2 RES2    0.0000
     56 H24        0.6174   -0.5996    2.6875 H         2 RES2    0.0000
     57 H25        0.8314   -0.6321    1.1353 H         2 RES2    0.0000
     58 H26       -0.3313    0.2215    1.7473 H         2 RES2    0.0000
@<TRIPOS>BOND
     1    1    3 2
     2    2    5 2
     3    4    1 2
     4    6    2 2
     5    7    1 1
     6    8    7 1
     7    9    8 1
     8   10    8 1
     9   11    8 1
    10   12   11 1
    11   13   12 1
    12   14   12 1
    13   15    2 1
    14   16   15 1
    15   17   16 1
    16   18   16 2
    17   19   18 1
    18   20    7 1
    19   21   20 1
    20   22   20 1
    21   23    7 1
    22   24   23 1
    23   25   23 1
    24   26   11 1
    25   27   26 1
    26   28   26 1
    27   29   26 1
    28   30   32 2
    29   31   34 2
    30   33   30 2
    31   35   31 2
    32   36   30 1
    33   37   36 1
    34   38   37 1
    35   39   37 1
    36   40   37 1
    37   41   40 1
    38   42   41 1
    39   43   41 1
    40   44   31 1
    41   45   44 1
    42   46   45 1
    43   47   45 2
    44   48   47 1
    45   49   36 1
    46   50   49 1
    47   51   49 1
    48   52   36 1
    49   53   52 1
    50   54   52 1
    51   55   40 1
    52   56   55 1
    53   57   55 1
    54   58   55 1
    55   12   15 1
    56   15   23 1
    57   18   20 1
    58   41   44 1
    59   44   52 1
    60   47   49 1
@<TRIPOS>SUBSTRUCTURE
     1 RES1 1
     2 RES2 30

@<TRIPOS>CRYSIN
  12.8900   11.1870   29.5650  90.0000  90.0000  90.0000  61 1

