# MOL2 file generated by ConQuest
# Please check atom types

@<TRIPOS>MOLECULE
NEDYIH
    54    56     1
SMALL
NO_CHARGES
****
Generated from CSD

@<TRIPOS>ATOM
      1 O1         5.9297   10.5790   -3.3543 O.2       1 RES1    0.0000
      2 O2         6.1508   11.9194    3.3227 O.3       1 RES1    0.0000
      3 O3         5.9182   14.5393    4.5970 O.3       1 RES1    0.0000
      4 O4         0.2988   18.2458    3.4320 O.2       1 RES1    0.0000
      5 O5         0.8092   18.3702    1.3391 O.2       1 RES1    0.0000
      6 O6         5.7640    9.7746    3.8401 O.2       1 RES1    0.0000
      7 O7         6.4450    8.5246   -2.9207 O.2       1 RES1    0.0000
      8 O8         6.6856   14.9766    2.5185 O.2       1 RES1    0.0000
      9 N1         6.1253    9.6554   -2.5780 N.pl3     1 RES1    0.0000
     10 N2         1.0548   18.0349    2.4893 N.pl3     1 RES1    0.0000
     11 C1         5.9818    9.9186   -1.1389 C.ar      1 RES1    0.0000
     12 C2         6.0306   11.2369   -0.7132 C.ar      1 RES1    0.0000
     13 H1         6.0814   11.9510   -1.3384 H         1 RES1    0.0000
     14 C3         6.0025   11.4816    0.6475 C.ar      1 RES1    0.0000
     15 H2         6.0660   12.3719    0.9712 H         1 RES1    0.0000
     16 C4         5.8809   10.4215    1.5455 C.ar      1 RES1    0.0000
     17 C5         5.9130   10.6391    3.0196 C.2       1 RES1    0.0000
     18 C6         6.3659   12.1884    4.7295 C.3       1 RES1    0.0000
     19 H3         6.9725   11.5098    5.1193 H         1 RES1    0.0000
     20 H4         5.5062   12.1585    5.2188 H         1 RES1    0.0000
     21 C7         6.9812   13.5622    4.8383 C.3       1 RES1    0.0000
     22 H5         7.6994   13.6666    4.1503 H         1 RES1    0.0000
     23 C8         5.8682   15.1232    3.3906 C.2       1 RES1    0.0000
     24 C9         4.6383   15.9616    3.2286 C.ar      1 RES1    0.0000
     25 C10        4.3865   16.4910    1.9643 C.ar      1 RES1    0.0000
     26 H6         5.0258   16.3836    1.2699 H         1 RES1    0.0000
     27 C11        3.2087   17.1733    1.7170 C.ar      1 RES1    0.0000
     28 H7         3.0170   17.5201    0.8540 H         1 RES1    0.0000
     29 C12        2.3188   17.3358    2.7605 C.ar      1 RES1    0.0000
     30 C13        5.8368    8.8464   -0.2785 C.ar      1 RES1    0.0000
     31 H8         5.7907    7.9567   -0.6084 H         1 RES1    0.0000
     32 C14        5.7620    9.1116    1.0778 C.ar      1 RES1    0.0000
     33 H9         5.6291    8.3994    1.6924 H         1 RES1    0.0000
     34 C15        7.5531   13.8222    6.2201 C.3       1 RES1    0.0000
     35 H10        6.8670   13.6129    6.9024 H         1 RES1    0.0000
     36 H11        7.7822   14.7813    6.3029 H         1 RES1    0.0000
     37 C16        8.8064   12.9787    6.4878 C.3       1 RES1    0.0000
     38 H12        8.5485   12.0250    6.5551 H         1 RES1    0.0000
     39 H13        9.4303   13.0715    5.7255 H         1 RES1    0.0000
     40 C17        9.5098   13.3934    7.7586 C.ar      1 RES1    0.0000
     41 C18       10.6970   14.1148    7.6964 C.ar      1 RES1    0.0000
     42 H14       11.0704   14.3313    6.8493 H         1 RES1    0.0000
     43 C19       11.3443   14.5217    8.8550 C.ar      1 RES1    0.0000
     44 H15       12.1513   15.0193    8.7984 H         1 RES1    0.0000
     45 C20       10.8139   14.2036   10.0926 C.ar      1 RES1    0.0000
     46 H16       11.2535   14.4837   10.8868 H         1 RES1    0.0000
     47 C21        9.6401   13.4748   10.1682 C.ar      1 RES1    0.0000
     48 H17        9.2787   13.2471   11.0173 H         1 RES1    0.0000
     49 C22        8.9887   13.0753    9.0090 C.ar      1 RES1    0.0000
     50 H18        8.1804   12.5795    9.0705 H         1 RES1    0.0000
     51 C23        3.7318   16.1688    4.2649 C.ar      1 RES1    0.0000
     52 H19        3.9188   15.8292    5.1326 H         1 RES1    0.0000
     53 C24        2.5607   16.8665    4.0375 C.ar      1 RES1    0.0000
     54 H20        1.9387   17.0194    4.7388 H         1 RES1    0.0000
@<TRIPOS>BOND
     1    1    9 2
     2    2   17 1
     3    3   21 1
     4    4   10 2
     5    5   10 2
     6    6   17 2
     7    7    9 2
     8    8   23 2
     9    9   11 1
    10   10   29 1
    11   11   12 ar
    12   12   13 1
    13   14   12 ar
    14   15   14 1
    15   16   14 ar
    16   17   16 1
    17   18    2 1
    18   19   18 1
    19   20   18 1
    20   21   18 1
    21   22   21 1
    22   23    3 1
    23   24   23 1
    24   25   24 ar
    25   26   25 1
    26   27   25 ar
    27   28   27 1
    28   29   27 ar
    29   30   11 ar
    30   31   30 1
    31   32   16 ar
    32   33   32 1
    33   34   21 1
    34   35   34 1
    35   36   34 1
    36   37   34 1
    37   38   37 1
    38   39   37 1
    39   40   37 1
    40   41   40 ar
    41   42   41 1
    42   43   41 ar
    43   44   43 1
    44   45   43 ar
    45   46   45 1
    46   47   45 ar
    47   48   47 1
    48   49   40 ar
    49   50   49 1
    50   51   24 ar
    51   52   51 1
    52   53   29 ar
    53   54   53 1
    54   30   32 ar
    55   47   49 ar
    56   51   53 ar
@<TRIPOS>SUBSTRUCTURE
     1 RES1 1

@<TRIPOS>CRYSIN
   6.6806   14.5142   22.1231  90.0000  90.0000  90.0000  19 1

