# MOL2 file generated by ConQuest
# Please check atom types

@<TRIPOS>MOLECULE
NEDZOO
    43    44     1
SMALL
NO_CHARGES
****
Generated from CSD

@<TRIPOS>ATOM
      1 N1         1.2201    0.1633    2.3799 N.pl3     1 RES1    0.0000
      2 N2        -0.3567   -1.9975    7.2999 N.ar      1 RES1    0.0000
      3 O1         1.3844   -0.6175    1.4651 O.2       1 RES1    0.0000
      4 O2         1.4149    1.3603    2.2898 O.2       1 RES1    0.0000
      5 O3        -1.6881    0.9803   10.0116 O.3       1 RES1    0.0000
      6 O4         0.4533    1.6305   10.0561 O.2       1 RES1    0.0000
      7 O5        -0.6435    2.9458    7.5211 O.3       1 RES1    0.0000
      8 O6         1.4303    2.7035    6.7023 O.2       1 RES1    0.0000
      9 C1         0.7916   -0.3814    3.6819 C.ar      1 RES1    0.0000
     10 C2         0.6665    0.4731    4.7275 C.ar      1 RES1    0.0000
     11 H1         0.8354    1.3812    4.6169 H         1 RES1    0.0000
     12 C3         0.2767   -0.0335    5.9854 C.ar      1 RES1    0.0000
     13 C4         0.0118   -1.4208    6.1165 C.ar      1 RES1    0.0000
     14 C5         0.1527   -2.2551    4.9829 C.ar      1 RES1    0.0000
     15 H2        -0.0217   -3.1647    5.0614 H         1 RES1    0.0000
     16 C6         0.5376   -1.7526    3.7819 C.ar      1 RES1    0.0000
     17 H3         0.6308   -2.3082    3.0419 H         1 RES1    0.0000
     18 C7         0.1085    0.7663    7.1500 C.ar      1 RES1    0.0000
     19 C8        -0.2891    0.1806    8.3212 C.ar      1 RES1    0.0000
     20 C9        -0.5036   -1.2336    8.3624 C.ar      1 RES1    0.0000
     21 C10       -0.8730   -1.9239    9.6487 C.3       1 RES1    0.0000
     22 H4        -0.9940   -2.8621    9.4857 H         1 RES1    0.0000
     23 H5        -1.6901   -1.5518    9.9895 H         1 RES1    0.0000
     24 H6        -0.1722   -1.7985   10.2926 H         1 RES1    0.0000
     25 C11        0.3952    2.2443    7.0913 C.2       1 RES1    0.0000
     26 C12       -0.4417    1.0164    9.5587 C.2       1 RES1    0.0000
     27 C13       -0.4399    4.3961    7.6200 C.3       1 RES1    0.0000
     28 H7        -0.3233    4.7791    6.7368 H         1 RES1    0.0000
     29 H8         0.3512    4.5878    8.1477 H         1 RES1    0.0000
     30 C14       -1.6654    4.9794    8.2856 C.3       1 RES1    0.0000
     31 H9        -1.7709    4.5570    9.1518 H         1 RES1    0.0000
     32 H10       -1.5046    5.9232    8.4418 H         1 RES1    0.0000
     33 C15       -2.9076    4.8473    7.5630 C.3       1 RES1    0.0000
     34 H11       -2.8062    5.2128    6.6821 H         1 RES1    0.0000
     35 H12       -3.6003    5.3207    8.0292 H         1 RES1    0.0000
     36 H13       -3.1427    3.9183    7.4992 H         1 RES1    0.0000
     37 C16       -1.9740    1.7056   11.2374 C.3       1 RES1    0.0000
     38 H14       -1.8332    2.6564   11.1030 H         1 RES1    0.0000
     39 H15       -1.3849    1.4058   11.9475 H         1 RES1    0.0000
     40 C17       -3.3762    1.4498   11.6010 C.3       1 RES1    0.0000
     41 H16       -3.9510    1.7638   10.9001 H         1 RES1    0.0000
     42 H17       -3.5839    1.9115   12.4170 H         1 RES1    0.0000
     43 H18       -3.5077    0.5062   11.7252 H         1 RES1    0.0000
@<TRIPOS>BOND
     1    1    3 2
     2    2   13 ar
     3    4    1 2
     4    5   26 1
     5    6   26 2
     6    7   25 1
     7    8   25 2
     8    9    1 1
     9   10    9 ar
    10   11   10 1
    11   12   10 ar
    12   13   12 ar
    13   14   13 ar
    14   15   14 1
    15   16    9 ar
    16   17   16 1
    17   18   12 ar
    18   19   18 ar
    19   20    2 ar
    20   21   20 1
    21   22   21 1
    22   23   21 1
    23   24   21 1
    24   25   18 1
    25   26   19 1
    26   27    7 1
    27   28   27 1
    28   29   27 1
    29   30   27 1
    30   31   30 1
    31   32   30 1
    32   33   30 1
    33   34   33 1
    34   35   33 1
    35   36   33 1
    36   37    5 1
    37   38   37 1
    38   39   37 1
    39   40   37 1
    40   41   40 1
    41   42   40 1
    42   43   40 1
    43   14   16 ar
    44   19   20 ar
@<TRIPOS>SUBSTRUCTURE
     1 RES1 1

@<TRIPOS>CRYSIN
   7.1284   10.7581   12.0300  97.7380 105.5230  98.4010   2 1

