# MOL2 file generated by ConQuest
# Please check atom types

@<TRIPOS>MOLECULE
NEFLIU
    44    47     1
SMALL
NO_CHARGES
****
Generated from CSD

@<TRIPOS>ATOM
      1 O1         4.9574   16.2537    4.3828 O.2       1 RES1    0.0000
      2 O2         0.2347   12.4929    0.1450 O.2       1 RES1    0.0000
      3 O3        -0.7005   10.5657    0.4726 O.2       1 RES1    0.0000
      4 N1         4.2907   12.8701    4.9533 N.2       1 RES1    0.0000
      5 N2         4.9556   14.0751    5.2268 N.am      1 RES1    0.0000
      6 N3         2.9325   15.0340    2.5224 N.2       1 RES1    0.0000
      7 N4         3.2018   16.3028    2.2987 N.3       1 RES1    0.0000
      8 N5         0.1342   11.4144    0.7487 N.pl3     1 RES1    0.0000
      9 C1         4.5689   15.0725    4.3908 C.2       1 RES1    0.0000
     10 C2         3.5894   14.4598    3.5109 C.2       1 RES1    0.0000
     11 C3         3.4925   13.0860    3.9466 C.2       1 RES1    0.0000
     12 C4         5.9210   14.0977    6.2709 C.ar      1 RES1    0.0000
     13 C5         6.0463   13.0128    7.1251 C.ar      1 RES1    0.0000
     14 C6         6.9761   13.0433    8.1356 C.ar      1 RES1    0.0000
     15 C7         7.7885   14.1332    8.3149 C.ar      1 RES1    0.0000
     16 C8         7.6748   15.1940    7.4548 C.ar      1 RES1    0.0000
     17 C9         6.7601   15.1895    6.4406 C.ar      1 RES1    0.0000
     18 C10        2.5565   17.0061    1.2743 C.ar      1 RES1    0.0000
     19 C11        2.8498   18.3576    1.1427 C.ar      1 RES1    0.0000
     20 C12        2.2640   19.0937    0.1606 C.ar      1 RES1    0.0000
     21 C13        1.3716   18.5244   -0.6984 C.ar      1 RES1    0.0000
     22 C14        1.0827   17.1809   -0.5657 C.ar      1 RES1    0.0000
     23 C15        1.6631   16.4190    0.4137 C.ar      1 RES1    0.0000
     24 C16        2.6463   11.9890    3.4162 C.ar      1 RES1    0.0000
     25 C17        1.8400   12.2072    2.3035 C.ar      1 RES1    0.0000
     26 C18        1.0258   11.1709    1.8769 C.ar      1 RES1    0.0000
     27 C19        1.0080    9.9349    2.4849 C.ar      1 RES1    0.0000
     28 C20        1.8329    9.7435    3.5559 C.ar      1 RES1    0.0000
     29 C21        2.6560   10.7473    4.0226 C.ar      1 RES1    0.0000
     30 H1         5.5112   12.2729    6.8934 H         1 RES1    0.0000
     31 H2         7.0934   12.3106    8.7773 H         1 RES1    0.0000
     32 H3         8.4890   14.1604    9.0609 H         1 RES1    0.0000
     33 H4         8.2401   15.9536    7.5731 H         1 RES1    0.0000
     34 H5         6.7023   15.9120    5.9782 H         1 RES1    0.0000
     35 H6         3.9112   16.6822    2.7991 H         1 RES1    0.0000
     36 H7         3.4845   18.6905    1.6431 H         1 RES1    0.0000
     37 H8         2.3823   20.0533    0.1873 H         1 RES1    0.0000
     38 H9         1.0400   19.0190   -1.4022 H         1 RES1    0.0000
     39 H10        0.5067   16.8218   -1.1293 H         1 RES1    0.0000
     40 H11        1.4845   15.4930    0.4977 H         1 RES1    0.0000
     41 H12        1.7422   13.0241    1.8518 H         1 RES1    0.0000
     42 H13        0.3822    9.1924    2.1836 H         1 RES1    0.0000
     43 H14        1.8311    8.8866    4.0194 H         1 RES1    0.0000
     44 H15        3.2712   10.4835    4.9452 H         1 RES1    0.0000
@<TRIPOS>BOND
     1    1    9 2
     2    2    8 2
     3    3    8 2
     4    4    5 1
     5    5    9 1
     6    6    7 1
     7    7   18 1
     8    8   26 1
     9    9   10 1
    10   10    6 2
    11   11    4 2
    12   12    5 1
    13   13   12 ar
    14   14   13 ar
    15   15   14 ar
    16   16   15 ar
    17   17   12 ar
    18   18   19 ar
    19   19   20 ar
    20   20   21 ar
    21   21   22 ar
    22   22   23 ar
    23   23   18 ar
    24   24   11 1
    25   25   24 ar
    26   26   25 ar
    27   27   26 ar
    28   28   27 ar
    29   29   24 ar
    30   30   13 1
    31   31   14 1
    32   32   15 1
    33   33   16 1
    34   34   17 1
    35   35    7 1
    36   36   19 1
    37   37   20 1
    38   38   21 1
    39   39   22 1
    40   40   23 1
    41   41   25 1
    42   42   27 1
    43   43   28 1
    44   44   29 1
    45   10   11 1
    46   16   17 ar
    47   28   29 ar
@<TRIPOS>SUBSTRUCTURE
     1 RES1 1

@<TRIPOS>CRYSIN
   8.8890   37.7510    5.3520  90.0000  90.0000  90.0000  33 1

