# MOL2 file generated by ConQuest
# Please check atom types

@<TRIPOS>MOLECULE
NEFVAY
    25    26     1
SMALL
NO_CHARGES
****
Generated from CSD

@<TRIPOS>ATOM
      1 O1         1.5396    3.2008    3.7301 O.3       1 RES1    0.0000
      2 O2         2.5178    6.0095    0.7592 O.3       1 RES1    0.0000
      3 O3         4.7068    6.1118    1.2541 O.2       1 RES1    0.0000
      4 N1         2.3938    5.0663    1.8457 N.2       1 RES1    0.0000
      5 C1         0.6551    3.8958    2.9501 C.2       1 RES1    0.0000
      6 C2        -0.6099    3.5640    3.2704 C.2       1 RES1    0.0000
      7 H1        -1.4054    3.9190    2.8689 H         1 RES1    0.0000
      8 C3        -0.5211    2.6132    4.3050 C.2       1 RES1    0.0000
      9 H2        -1.2271    2.1649    4.7249 H         1 RES1    0.0000
     10 C4         0.7667    2.4220    4.5447 C.2       1 RES1    0.0000
     11 H3         1.2640    1.8500    5.1221 H         1 RES1    0.0000
     12 C5         1.1548    4.8164    1.9730 C.2       1 RES1    0.0000
     13 H4         0.4910    5.2169    1.3866 H         1 RES1    0.0000
     14 C6         3.7837    6.4476    0.5745 C.2       1 RES1    0.0000
     15 C7         3.8608    7.4006   -0.5546 C.ar      1 RES1    0.0000
     16 C8         2.7668    7.7378   -1.3315 C.ar      1 RES1    0.0000
     17 H5         1.9512    7.3379   -1.1374 H         1 RES1    0.0000
     18 C9         2.9051    8.6453   -2.3597 C.ar      1 RES1    0.0000
     19 H6         2.1566    8.8530   -2.8978 H         1 RES1    0.0000
     20 C10        4.1238    9.2202   -2.6163 C.ar      1 RES1    0.0000
     21 H7         4.2425    9.8204   -3.3437 H         1 RES1    0.0000
     22 C11        5.2090    8.8884   -1.8526 C.ar      1 RES1    0.0000
     23 H8         6.0459    9.2865   -2.0185 H         1 RES1    0.0000
     24 C12        5.0809    7.9847   -0.8249 C.ar      1 RES1    0.0000
     25 H9         5.8464    7.7852   -0.3178 H         1 RES1    0.0000
@<TRIPOS>BOND
     1    1    5 1
     2    2    4 1
     3    3   14 2
     4    4   12 2
     5    5    6 2
     6    6    7 1
     7    8    6 1
     8    9    8 1
     9   10    1 1
    10   11   10 1
    11   12    5 1
    12   13   12 1
    13   14    2 1
    14   15   14 1
    15   16   15 ar
    16   17   16 1
    17   18   16 ar
    18   19   18 1
    19   20   18 ar
    20   21   20 1
    21   22   20 ar
    22   23   22 1
    23   24   15 ar
    24   25   24 1
    25    8   10 2
    26   22   24 ar
@<TRIPOS>SUBSTRUCTURE
     1 RES1 1

@<TRIPOS>CRYSIN
   6.3414    9.1268   18.1423  90.0000  95.6340  90.0000  14 1

