# MOL2 file generated by ConQuest
# Please check atom types

@<TRIPOS>MOLECULE
NEGKES
    35    36     1
SMALL
NO_CHARGES
****
Generated from CSD

@<TRIPOS>ATOM
      1 N1         2.7376    1.5335    4.1527 N.pl3     1 RES1    0.0000
      2 O1         3.6808    2.0321    4.7412 O.2       1 RES1    0.0000
      3 O2         1.5967    1.4969    4.5956 O.2       1 RES1    0.0000
      4 N2         6.4498    0.8581    3.0829 N.2       1 RES1    0.0000
      5 N3         5.2528    0.2192    3.3588 N.pl3     1 RES1    0.0000
      6 N4         4.1722   -1.1274    4.9944 N.pl3     1 RES1    0.0000
      7 H1         4.3320   -1.4266    5.8291 H         1 RES1    0.0000
      8 H2         3.8887   -1.8568    4.4551 H         1 RES1    0.0000
      9 C1         5.3025   -0.4543    4.5360 C.2       1 RES1    0.0000
     10 C2         6.5428   -0.2417    5.0532 C.2       1 RES1    0.0000
     11 H3         6.8763   -0.5693    5.8571 H         1 RES1    0.0000
     12 C3         7.2196    0.5742    4.1279 C.2       1 RES1    0.0000
     13 C4         4.1703    0.3813    2.4616 C.ar      1 RES1    0.0000
     14 C5         2.9646    0.9714    2.8144 C.ar      1 RES1    0.0000
     15 C6         1.9346    1.0866    1.8988 C.ar      1 RES1    0.0000
     16 H4         1.1162    1.4423    2.1609 H         1 RES1    0.0000
     17 C7         2.1231    0.6763    0.6029 C.ar      1 RES1    0.0000
     18 H5         1.4436    0.7814   -0.0237 H         1 RES1    0.0000
     19 C8         3.3177    0.1087    0.2359 C.ar      1 RES1    0.0000
     20 H6         3.4522   -0.1582   -0.6446 H         1 RES1    0.0000
     21 C9         4.3127   -0.0646    1.1621 C.ar      1 RES1    0.0000
     22 H7         5.1001   -0.4915    0.9105 H         1 RES1    0.0000
     23 C10        8.6466    1.0585    4.2020 C.3       1 RES1    0.0000
     24 C11        8.9043    2.1854    3.2157 C.3       1 RES1    0.0000
     25 H8         8.7342    1.8748    2.3231 H         1 RES1    0.0000
     26 H9         9.8191    2.4693    3.2859 H         1 RES1    0.0000
     27 H10        8.3242    2.9237    3.4136 H         1 RES1    0.0000
     28 C12        9.5718   -0.1087    3.8780 C.3       1 RES1    0.0000
     29 H11        9.4338   -0.8130    4.5159 H         1 RES1    0.0000
     30 H12       10.4847    0.1855    3.9190 H         1 RES1    0.0000
     31 H13        9.3797   -0.4342    2.9956 H         1 RES1    0.0000
     32 C13        8.9493    1.5447    5.6246 C.3       1 RES1    0.0000
     33 H14        8.3897    2.2959    5.8318 H         1 RES1    0.0000
     34 H15        9.8716    1.8065    5.6830 H         1 RES1    0.0000
     35 H16        8.7783    0.8353    6.2480 H         1 RES1    0.0000
@<TRIPOS>BOND
     1    1    2 2
     2    3    1 2
     3    4    5 1
     4    5    9 1
     5    6    7 1
     6    8    6 1
     7    9    6 1
     8   10    9 2
     9   11   10 1
    10   12    4 2
    11   13    5 1
    12   14    1 1
    13   15   14 ar
    14   16   15 1
    15   17   15 ar
    16   18   17 1
    17   19   17 ar
    18   20   19 1
    19   21   13 ar
    20   22   21 1
    21   23   12 1
    22   24   23 1
    23   25   24 1
    24   26   24 1
    25   27   24 1
    26   28   23 1
    27   29   28 1
    28   30   28 1
    29   31   28 1
    30   32   23 1
    31   33   32 1
    32   34   32 1
    33   35   32 1
    34   10   12 1
    35   13   14 ar
    36   19   21 ar
@<TRIPOS>SUBSTRUCTURE
     1 RES1 1

@<TRIPOS>CRYSIN
  11.2518    9.3675   13.1240  90.0000 100.3760  90.0000  14 1

