# MOL2 file generated by ConQuest
# Please check atom types

@<TRIPOS>MOLECULE
NEGLOA
    22    24     1
SMALL
NO_CHARGES
****
Generated from CSD

@<TRIPOS>ATOM
      1 O1         3.6563    1.1277    5.1626 O.3       1 RES1    0.0000
      2 O2         3.9905    1.6955    3.0611 O.2       1 RES1    0.0000
      3 O3         4.6083   -0.1400    7.2259 O.3       1 RES1    0.0000
      4 O4         3.0894    0.6854   10.9231 O.3       1 RES1    0.0000
      5 O5         4.3303   -2.2400    8.1517 O.3       1 RES1    0.0000
      6 O6         5.8860   -2.8412    6.6587 O.2       1 RES1    0.0000
      7 N1         3.2702   -0.1022    9.7336 N.3       1 RES1    0.0000
      8 C1         3.2516    1.7960    4.0115 C.2       1 RES1    0.0000
      9 C2         2.0288    2.5277    4.0712 C.2       1 RES1    0.0000
     10 C3         1.2677    2.6154    5.1810 C.2       1 RES1    0.0000
     11 C4         1.7094    1.9231    6.3690 C.ar      1 RES1    0.0000
     12 C5         1.0510    1.9557    7.6060 C.ar      1 RES1    0.0000
     13 C6         1.5598    1.3236    8.7051 C.ar      1 RES1    0.0000
     14 C7         2.7552    0.6133    8.6284 C.ar      1 RES1    0.0000
     15 C8         3.4103    0.5368    7.4021 C.ar      1 RES1    0.0000
     16 C9         2.8932    1.1939    6.3092 C.ar      1 RES1    0.0000
     17 C10        5.0019   -0.9920    8.2866 C.3       1 RES1    0.0000
     18 C11        4.6984   -0.3822    9.6217 C.3       1 RES1    0.0000
     19 C12        4.8788   -3.0929    7.2473 C.2       1 RES1    0.0000
     20 C13        4.0584   -4.3289    7.1048 C.3       1 RES1    0.0000
     21 C14        0.0067    3.4450    5.2255 C.3       1 RES1    0.0000
     22 C15        2.4559   -0.1177   11.9148 C.3       1 RES1    0.0000
@<TRIPOS>BOND
     1    1    8 1
     2    2    8 2
     3    3   15 1
     4    4    7 1
     5    5   17 1
     6    6   19 2
     7    7   14 1
     8    8    9 1
     9    9   10 2
    10   10   11 1
    11   11   12 ar
    12   12   13 ar
    13   13   14 ar
    14   14   15 ar
    15   15   16 ar
    16   16    1 1
    17   17    3 1
    18   18    7 1
    19   19    5 1
    20   20   19 1
    21   21   10 1
    22   22    4 1
    23   11   16 ar
    24   17   18 1
@<TRIPOS>SUBSTRUCTURE
     1 RES1 1

@<TRIPOS>CRYSIN
  11.1390    8.5890   15.4020  90.0000  84.4000  90.0000 231 1

