# MOL2 file generated by ConQuest
# Please check atom types

@<TRIPOS>MOLECULE
NEHLIX
   121   118     3
SMALL
NO_CHARGES
****
Generated from CSD

@<TRIPOS>ATOM
      1 C1         3.1282   11.3783   -0.2728 C.ar      1 RES1    0.0000
      2 C2         4.1820   11.5107   -1.1528 C.ar      1 RES1    0.0000
      3 H1         4.1238   11.1503   -2.0311 H         1 RES1    0.0000
      4 C3         5.3248   12.1755   -0.7442 C.ar      1 RES1    0.0000
      5 H2         6.0622   12.2640   -1.3379 H         1 RES1    0.0000
      6 C4         5.3899   12.7155    0.5376 C.ar      1 RES1    0.0000
      7 C5         4.2934   12.5592    1.3996 C.ar      1 RES1    0.0000
      8 H3         4.3290   12.9270    2.2737 H         1 RES1    0.0000
      9 C6         3.1604   11.8773    0.9934 C.ar      1 RES1    0.0000
     10 H4         2.4244   11.7607    1.5840 H         1 RES1    0.0000
     11 C7         6.5631   13.4701    0.9348 C.2       1 RES1    0.0000
     12 C8         7.0643   13.9853    2.0928 C.2       1 RES1    0.0000
     13 C9         8.2520   14.6958    1.7226 C.2       1 RES1    0.0000
     14 H5         8.8242   15.1675    2.3153 H         1 RES1    0.0000
     15 C10        8.4221   14.5806    0.3882 C.2       1 RES1    0.0000
     16 C11        9.4493   15.0214   -0.5646 C.ar      1 RES1    0.0000
     17 C12        9.2725   14.8535   -1.9271 C.ar      1 RES1    0.0000
     18 H6         8.4658   14.4708   -2.2530 H         1 RES1    0.0000
     19 C13       10.2594   15.2387   -2.8266 C.ar      1 RES1    0.0000
     20 H7        10.1149   15.1356   -3.7607 H         1 RES1    0.0000
     21 C14       11.4485   15.7713   -2.3725 C.ar      1 RES1    0.0000
     22 H8        12.1325   16.0146   -2.9843 H         1 RES1    0.0000
     23 C15       11.6303   15.9449   -1.0211 C.ar      1 RES1    0.0000
     24 H9        12.4433   16.3169   -0.7001 H         1 RES1    0.0000
     25 C16       10.6349   15.5815   -0.1217 C.ar      1 RES1    0.0000
     26 H10       10.7696   15.7197    0.8076 H         1 RES1    0.0000
     27 C17        6.5619   13.7789    3.4803 C.ar      1 RES1    0.0000
     28 C18        6.3834   12.4954    4.0054 C.ar      1 RES1    0.0000
     29 H11        6.5514   11.7362    3.4591 H         1 RES1    0.0000
     30 C19        5.9623   12.3201    5.3187 C.ar      1 RES1    0.0000
     31 H12        5.8492   11.4414    5.6636 H         1 RES1    0.0000
     32 C20        5.7082   13.4021    6.1207 C.ar      1 RES1    0.0000
     33 H13        5.4131   13.2707    7.0153 H         1 RES1    0.0000
     34 C21        5.8795   14.6781    5.6348 C.ar      1 RES1    0.0000
     35 H14        5.7003   15.4305    6.1870 H         1 RES1    0.0000
     36 C22        6.3154   14.8488    4.3340 C.ar      1 RES1    0.0000
     37 C23        5.5996   16.7765    3.1881 C.2       1 RES1    0.0000
     38 C24        5.9745   18.1873    2.8228 C.3       1 RES1    0.0000
     39 C25        7.3406   18.2157    2.1465 C.3       1 RES1    0.0000
     40 H15        7.5688   19.1397    1.9098 H         1 RES1    0.0000
     41 H16        7.3146   17.6692    1.3344 H         1 RES1    0.0000
     42 H17        8.0162   17.8589    2.7590 H         1 RES1    0.0000
     43 C26        4.9207   18.7791    1.9046 C.3       1 RES1    0.0000
     44 H18        5.1714   19.6975    1.6707 H         1 RES1    0.0000
     45 H19        4.0543   18.7848    2.3604 H         1 RES1    0.0000
     46 H20        4.8574   18.2401    1.0883 H         1 RES1    0.0000
     47 C27        6.0263   18.9951    4.1226 C.3       1 RES1    0.0000
     48 H21        6.2648   19.9229    3.9201 H         1 RES1    0.0000
     49 H22        6.6990   18.6082    4.7208 H         1 RES1    0.0000
     50 H23        5.1486   18.9707    4.5579 H         1 RES1    0.0000
     51 C28        5.7007   14.6687   11.5150 C.ar      2 RES2    0.0000
     52 C29        4.8051   15.1531   12.4398 C.ar      2 RES2    0.0000
     53 H24        5.0123   15.1149   13.3652 H         2 RES2    0.0000
     54 C30        3.6173   15.6891   12.0259 C.ar      2 RES2    0.0000
     55 H25        2.9909   16.0127   12.6616 H         2 RES2    0.0000
     56 C31        3.3335   15.7567   10.6637 C.ar      2 RES2    0.0000
     57 C32        4.2734   15.2731    9.7393 C.ar      2 RES2    0.0000
     58 H26        4.0909   15.3347    8.8108 H         2 RES2    0.0000
     59 C33        5.4535   14.7117   10.1636 C.ar      2 RES2    0.0000
     60 H27        6.0805   14.3637    9.5421 H         2 RES2    0.0000
     61 C34        2.0874   16.3583   10.2156 C.2       2 RES2    0.0000
     62 C35        1.4216   16.4234    9.0295 C.2       2 RES2    0.0000
     63 C36        0.2625   17.2117    9.2742 C.2       2 RES2    0.0000
     64 H28       -0.3904   17.4551    8.6271 H         2 RES2    0.0000
     65 C37        0.2459   17.5582   10.5885 C.2       2 RES2    0.0000
     66 C38       -0.7128   18.2241   11.4661 C.ar      2 RES2    0.0000
     67 C39       -0.4952   18.3321   12.8318 C.ar      2 RES2    0.0000
     68 H29        0.3149   18.0091   13.2092 H         2 RES2    0.0000
     69 C40       -1.4635   18.9140   13.6518 C.ar      2 RES2    0.0000
     70 H30       -1.3014   18.9913   14.5853 H         2 RES2    0.0000
     71 C41       -2.6432   19.3758   13.1330 C.ar      2 RES2    0.0000
     72 H31       -3.3046   19.7520   13.7014 H         2 RES2    0.0000
     73 C42       -2.8574   19.2868   11.7819 C.ar      2 RES2    0.0000
     74 H32       -3.6682   19.6168   11.4138 H         2 RES2    0.0000
     75 C43       -1.9016   18.7171   10.9421 C.ar      2 RES2    0.0000
     76 H33       -2.0630   18.6664   10.0066 H         2 RES2    0.0000
     77 C44        1.7786   15.7182    7.7716 C.ar      2 RES2    0.0000
     78 C45        1.7795   14.3271    7.7089 C.ar      2 RES2    0.0000
     79 H34        1.5474   13.8228    8.4815 H         2 RES2    0.0000
     80 C46        2.1136   13.6694    6.5391 C.ar      2 RES2    0.0000
     81 H35        2.1193   12.7204    6.5162 H         2 RES2    0.0000
     82 C47        2.4364   14.3812    5.4067 C.ar      2 RES2    0.0000
     83 H36        2.6573   13.9224    4.6064 H         2 RES2    0.0000
     84 C48        2.4405   15.7603    5.4334 C.ar      2 RES2    0.0000
     85 H37        2.6726   16.2587    4.6584 H         2 RES2    0.0000
     86 C49        2.1000   16.4050    6.6102 C.ar      2 RES2    0.0000
     87 C50        3.0996   18.4790    7.1304 C.2       2 RES2    0.0000
     88 C51        2.8420   19.9736    7.1471 C.3       2 RES2    0.0000
     89 C52        4.3374   20.6215    7.3446 C.3       2 RES2    0.0000
     90 H38        4.8813   20.4356    6.5509 H         2 RES2    0.0000
     91 H39        4.7639   20.2234    8.1314 H         2 RES2    0.0000
     92 H40        4.2602   21.5906    7.4694 H         2 RES2    0.0000
     93 C53        2.0674   20.2516    8.2943 C.3       2 RES2    0.0000
     94 H41        2.4925   19.8515    9.0811 H         2 RES2    0.0000
     95 H42        1.1692   19.8759    8.1799 H         2 RES2    0.0000
     96 H43        2.0015   21.2225    8.4156 H         2 RES2    0.0000
     97 C54        2.4731   20.4461    5.7745 C.3       2 RES2    0.0000
     98 H44        2.3161   21.4141    5.7918 H         2 RES2    0.0000
     99 H45        1.6578   19.9886    5.4799 H         2 RES2    0.0000
    100 H46        3.2036   20.2459    5.1541 H         2 RES2    0.0000
    101 N1         1.9103   10.7031   -0.7355 N.pl3     1 RES1    0.0000
    102 N2         6.9687   14.0666   11.9334 N.pl3     2 RES2    0.0000
    103 O1         1.8496   10.3521   -1.8911 O.2       1 RES1    0.0000
    104 O2         1.0032   10.5314    0.0780 O.2       1 RES1    0.0000
    105 O3         7.4013   13.8360   -0.1189 O.3       1 RES1    0.0000
    106 O4         6.5739   16.1550    3.8872 O.3       1 RES1    0.0000
    107 O5         4.5568   16.2258    2.9420 O.2       1 RES1    0.0000
    108 O6         7.7005   13.5311   11.1351 O.2       2 RES2    0.0000
    109 O7         7.3008   14.5027   13.1513 O.2       2 RES2    0.0000
    110 O8         1.3656   17.0447   11.1819 O.3       2 RES2    0.0000
    111 O9         2.0444   17.8158    6.6081 O.3       2 RES2    0.0000
    112 O10        4.0771   17.9182    7.5200 O.2       2 RES2    0.0000
    113 C55        3.7458   20.7774    7.8715 Du        3 SUP3    0.0000
    114 C56        1.3404   20.2760    7.8992 Du        3 SUP3    0.0000
    115 H47        3.9053   20.3774    8.7518 Du        3 SUP3    0.0000
    116 H48        3.3682   21.6752    7.9824 Du        3 SUP3    0.0000
    117 H49        4.5927   20.8375    7.3827 Du        3 SUP3    0.0000
    118 H50        0.6432   19.7407    7.4659 Du        3 SUP3    0.0000
    119 H51        1.1191   21.2282    7.8160 Du        3 SUP3    0.0000
    120 H52        1.3955   20.0356    8.8489 Du        3 SUP3    0.0000
    121 O11        7.1238   13.7533   13.0508 Du        3 SUP3    0.0000
@<TRIPOS>BOND
     1    1    2 ar
     2    2    3 1
     3    4    2 ar
     4    5    4 1
     5    6    4 ar
     6    7    6 ar
     7    8    7 1
     8    9    1 ar
     9   10    9 1
    10   11    6 1
    11   12   11 2
    12   13   12 1
    13   14   13 1
    14   15   13 2
    15   16   15 1
    16   17   16 ar
    17   18   17 1
    18   19   17 ar
    19   20   19 1
    20   21   19 ar
    21   22   21 1
    22   23   21 ar
    23   24   23 1
    24   25   16 ar
    25   26   25 1
    26   27   12 1
    27   28   27 ar
    28   29   28 1
    29   30   28 ar
    30   31   30 1
    31   32   30 ar
    32   33   32 1
    33   34   32 ar
    34   35   34 1
    35   36   27 ar
    36   37   38 1
    37   38   39 1
    38   39   40 1
    39   41   39 1
    40   42   39 1
    41   43   38 1
    42   44   43 1
    43   45   43 1
    44   46   43 1
    45   47   38 1
    46   48   47 1
    47   49   47 1
    48   50   47 1
    49   51   52 ar
    50   52   53 1
    51   54   52 ar
    52   55   54 1
    53   56   54 ar
    54   57   56 ar
    55   58   57 1
    56   59   51 ar
    57   60   59 1
    58   61   56 1
    59   62   61 2
    60   63   62 1
    61   64   63 1
    62   65   63 2
    63   66   65 1
    64   67   66 ar
    65   68   67 1
    66   69   67 ar
    67   70   69 1
    68   71   69 ar
    69   72   71 1
    70   73   71 ar
    71   74   73 1
    72   75   66 ar
    73   76   75 1
    74   77   62 1
    75   78   77 ar
    76   79   78 1
    77   80   78 ar
    78   81   80 1
    79   82   80 ar
    80   83   82 1
    81   84   82 ar
    82   85   84 1
    83   86   77 ar
    84   87   88 1
    85   88   89 1
    86   89   90 1
    87   91   89 1
    88   92   89 1
    89   93   88 1
    90   94   93 1
    91   95   93 1
    92   96   93 1
    93   97   88 1
    94   98   97 1
    95   99   97 1
    96  100   97 1
    97  101    1 1
    98  102   51 1
    99  103  101 2
   100  104  101 2
   101  105   11 1
   102  106   36 1
   103  107   37 2
   104  108  102 2
   105  109  102 2
   106  110   61 1
   107  111   86 1
   108  112   87 2
   109    7    9 ar
   110   15  105 1
   111   23   25 ar
   112   34   36 ar
   113   37  106 1
   114   57   59 ar
   115   65  110 1
   116   73   75 ar
   117   84   86 ar
   118   87  111 1
@<TRIPOS>SUBSTRUCTURE
     1 RES1 1
     2 RES2 51
     3 SUP3 113

@<TRIPOS>CRYSIN
   7.0371   18.7810   34.6610  90.0000  90.2000  90.0000  14 1

