# MOL2 file generated by ConQuest
# Please check atom types

@<TRIPOS>MOLECULE
NEHPUN
    22    22     2
SMALL
USER_CHARGES
****
Generated from CSD

@<TRIPOS>ATOM
      1 O1         1.7870    0.9094   19.4757 O.2       1 RES1   -1.0000
      2 N1         1.1329    1.5599   18.6443 N.pl3     1 RES1    1.0000
      3 N2         0.7194    0.9343   17.5137 N.ar      1 RES1    0.0000
      4 C1         0.0316    1.6488   16.6269 C.ar      1 RES1    0.0000
      5 H1        -0.2478    1.2171   15.8266 H         1 RES1    0.0000
      6 C2        -0.3065    2.9809   16.7910 C.ar      1 RES1    0.0000
      7 H2        -0.7958    3.4546   16.1281 H         1 RES1    0.0000
      8 C3         0.0877    3.5785   17.9371 C.ar      1 RES1    0.0000
      9 H3        -0.1396    4.4879   18.0968 H         1 RES1    0.0000
     10 C4         0.8168    2.8800   18.8749 C.ar      1 RES1    0.0000
     11 H4         1.0989    3.3067   19.6752 H         1 RES1    0.0000
     12 O2         1.4426    4.7377    1.8999 O.2       2 RES2   -1.0000
     13 N3         0.7780    3.6864    1.6051 N.pl3     2 RES2    1.0000
     14 N4         0.4022    2.8910    2.6404 N.ar      2 RES2    0.0000
     15 C5        -0.2470    1.8027    2.3322 C.ar      2 RES2    0.0000
     16 H5        -0.5104    1.2421    3.0527 H         2 RES2    0.0000
     17 C6        -0.5863    1.3930    1.0663 C.ar      2 RES2    0.0000
     18 H6        -1.0609    0.5836    0.9089 H         2 RES2    0.0000
     19 C7        -0.2029    2.2234    0.0421 C.ar      2 RES2    0.0000
     20 H7        -0.4166    2.0036   -0.8579 H         2 RES2    0.0000
     21 C8         0.4886    3.3676    0.3259 C.ar      2 RES2    0.0000
     22 H8         0.7663    3.9402   -0.3791 H         2 RES2    0.0000
@<TRIPOS>BOND
     1    1    2 1
     2    2    3 ar
     3    3    4 ar
     4    4    5 1
     5    6    4 ar
     6    7    6 1
     7    8    6 ar
     8    9    8 1
     9   10    2 ar
    10   11   10 1
    11   12   13 1
    12   13   14 ar
    13   14   15 ar
    14   15   16 1
    15   17   15 ar
    16   18   17 1
    17   19   17 ar
    18   20   19 1
    19   21   13 ar
    20   22   21 1
    21    8   10 ar
    22   19   21 ar
@<TRIPOS>SUBSTRUCTURE
     1 RES1 1
     2 RES2 12

@<TRIPOS>CRYSIN
   3.8190    9.9930   22.1710  90.0000  90.7200  90.0000 231 1

