# MOL2 file generated by ConQuest
# Please check atom types

@<TRIPOS>MOLECULE
NEHQAU
    11    11     1
SMALL
USER_CHARGES
****
Generated from CSD

@<TRIPOS>ATOM
      1 O1        -0.2704    0.1802   17.7993 O.2       1 RES1   -1.0000
      2 N1         0.6437    0.9869   17.3240 N.pl3     1 RES1    1.0000
      3 C1         0.5334    1.4643   16.0563 C.ar      1 RES1    0.0000
      4 H1        -0.2242    1.2039   15.5457 H         1 RES1    0.0000
      5 N2         1.4119    2.2637   15.4923 N.ar      1 RES1    0.0000
      6 C2         2.4821    2.6225   16.2267 C.ar      1 RES1    0.0000
      7 H2         3.1326    3.1989   15.8418 H         1 RES1    0.0000
      8 C3         2.6615    2.1800   17.5162 C.ar      1 RES1    0.0000
      9 H3         3.4205    2.4515   18.0190 H         1 RES1    0.0000
     10 C4         1.7281    1.3413   18.0633 C.ar      1 RES1    0.0000
     11 H4         1.8363    1.0113   18.9479 H         1 RES1    0.0000
@<TRIPOS>BOND
     1    1    2 1
     2    2    3 ar
     3    3    4 1
     4    5    3 ar
     5    6    5 ar
     6    7    6 1
     7    8    6 ar
     8    9    8 1
     9   10    2 ar
    10   11   10 1
    11    8   10 ar
@<TRIPOS>SUBSTRUCTURE
     1 RES1 1

@<TRIPOS>CRYSIN
   5.4370    4.0051   19.4400  90.0000  95.4430  90.0000 231 1

