# MOL2 file generated by ConQuest
# Please check atom types

@<TRIPOS>MOLECULE
NEHQEY
    22    22     2
SMALL
USER_CHARGES
****
Generated from CSD

@<TRIPOS>ATOM
      1 O1         9.8640    2.3363   11.9790 O.2       1 RES1   -1.0000
      2 N1         8.9492    1.7651   11.2665 N.pl3     1 RES1    1.0000
      3 C1         7.7187    1.5126   11.7978 C.ar      1 RES1    0.0000
      4 H1         7.5325    1.7249   12.7055 H         1 RES1    0.0000
      5 C2         6.7615    0.9516   11.0074 C.ar      1 RES1    0.0000
      6 H2         5.9119    0.7846   11.3966 H         1 RES1    0.0000
      7 N2         6.9298    0.6180    9.7204 N.ar      1 RES1    0.0000
      8 C3         8.1606    0.8511    9.2463 C.ar      1 RES1    0.0000
      9 H3         8.3445    0.6052    8.3465 H         1 RES1    0.0000
     10 C4         9.1733    1.4227    9.9753 C.ar      1 RES1    0.0000
     11 H4        10.0226    1.5769    9.5782 H         1 RES1    0.0000
     12 O2        12.8976    1.2053   14.1264 O.2       2 RES2   -1.0000
     13 N3        11.8925    0.9779   14.8727 N.pl3     2 RES2    1.0000
     14 C5        11.9195    1.2889   16.1959 C.ar      2 RES2    0.0000
     15 H5        12.6984    1.6701   16.5844 H         2 RES2    0.0000
     16 C6        10.8201    1.0496   16.9587 C.ar      2 RES2    0.0000
     17 H6        10.8706    1.2688   17.8809 H         2 RES2    0.0000
     18 N4         9.6651    0.5244   16.5049 N.ar      2 RES2    0.0000
     19 C7         9.6845    0.2215   15.1913 C.ar      2 RES2    0.0000
     20 H7         8.9019   -0.1608   14.8120 H         2 RES2    0.0000
     21 C8        10.7504    0.4265   14.3729 C.ar      2 RES2    0.0000
     22 H8        10.6998    0.1860   13.4550 H         2 RES2    0.0000
@<TRIPOS>BOND
     1    1    2 1
     2    2    3 ar
     3    3    4 1
     4    5    3 ar
     5    6    5 1
     6    7    5 ar
     7    8    7 ar
     8    9    8 1
     9   10    2 ar
    10   11   10 1
    11   12   13 1
    12   13   14 ar
    13   14   15 1
    14   16   14 ar
    15   17   16 1
    16   18   16 ar
    17   19   18 ar
    18   20   19 1
    19   21   13 ar
    20   22   21 1
    21    8   10 ar
    22   19   21 ar
@<TRIPOS>SUBSTRUCTURE
     1 RES1 1
     2 RES2 12

@<TRIPOS>CRYSIN
  11.4160    3.6545   20.8890  90.0000  91.9700  90.0000 231 1

