# MOL2 file generated by ConQuest
# Please check atom types

@<TRIPOS>MOLECULE
NEHSOK
    64    68     2
SMALL
NO_CHARGES
****
Generated from CSD

@<TRIPOS>ATOM
      1 O1        11.6802    9.0330    0.3184 O.3       1 RES1    0.0000
      2 O2        10.8963   13.1853    1.6835 O.2       1 RES1    0.0000
      3 O3         4.6823   12.6167    1.8919 O.3       1 RES1    0.0000
      4 N1        16.7349   13.0113    1.9652 N.1       1 RES1    0.0000
      5 N2        17.5609    9.3749    0.6551 N.1       1 RES1    0.0000
      6 N3        10.5734    9.8628    0.6130 N.2       1 RES1    0.0000
      7 C1        11.0496   10.9928    1.0725 C.2       1 RES1    0.0000
      8 C2        12.4811   10.9700    1.0983 C.ar      1 RES1    0.0000
      9 C3        13.4897   11.8527    1.4873 C.ar      1 RES1    0.0000
     10 H1        13.2874   12.7120    1.8376 H         1 RES1    0.0000
     11 C4        14.7910   11.4283    1.3427 C.ar      1 RES1    0.0000
     12 C5        15.0914   10.1242    0.8404 C.ar      1 RES1    0.0000
     13 C6        14.0960    9.2436    0.4874 C.ar      1 RES1    0.0000
     14 H2        14.2842    8.3677    0.1731 H         1 RES1    0.0000
     15 C7        12.8078    9.7179    0.6211 C.ar      1 RES1    0.0000
     16 C8        10.2274   12.1856    1.4703 C.2       1 RES1    0.0000
     17 C9         8.7810   12.1886    1.5606 C.ar      1 RES1    0.0000
     18 C10        7.9607   11.0778    1.3780 C.ar      1 RES1    0.0000
     19 H3         8.3530   10.2378    1.1676 H         1 RES1    0.0000
     20 C11        6.5900   11.1713    1.4961 C.ar      1 RES1    0.0000
     21 H4         6.0440   10.4032    1.3821 H         1 RES1    0.0000
     22 C12        6.0177   12.4021    1.7833 C.ar      1 RES1    0.0000
     23 C13        6.8031   13.5152    1.9631 C.ar      1 RES1    0.0000
     24 H5         6.4010   14.3539    2.1559 H         1 RES1    0.0000
     25 C14        8.1674   13.4109    1.8640 C.ar      1 RES1    0.0000
     26 H6         8.7060   14.1810    2.0032 H         1 RES1    0.0000
     27 C15        3.8092   11.4811    1.7459 C.3       1 RES1    0.0000
     28 H7         2.8807   11.7644    1.8701 H         1 RES1    0.0000
     29 H8         4.0389   10.8043    2.4186 H         1 RES1    0.0000
     30 H9         3.9178   11.0976    0.8499 H         1 RES1    0.0000
     31 C16       15.8744   12.3034    1.6977 C.1       1 RES1    0.0000
     32 C17       16.4680    9.7146    0.7352 C.1       1 RES1    0.0000
     33 O4        13.8673   15.1749    2.5191 O.3       2 RES2    0.0000
     34 O5        15.7880   19.0020    3.7043 O.2       2 RES2    0.0000
     35 O6        21.5443   16.4210    3.2495 O.3       2 RES2    0.0000
     36 N4        10.5470   20.7455    1.1289 N.1       2 RES2    0.0000
     37 N5         8.7282   17.3290    0.5933 N.1       2 RES2    0.0000
     38 N6        15.1076   15.6793    2.9617 N.2       2 RES2    0.0000
     39 C18       15.0284   16.9801    2.8890 C.2       2 RES2    0.0000
     40 C19       13.7627   17.4087    2.3969 C.ar      2 RES2    0.0000
     41 C20       13.1241   18.6315    2.1376 C.ar      2 RES2    0.0000
     42 H10       13.5617   19.4628    2.2849 H         2 RES2    0.0000
     43 C21       11.8308   18.5676    1.6563 C.ar      2 RES2    0.0000
     44 C22       11.1709   17.3345    1.4466 C.ar      2 RES2    0.0000
     45 C23       11.7879   16.1363    1.7011 C.ar      2 RES2    0.0000
     46 H11       11.3586   15.3015    1.5525 H         2 RES2    0.0000
     47 C24       13.0801   16.2235    2.1885 C.ar      2 RES2    0.0000
     48 C25       16.1426   17.8855    3.3371 C.2       2 RES2    0.0000
     49 C26       17.5402   17.4463    3.3445 C.ar      2 RES2    0.0000
     50 C27       17.9854   16.2403    2.8218 C.ar      2 RES2    0.0000
     51 H12       17.3586   15.6224    2.4641 H         2 RES2    0.0000
     52 C28       19.3258   15.9285    2.8164 C.ar      2 RES2    0.0000
     53 H13       19.6124   15.0959    2.4614 H         2 RES2    0.0000
     54 C29       20.2524   16.8106    3.3194 C.ar      2 RES2    0.0000
     55 C30       19.8375   18.0249    3.8720 C.ar      2 RES2    0.0000
     56 H14       20.4729   18.6356    4.2263 H         2 RES2    0.0000
     57 C31       18.4958   18.3177    3.8944 C.ar      2 RES2    0.0000
     58 H15       18.2068   19.1294    4.2915 H         2 RES2    0.0000
     59 C32       22.5624   17.2869    3.7715 C.3       2 RES2    0.0000
     60 H16       23.4415   16.8758    3.6357 H         2 RES2    0.0000
     61 H17       22.4113   17.4298    4.7293 H         2 RES2    0.0000
     62 H18       22.5290   18.1492    3.3052 H         2 RES2    0.0000
     63 C33       11.1186   19.7912    1.3766 C.1       2 RES2    0.0000
     64 C34        9.8158   17.3375    0.9707 C.1       2 RES2    0.0000
@<TRIPOS>BOND
     1    1    6 1
     2    2   16 2
     3    3   22 1
     4    4   31 3
     5    5   32 3
     6    6    7 2
     7    7    8 1
     8    8    9 ar
     9    9   10 1
    10   11    9 ar
    11   12   11 ar
    12   13   12 ar
    13   14   13 1
    14   15    1 1
    15   16    7 1
    16   17   16 1
    17   18   17 ar
    18   19   18 1
    19   20   18 ar
    20   21   20 1
    21   22   20 ar
    22   23   22 ar
    23   24   23 1
    24   25   17 ar
    25   26   25 1
    26   27    3 1
    27   28   27 1
    28   29   27 1
    29   30   27 1
    30   31   11 1
    31   32   12 1
    32   33   38 1
    33   34   48 2
    34   35   54 1
    35   36   63 3
    36   37   64 3
    37   38   39 2
    38   39   40 1
    39   40   41 ar
    40   41   42 1
    41   43   41 ar
    42   44   43 ar
    43   45   44 ar
    44   46   45 1
    45   47   33 1
    46   48   39 1
    47   49   48 1
    48   50   49 ar
    49   51   50 1
    50   52   50 ar
    51   53   52 1
    52   54   52 ar
    53   55   54 ar
    54   56   55 1
    55   57   49 ar
    56   58   57 1
    57   59   35 1
    58   60   59 1
    59   61   59 1
    60   62   59 1
    61   63   43 1
    62   64   44 1
    63    8   15 ar
    64   13   15 ar
    65   23   25 ar
    66   40   47 ar
    67   45   47 ar
    68   55   57 ar
@<TRIPOS>SUBSTRUCTURE
     1 RES1 1
     2 RES2 33

@<TRIPOS>CRYSIN
  16.0610   25.0680    6.8850  90.0000  99.6210  90.0000  14 1

