# MOL2 file generated by ConQuest
# Please check atom types

@<TRIPOS>MOLECULE
NEHYEG
    38    39     1
SMALL
NO_CHARGES
****
Generated from CSD

@<TRIPOS>ATOM
      1 C1         2.7050    8.2402    7.4613 C.ar      1 RES1    0.0000
      2 C2         2.9020    6.8882    7.5094 C.ar      1 RES1    0.0000
      3 H1         2.9433    6.4528    8.3301 H         1 RES1    0.0000
      4 C3         3.0377    6.1777    6.3479 C.ar      1 RES1    0.0000
      5 H2         3.1547    5.2551    6.3845 H         1 RES1    0.0000
      6 C4         3.0024    6.8055    5.1321 C.ar      1 RES1    0.0000
      7 H3         3.0962    6.3133    4.3480 H         1 RES1    0.0000
      8 C5         2.8320    8.1368    5.0767 C.ar      1 RES1    0.0000
      9 H4         2.8090    8.5647    4.2508 H         1 RES1    0.0000
     10 C6         2.6937    8.8654    6.2214 C.ar      1 RES1    0.0000
     11 H5         2.5898    9.7881    6.1713 H         1 RES1    0.0000
     12 C7         2.4854    9.0674    8.6594 C.2       1 RES1    0.0000
     13 C8         2.3975    8.3773   10.0154 C.2       1 RES1    0.0000
     14 C9         1.3637    7.6431   10.5391 C.2       1 RES1    0.0000
     15 C10        3.3034    8.4387   11.0598 C.2       1 RES1    0.0000
     16 C11        0.0702    7.1610    9.9945 C.2       1 RES1    0.0000
     17 C12       -1.2644    7.1937    8.0405 C.3       1 RES1    0.0000
     18 H6        -1.3359    6.2266    8.0604 H         1 RES1    0.0000
     19 H7        -2.0619    7.5686    8.4472 H         1 RES1    0.0000
     20 C13       -1.1358    7.6554    6.6825 C.3       1 RES1    0.0000
     21 H8        -1.0062    8.6065    6.6793 H         1 RES1    0.0000
     22 H9        -1.9330    7.4386    6.1932 H         1 RES1    0.0000
     23 H10       -0.3814    7.2287    6.2695 H         1 RES1    0.0000
     24 C14        4.6303    9.0896   11.0681 C.2       1 RES1    0.0000
     25 C15        6.4497    9.8221   12.3749 C.3       1 RES1    0.0000
     26 H11        7.1028    9.4350   11.7707 H         1 RES1    0.0000
     27 H12        6.3136   10.7480   12.1177 H         1 RES1    0.0000
     28 C16        6.9316    9.7674   13.6734 C.3       1 RES1    0.0000
     29 H13        6.3796   10.3097   14.2421 H         1 RES1    0.0000
     30 H14        7.8332   10.0970   13.6943 H         1 RES1    0.0000
     31 H15        6.9151    8.8592   13.9828 H         1 RES1    0.0000
     32 O1         2.3744   10.2632    8.6312 O.2       1 RES1    0.0000
     33 O2        -0.7033    6.4758   10.5841 O.2       1 RES1    0.0000
     34 O3        -0.0787    7.6246    8.7681 O.3       1 RES1    0.0000
     35 O4         5.1097    9.5393   10.0708 O.2       1 RES1    0.0000
     36 O5         5.1835    9.0905   12.2631 O.3       1 RES1    0.0000
     37 N1         2.8926    7.7899   12.1146 N.2       1 RES1    0.0000
     38 O6         1.6331    7.2769   11.8010 O.3       1 RES1    0.0000
@<TRIPOS>BOND
     1    1    2 ar
     2    2    3 1
     3    4    2 ar
     4    5    4 1
     5    6    4 ar
     6    7    6 1
     7    8    6 ar
     8    9    8 1
     9   10    1 ar
    10   11   10 1
    11   12    1 1
    12   13   12 1
    13   14   13 2
    14   15   13 1
    15   16   14 1
    16   17   18 1
    17   19   17 1
    18   20   17 1
    19   21   20 1
    20   22   20 1
    21   23   20 1
    22   24   15 1
    23   25   26 1
    24   27   25 1
    25   28   25 1
    26   29   28 1
    27   30   28 1
    28   31   28 1
    29   32   12 2
    30   33   16 2
    31   34   16 1
    32   35   24 2
    33   36   24 1
    34   37   15 2
    35   38   14 1
    36    8   10 ar
    37   17   34 1
    38   25   36 1
    39   37   38 1
@<TRIPOS>SUBSTRUCTURE
     1 RES1 1

@<TRIPOS>CRYSIN
   7.7457   10.4061   10.4809  85.9410  88.7100  76.0350   2 1

