# MOL2 file generated by ConQuest
# Please check atom types

@<TRIPOS>MOLECULE
NEHYIK
    42    43     1
SMALL
NO_CHARGES
****
Generated from CSD

@<TRIPOS>ATOM
      1 C1         0.8312    6.4634    5.9715 C.ar      1 RES1    0.0000
      2 C2         1.3547    7.7042    6.2808 C.ar      1 RES1    0.0000
      3 H1         1.9533    8.1129    5.6990 H         1 RES1    0.0000
      4 C3         0.9921    8.3380    7.4503 C.ar      1 RES1    0.0000
      5 H2         1.3591    9.1652    7.6672 H         1 RES1    0.0000
      6 C4         0.0844    7.7399    8.2965 C.ar      1 RES1    0.0000
      7 H3        -0.1815    8.1796    9.0718 H         1 RES1    0.0000
      8 C5        -0.4307    6.5060    8.0095 C.ar      1 RES1    0.0000
      9 H4        -1.0324    6.1059    8.5941 H         1 RES1    0.0000
     10 C6        -0.0575    5.8547    6.8540 C.ar      1 RES1    0.0000
     11 H5        -0.3983    5.0102    6.6634 H         1 RES1    0.0000
     12 C7         1.1849    5.7494    4.7299 C.2       1 RES1    0.0000
     13 C8         2.0122    6.4770    3.6869 C.2       1 RES1    0.0000
     14 C9         1.5301    7.1224    2.5446 C.2       1 RES1    0.0000
     15 C10        3.3682    6.5620    3.5645 C.2       1 RES1    0.0000
     16 C11        0.1022    7.3843    2.1846 C.2       1 RES1    0.0000
     17 C12       -0.2387    7.9167    0.8356 C.3       1 RES1    0.0000
     18 H6         0.3745    8.6579    0.6459 H         1 RES1    0.0000
     19 C13       -1.6296    8.4511    0.7497 C.3       1 RES1    0.0000
     20 H7        -2.2481    7.7815    1.0521 H         1 RES1    0.0000
     21 H8        -1.8282    8.6820   -0.1610 H         1 RES1    0.0000
     22 H9        -1.7068    9.2318    1.3026 H         1 RES1    0.0000
     23 C14        0.0138    6.8432   -0.1968 C.3       1 RES1    0.0000
     24 H10        0.9205    6.5369   -0.1235 H         1 RES1    0.0000
     25 H11       -0.1327    7.2027   -1.0736 H         1 RES1    0.0000
     26 H12       -0.5852    6.1088   -0.0465 H         1 RES1    0.0000
     27 C15        4.4275    6.0972    4.4808 C.2       1 RES1    0.0000
     28 C16        5.8678    6.3755    4.1440 C.3       1 RES1    0.0000
     29 H13        5.8828    7.1389    3.5285 H         1 RES1    0.0000
     30 C17        6.4181    5.2343    3.4337 C.3       1 RES1    0.0000
     31 H14        7.2126    5.5020    2.9649 H         1 RES1    0.0000
     32 H15        5.7709    4.9068    2.8039 H         1 RES1    0.0000
     33 H16        6.6340    4.5405    4.0600 H         1 RES1    0.0000
     34 C18        6.6053    6.7678    5.3483 C.3       1 RES1    0.0000
     35 H17        7.0766    6.0083    5.6972 H         1 RES1    0.0000
     36 H18        5.9894    7.0935    6.0085 H         1 RES1    0.0000
     37 H19        7.2334    7.4606    5.1282 H         1 RES1    0.0000
     38 N1         2.5184    7.5573    1.7836 N.2       1 RES1    0.0000
     39 O1         0.8308    4.6246    4.4821 O.2       1 RES1    0.0000
     40 O2        -0.7207    7.1205    3.0078 O.2       1 RES1    0.0000
     41 O3         3.6949    7.1911    2.4245 O.3       1 RES1    0.0000
     42 O4         4.0729    5.5030    5.4782 O.2       1 RES1    0.0000
@<TRIPOS>BOND
     1    1    2 ar
     2    2    3 1
     3    4    2 ar
     4    5    4 1
     5    6    4 ar
     6    7    6 1
     7    8    6 ar
     8    9    8 1
     9   10    1 ar
    10   11   10 1
    11   12    1 1
    12   13   12 1
    13   14   13 1
    14   15   13 2
    15   16   14 1
    16   17   16 1
    17   18   17 1
    18   19   17 1
    19   20   19 1
    20   21   19 1
    21   22   19 1
    22   23   17 1
    23   24   23 1
    24   25   23 1
    25   26   23 1
    26   27   15 1
    27   28   27 1
    28   29   28 1
    29   30   28 1
    30   31   30 1
    31   32   30 1
    32   33   30 1
    33   34   28 1
    34   35   34 1
    35   36   34 1
    36   37   34 1
    37   38   14 2
    38   39   12 2
    39   40   16 2
    40   41   15 1
    41   42   27 2
    42    8   10 ar
    43   38   41 1
@<TRIPOS>SUBSTRUCTURE
     1 RES1 1

@<TRIPOS>CRYSIN
  10.0102    9.6628   17.9008  90.0000  91.6770  90.0000 231 1

