# MOL2 file generated by ConQuest
# Please check atom types

@<TRIPOS>MOLECULE
NEJFIT
    59    64     1
SMALL
NO_CHARGES
****
Generated from CSD

@<TRIPOS>ATOM
      1 O1        -1.3893    4.3585   12.0008 O.3       1 RES1    0.0000
      2 O2        -2.5661    2.5191   11.1822 O.3       1 RES1    0.0000
      3 O3        -1.0945    1.3002   12.3913 O.3       1 RES1    0.0000
      4 O4         0.9923    2.4200   13.8075 O.3       1 RES1    0.0000
      5 O5         1.9947    5.5217   13.5508 O.3       1 RES1    0.0000
      6 N1         0.7581    6.0949   13.0233 N.3       1 RES1    0.0000
      7 C1        -1.3543    3.2316   11.1558 C.3       1 RES1    0.0000
      8 H1        -1.1289    3.4944   10.2396 H         1 RES1    0.0000
      9 C2        -0.3172    2.2666   11.7070 C.3       1 RES1    0.0000
     10 H2         0.2644    1.8825   11.0174 H         1 RES1    0.0000
     11 C3         0.4313    3.1316   12.7235 C.3       1 RES1    0.0000
     12 H3         1.1307    3.6439   12.2689 H         1 RES1    0.0000
     13 C4        -0.6595    4.0731   13.2057 C.3       1 RES1    0.0000
     14 H4        -1.2467    3.5873   13.8224 H         1 RES1    0.0000
     15 C5        -2.3515    1.2119   11.7265 C.3       1 RES1    0.0000
     16 C6        -3.4034    0.9084   12.7357 C.3       1 RES1    0.0000
     17 H5        -4.2558    0.8427   12.2999 H         1 RES1    0.0000
     18 H6        -3.4321    1.6107   13.3900 H         1 RES1    0.0000
     19 H7        -3.2011    0.0759   13.1687 H         1 RES1    0.0000
     20 C7        -2.3097    0.2005   10.6192 C.3       1 RES1    0.0000
     21 H8        -3.1678    0.1597   10.1920 H         1 RES1    0.0000
     22 H9        -2.0908   -0.6604   10.9801 H         1 RES1    0.0000
     23 H10       -1.6437    0.4576    9.9769 H         1 RES1    0.0000
     24 C8         2.2439    1.8293   13.4939 C.3       1 RES1    0.0000
     25 H11        2.8477    2.5021   13.1418 H         1 RES1    0.0000
     26 H12        2.1251    1.1429   12.8191 H         1 RES1    0.0000
     27 C9         2.8190    1.2256   14.7411 C.ar      1 RES1    0.0000
     28 C10        3.1826   -0.1099   14.7936 C.ar      1 RES1    0.0000
     29 H13        3.0611   -0.6502   14.0458 H         1 RES1    0.0000
     30 C11        3.7225   -0.6422   15.9400 C.ar      1 RES1    0.0000
     31 H14        3.9757   -1.5359   15.9592 H         1 RES1    0.0000
     32 C12        3.8894    0.1416   17.0589 C.ar      1 RES1    0.0000
     33 H15        4.2521   -0.2220   17.8334 H         1 RES1    0.0000
     34 C13        3.5175    1.4612   17.0248 C.ar      1 RES1    0.0000
     35 H16        3.6195    1.9924   17.7817 H         1 RES1    0.0000
     36 C14        2.9887    2.0049   15.8618 C.ar      1 RES1    0.0000
     37 H17        2.7476    2.9020   15.8413 H         1 RES1    0.0000
     38 C15       -0.2467    5.3760   13.8520 C.3       1 RES1    0.0000
     39 H18       -1.0380    5.9444   13.9631 H         1 RES1    0.0000
     40 C16        0.4378    5.1832   15.2311 C.3       1 RES1    0.0000
     41 H19       -0.0445    5.6386   15.9386 H         1 RES1    0.0000
     42 H20        0.5352    4.2454   15.4566 H         1 RES1    0.0000
     43 C17        1.7764    5.8368   14.9523 C.3       1 RES1    0.0000
     44 C18        1.5992    7.3467   14.8993 C.3       1 RES1    0.0000
     45 H21        2.4535    7.8077   14.8939 H         1 RES1    0.0000
     46 H22        1.0621    7.6706   15.6386 H         1 RES1    0.0000
     47 C19        0.8590    7.4994   13.5446 C.3       1 RES1    0.0000
     48 H23       -0.0436    7.8405   13.7127 H         1 RES1    0.0000
     49 C20        1.5398    8.3989   12.5485 C.ar      1 RES1    0.0000
     50 C21        0.8664    9.4603   11.9673 C.ar      1 RES1    0.0000
     51 H24       -0.0148    9.6359   12.2089 H         1 RES1    0.0000
     52 C22        1.4925   10.2589   11.0337 C.ar      1 RES1    0.0000
     53 H25        1.0222   10.9589   10.6409 H         1 RES1    0.0000
     54 C23        2.8051   10.0357   10.6729 C.ar      1 RES1    0.0000
     55 H26        3.2197   10.5817   10.0451 H         1 RES1    0.0000
     56 C24        3.4887    9.0004   11.2530 C.ar      1 RES1    0.0000
     57 H27        4.3764    8.8441   11.0215 H         1 RES1    0.0000
     58 C25        2.8626    8.1883   12.1807 C.ar      1 RES1    0.0000
     59 H28        3.3366    7.4871   12.5667 H         1 RES1    0.0000
@<TRIPOS>BOND
     1    1    7 1
     2    2    7 1
     3    3    9 1
     4    4   11 1
     5    5    6 1
     6    6   38 1
     7    7    8 1
     8    9    7 1
     9   10    9 1
    10   11    9 1
    11   12   11 1
    12   13    1 1
    13   14   13 1
    14   15    2 1
    15   16   15 1
    16   17   16 1
    17   18   16 1
    18   19   16 1
    19   20   15 1
    20   21   20 1
    21   22   20 1
    22   23   20 1
    23   24    4 1
    24   25   24 1
    25   26   24 1
    26   27   24 1
    27   28   27 ar
    28   29   28 1
    29   30   28 ar
    30   31   30 1
    31   32   30 ar
    32   33   32 1
    33   34   32 ar
    34   35   34 1
    35   36   27 ar
    36   37   36 1
    37   38   13 1
    38   39   38 1
    39   40   38 1
    40   41   40 1
    41   42   40 1
    42   43    5 1
    43   44   43 1
    44   45   44 1
    45   46   44 1
    46   47    6 1
    47   48   47 1
    48   49   47 1
    49   50   49 ar
    50   51   50 1
    51   52   50 ar
    52   53   52 1
    53   54   52 ar
    54   55   54 1
    55   56   54 ar
    56   57   56 1
    57   58   49 ar
    58   59   58 1
    59    3   15 1
    60   11   13 1
    61   34   36 ar
    62   40   43 1
    63   44   47 1
    64   56   58 ar
@<TRIPOS>SUBSTRUCTURE
     1 RES1 1

@<TRIPOS>CRYSIN
   9.2760   11.3270   20.6860  90.0000  90.0000  90.0000  19 1

