# MOL2 file generated by ConQuest
# Please check atom types

@<TRIPOS>MOLECULE
NEJFEP
    69    72     1
SMALL
NO_CHARGES
****
Generated from CSD

@<TRIPOS>ATOM
      1 N1         5.1966    0.7190   -0.0804 N.pl3     1 RES1    0.0000
      2 O1         5.4014    0.8401    4.3862 O.3       1 RES1    0.0000
      3 O2         3.1400    1.2774    4.1214 O.3       1 RES1    0.0000
      4 O3         3.3827    3.1920    5.2891 O.3       1 RES1    0.0000
      5 O4         6.1347    2.0171    7.2721 O.3       1 RES1    0.0000
      6 O5         7.6726    2.3460    5.6439 O.3       1 RES1    0.0000
      7 O6         5.5313   -0.5112   -0.3272 O.2       1 RES1    0.0000
      8 O7         1.8360    1.1829   -1.5391 O.3       1 RES1    0.0000
      9 O8         0.9449    0.8559    0.5064 O.3       1 RES1    0.0000
     10 C1         4.1926    1.0036    5.0459 C.3       1 RES1    0.0000
     11 H1         3.9813    0.1881    5.5467 H         1 RES1    0.0000
     12 C2         4.1525    2.2130    5.9967 C.3       1 RES1    0.0000
     13 H2         3.6952    1.9678    6.8289 H         1 RES1    0.0000
     14 C3         5.4829    2.8375    6.3108 C.3       1 RES1    0.0000
     15 H3         5.3552    3.7396    6.6706 H         1 RES1    0.0000
     16 C4         6.4494    2.8778    5.1213 C.3       1 RES1    0.0000
     17 H4         6.5898    3.8076    4.8469 H         1 RES1    0.0000
     18 C5         5.9761    2.0633    3.9269 C.3       1 RES1    0.0000
     19 H5         5.2966    2.5745    3.4398 H         1 RES1    0.0000
     20 C6         7.1107    1.7147    2.9811 C.3       1 RES1    0.0000
     21 H6         7.8076    1.2676    3.4855 H         1 RES1    0.0000
     22 H7         7.4846    2.5381    2.6299 H         1 RES1    0.0000
     23 C7         6.7074    0.8224    1.8089 C.3       1 RES1    0.0000
     24 H8         7.5024    0.6057    1.2970 H         1 RES1    0.0000
     25 H9         6.3492   -0.0079    2.1613 H         1 RES1    0.0000
     26 C8         5.6979    1.4242    0.8878 C.2       1 RES1    0.0000
     27 H10        5.4268    2.3056    1.0089 H         1 RES1    0.0000
     28 C9         4.1672    1.3069   -0.9793 C.3       1 RES1    0.0000
     29 H11        4.0416    2.2475   -0.7344 H         1 RES1    0.0000
     30 C10        2.8601    0.5762   -0.7579 C.3       1 RES1    0.0000
     31 H12        2.9642   -0.3585   -1.0349 H         1 RES1    0.0000
     32 C11        2.3337    0.6205    0.6689 C.3       1 RES1    0.0000
     33 H13        2.4923   -0.2206    1.1252 H         1 RES1    0.0000
     34 H14        2.7516    1.3365    1.1721 H         1 RES1    0.0000
     35 C12        4.6243    1.2439   -2.4234 C.3       1 RES1    0.0000
     36 H15        4.6441    0.3171   -2.7066 H         1 RES1    0.0000
     37 H16        3.9784    1.7088   -2.9786 H         1 RES1    0.0000
     38 C13        5.9684    1.8457   -2.6373 C.2       1 RES1    0.0000
     39 H17        6.7078    1.3424   -2.3802 H         1 RES1    0.0000
     40 C14        6.1873    2.9773   -3.1369 C.2       1 RES1    0.0000
     41 H18        5.4761    3.5121   -3.4064 H         1 RES1    0.0000
     42 H19        7.0614    3.2807   -3.2358 H         1 RES1    0.0000
     43 C15        2.4462    2.4563    4.5093 C.3       1 RES1    0.0000
     44 C16        1.2254    2.0929    5.3377 C.3       1 RES1    0.0000
     45 H20        0.7591    2.8936    5.5875 H         1 RES1    0.0000
     46 H21        1.5036    1.6241    6.1278 H         1 RES1    0.0000
     47 H22        0.6434    1.5315    4.8209 H         1 RES1    0.0000
     48 C17        2.0806    3.2767    3.3075 C.3       1 RES1    0.0000
     49 H23        1.6099    4.0646    3.5894 H         1 RES1    0.0000
     50 H24        1.5197    2.7587    2.7251 H         1 RES1    0.0000
     51 H25        2.8793    3.5308    2.8389 H         1 RES1    0.0000
     52 C18        7.5206    2.1628    7.0588 C.3       1 RES1    0.0000
     53 C19        8.2139    0.8884    7.4508 C.3       1 RES1    0.0000
     54 H26        9.1591    0.9819    7.3123 H         1 RES1    0.0000
     55 H27        7.8819    0.1655    6.9129 H         1 RES1    0.0000
     56 H28        8.0425    0.7032    8.3769 H         1 RES1    0.0000
     57 C20        8.0602    3.3732    7.7995 C.3       1 RES1    0.0000
     58 H29        9.0067    3.4412    7.6560 H         1 RES1    0.0000
     59 H30        7.8853    3.2777    8.7392 H         1 RES1    0.0000
     60 H31        7.6292    4.1661    7.4731 H         1 RES1    0.0000
     61 C21        0.8086    1.6211   -0.6751 C.3       1 RES1    0.0000
     62 C22       -0.5295    1.3503   -1.3082 C.3       1 RES1    0.0000
     63 H32       -1.2270    1.6458   -0.7184 H         1 RES1    0.0000
     64 H33       -0.6227    0.4077   -1.4677 H         1 RES1    0.0000
     65 H34       -0.5912    1.8240   -2.1403 H         1 RES1    0.0000
     66 C23        0.9920    3.0926   -0.3561 C.3       1 RES1    0.0000
     67 H35        0.2907    3.3821    0.2325 H         1 RES1    0.0000
     68 H36        0.9580    3.6037   -1.1684 H         1 RES1    0.0000
     69 H37        1.8422    3.2245    0.0692 H         1 RES1    0.0000
@<TRIPOS>BOND
     1    1    7 1
     2    2   10 1
     3    3   10 1
     4    4   12 1
     5    5   14 1
     6    6   16 1
     7    8   30 1
     8    9   32 1
     9   10   11 1
    10   12   10 1
    11   13   12 1
    12   14   12 1
    13   15   14 1
    14   16   14 1
    15   17   16 1
    16   18    2 1
    17   19   18 1
    18   20   18 1
    19   21   20 1
    20   22   20 1
    21   23   20 1
    22   24   23 1
    23   25   23 1
    24   26    1 2
    25   27   26 1
    26   28    1 1
    27   29   28 1
    28   30   28 1
    29   31   30 1
    30   32   30 1
    31   33   32 1
    32   34   32 1
    33   35   28 1
    34   36   35 1
    35   37   35 1
    36   38   35 1
    37   39   38 1
    38   40   38 2
    39   41   40 1
    40   42   40 1
    41   43    3 1
    42   44   43 1
    43   45   44 1
    44   46   44 1
    45   47   44 1
    46   48   43 1
    47   49   48 1
    48   50   48 1
    49   51   48 1
    50   52    5 1
    51   53   52 1
    52   54   53 1
    53   55   53 1
    54   56   53 1
    55   57   52 1
    56   58   57 1
    57   59   57 1
    58   60   57 1
    59   61    8 1
    60   62   61 1
    61   63   62 1
    62   64   62 1
    63   65   62 1
    64   66   61 1
    65   67   66 1
    66   68   66 1
    67   69   66 1
    68    4   43 1
    69    6   52 1
    70    9   61 1
    71   16   18 1
    72   23   26 1
@<TRIPOS>SUBSTRUCTURE
     1 RES1 1

@<TRIPOS>CRYSIN
   9.9800    9.8489   12.7770  90.0000 104.6000  90.0000   4 1

