# MOL2 file generated by ConQuest
# Please check atom types

@<TRIPOS>MOLECULE
NEJGOY
    92    98     2
SMALL
NO_CHARGES
****
Generated from CSD

@<TRIPOS>ATOM
      1 N1         0.7256   10.7695    7.3318 N.3       1 RES1    0.0000
      2 C1         1.7169   11.4108    8.1458 C.3       1 RES1    0.0000
      3 O1         2.6573   10.4975    8.7511 O.3       1 RES1    0.0000
      4 C2         1.9584    9.5457    9.5445 C.3       1 RES1    0.0000
      5 N2         1.6782    7.9253    7.7785 N.3       1 RES1    0.0000
      6 C3         0.7736    7.2748    6.8429 C.3       1 RES1    0.0000
      7 O2        -0.0773    8.2199    6.1557 O.3       1 RES1    0.0000
      8 C4        -0.8955    8.9723    7.0835 C.3       1 RES1    0.0000
      9 C5         0.0049    9.7338    8.0523 C.3       1 RES1    0.0000
     10 C6         0.9201    8.7683    8.7421 C.3       1 RES1    0.0000
     11 C7         2.5375   12.4239    7.3600 C.ar      1 RES1    0.0000
     12 C8         2.0767   12.9768    6.1723 C.ar      1 RES1    0.0000
     13 C9         2.8722   13.8743    5.4697 C.ar      1 RES1    0.0000
     14 C10        4.1291   14.2165    5.9548 C.ar      1 RES1    0.0000
     15 C11        4.6105   13.6635    7.1437 C.ar      1 RES1    0.0000
     16 C12        3.7943   12.7661    7.8463 C.ar      1 RES1    0.0000
     17 N3         4.8882   15.1525    5.2061 N.pl3     1 RES1    0.0000
     18 O3         4.4283   15.7191    4.2130 O.2       1 RES1    0.0000
     19 O4         6.0424   15.3768    5.5977 O.2       1 RES1    0.0000
     20 C13        1.5318    6.4862    5.8076 C.ar      1 RES1    0.0000
     21 C14        2.8049    5.9944    6.0712 C.ar      1 RES1    0.0000
     22 C15        3.4872    5.2737    5.0973 C.ar      1 RES1    0.0000
     23 C16        2.8975    5.0471    3.8585 C.ar      1 RES1    0.0000
     24 C17        1.6250    5.5411    3.5949 C.ar      1 RES1    0.0000
     25 C18        0.9422    6.2595    4.5688 C.ar      1 RES1    0.0000
     26 N4         3.6384    4.3672    2.8309 N.pl3     1 RES1    0.0000
     27 O5         3.2093    4.3649    1.7059 O.2       1 RES1    0.0000
     28 O6         4.6892    3.8119    3.1649 O.2       1 RES1    0.0000
     29 N5         5.6800    5.7700    0.0269 N.3       2 RES2    0.0000
     30 C19        4.8849    6.8760   -0.4146 C.3       2 RES2    0.0000
     31 O7         3.8970    6.6131   -1.3745 O.3       2 RES2    0.0000
     32 C20        4.4639    6.0760   -2.5570 C.3       2 RES2    0.0000
     33 N6         4.3640    3.7439   -1.9069 N.3       2 RES2    0.0000
     34 C21        5.0346    2.5745   -1.3745 C.3       2 RES2    0.0000
     35 O8         5.9143    2.8170   -0.2905 O.3       2 RES2    0.0000
     36 C22        6.8968    3.7870   -0.7052 C.3       2 RES2    0.0000
     37 C23        6.3057    5.1332   -1.1556 C.3       2 RES2    0.0000
     38 C24        5.2863    4.8295   -2.2626 C.3       2 RES2    0.0000
     39 C25        4.2040    7.5581    0.7922 C.ar      2 RES2    0.0000
     40 C26        2.9185    8.0658    0.6424 C.ar      2 RES2    0.0000
     41 C27        2.3018    8.7207    1.7034 C.ar      2 RES2    0.0000
     42 C28        2.9700    8.8658    2.9140 C.ar      2 RES2    0.0000
     43 C29        4.2555    8.3581    3.0625 C.ar      2 RES2    0.0000
     44 C30        4.8722    7.7032    2.0028 C.ar      2 RES2    0.0000
     45 N7         2.3001    9.5819    3.9839 N.pl3     2 RES2    0.0000
     46 O9         1.2029   10.0737    3.7689 O.2       2 RES2    0.0000
     47 O10        2.8636    9.6182    5.0449 O.2       2 RES2    0.0000
     48 C31        3.9411    1.6476   -0.8510 C.ar      2 RES2    0.0000
     49 C32        3.0380    1.1037   -1.7571 C.ar      2 RES2    0.0000
     50 C33        1.9511    0.3694   -1.2977 C.ar      2 RES2    0.0000
     51 C34        1.7673    0.1790    0.0665 C.ar      2 RES2    0.0000
     52 C35        2.6703    0.7229    0.9726 C.ar      2 RES2    0.0000
     53 C36        3.7573    1.4572    0.5132 C.ar      2 RES2    0.0000
     54 N8         0.6565   -0.6096    0.5618 N.pl3     2 RES2    0.0000
     55 O11       -0.1334   -1.0561   -0.2112 O.2       2 RES2    0.0000
     56 O12        0.5192   -0.6731    1.7239 O.2       2 RES2    0.0000
     57 H1         1.1421   10.3865    6.6177 H         1 RES1    0.0000
     58 H2         1.2543   11.8890    8.8650 H         1 RES1    0.0000
     59 H3         1.5165   10.0034   10.2766 H         1 RES1    0.0000
     60 H4         2.5957    8.9202    9.9272 H         1 RES1    0.0000
     61 H5         2.2702    8.4442    7.3216 H         1 RES1    0.0000
     62 H6         0.2036    6.6561    7.3459 H         1 RES1    0.0000
     63 H7        -1.4725    8.3672    7.5775 H         1 RES1    0.0000
     64 H8        -1.4557    9.5955    6.5959 H         1 RES1    0.0000
     65 H9        -0.5606   10.1621    8.7293 H         1 RES1    0.0000
     66 H10        0.4006    8.1949    9.3436 H         1 RES1    0.0000
     67 H11        1.2359   12.7479    5.8473 H         1 RES1    0.0000
     68 H12        2.5639   14.2460    4.6750 H         1 RES1    0.0000
     69 H13        5.4306   13.8924    7.4688 H         1 RES1    0.0000
     70 H14        4.1026   12.3944    8.6410 H         1 RES1    0.0000
     71 H15        3.1992    6.1462    6.8993 H         1 RES1    0.0000
     72 H16        4.3390    4.9451    5.2739 H         1 RES1    0.0000
     73 H17        1.2302    5.3893    2.7669 H         1 RES1    0.0000
     74 H18        0.0903    6.5904    4.3922 H         1 RES1    0.0000
     75 H19        5.1689    5.1762    0.4722 H         2 RES2    0.0000
     76 H20        5.4984    7.5332   -0.8063 H         2 RES2    0.0000
     77 H21        5.0311    6.7445   -2.9742 H         2 RES2    0.0000
     78 H22        3.7550    5.8561   -3.1815 H         2 RES2    0.0000
     79 H23        3.7772    4.0612   -1.2542 H         2 RES2    0.0000
     80 H24        5.5241    2.1258   -2.0950 H         2 RES2    0.0000
     81 H25        7.4125    3.4130   -1.4359 H         2 RES2    0.0000
     82 H26        7.5063    3.9456    0.0333 H         2 RES2    0.0000
     83 H27        7.0173    5.7088   -1.5076 H         2 RES2    0.0000
     84 H28        5.7719    4.5734   -3.0753 H         2 RES2    0.0000
     85 H29        2.4713    7.9683   -0.1664 H         2 RES2    0.0000
     86 H30        1.4414    9.0584    1.6036 H         2 RES2    0.0000
     87 H31        4.7021    8.4556    3.8726 H         2 RES2    0.0000
     88 H32        5.7319    7.3655    2.1027 H         2 RES2    0.0000
     89 H33        3.1607    1.2306   -2.6696 H         2 RES2    0.0000
     90 H34        1.3464    0.0045   -1.9030 H         2 RES2    0.0000
     91 H35        2.5470    0.5960    1.8851 H         2 RES2    0.0000
     92 H36        4.3619    1.8198    1.1198 H         2 RES2    0.0000
@<TRIPOS>BOND
     1    1    2 1
     2    2    3 1
     3    3    4 1
     4    4   10 1
     5    5    6 1
     6    6    7 1
     7    7    8 1
     8    8    9 1
     9    9    1 1
    10   10    5 1
    11   11    2 1
    12   12   11 ar
    13   13   12 ar
    14   14   13 ar
    15   15   14 ar
    16   16   11 ar
    17   17   14 1
    18   18   17 2
    19   19   17 2
    20   20    6 1
    21   21   20 ar
    22   22   21 ar
    23   23   22 ar
    24   24   23 ar
    25   25   20 ar
    26   26   23 1
    27   27   26 2
    28   28   26 2
    29   29   30 1
    30   30   31 1
    31   31   32 1
    32   32   38 1
    33   33   34 1
    34   34   35 1
    35   35   36 1
    36   36   37 1
    37   37   29 1
    38   38   33 1
    39   39   30 1
    40   40   39 ar
    41   41   40 ar
    42   42   41 ar
    43   43   42 ar
    44   44   39 ar
    45   45   42 1
    46   46   45 2
    47   47   45 2
    48   48   34 1
    49   49   48 ar
    50   50   49 ar
    51   51   50 ar
    52   52   51 ar
    53   53   48 ar
    54   54   51 1
    55   55   54 2
    56   56   54 2
    57   57    1 1
    58   58    2 1
    59   59    4 1
    60   60    4 1
    61   61    5 1
    62   62    6 1
    63   63    8 1
    64   64    8 1
    65   65    9 1
    66   66   10 1
    67   67   12 1
    68   68   13 1
    69   69   15 1
    70   70   16 1
    71   71   21 1
    72   72   22 1
    73   73   24 1
    74   74   25 1
    75   75   29 1
    76   76   30 1
    77   77   32 1
    78   78   32 1
    79   79   33 1
    80   80   34 1
    81   81   36 1
    82   82   36 1
    83   83   37 1
    84   84   38 1
    85   85   40 1
    86   86   41 1
    87   87   43 1
    88   88   44 1
    89   89   49 1
    90   90   50 1
    91   91   52 1
    92   92   53 1
    93    9   10 1
    94   15   16 ar
    95   24   25 ar
    96   37   38 1
    97   43   44 ar
    98   52   53 ar
@<TRIPOS>SUBSTRUCTURE
     1 RES1 1
     2 RES2 29

@<TRIPOS>CRYSIN
   6.2640   22.6630   12.8160  90.0000  93.0600  90.0000   4 1

