# MOL2 file generated by ConQuest
# Please check atom types

@<TRIPOS>MOLECULE
NEJGIS
    46    49     1
SMALL
NO_CHARGES
****
Generated from CSD

@<TRIPOS>ATOM
      1 O1         2.1977    2.5473    6.7296 O.3       1 RES1    0.0000
      2 C1         2.9466    1.6814    7.5759 C.3       1 RES1    0.0000
      3 N1         3.1665    0.3791    7.0418 N.3       1 RES1    0.0000
      4 C2         3.8570    0.4806    5.7477 C.3       1 RES1    0.0000
      5 O2         2.0245    0.7968    4.2810 O.3       1 RES1    0.0000
      6 C3         1.2842    1.6551    3.4141 C.3       1 RES1    0.0000
      7 N2         0.7955    2.8449    4.0796 N.3       1 RES1    0.0000
      8 C4         1.9307    3.6010    4.6343 C.3       1 RES1    0.0000
      9 C5         2.8504    2.7551    5.4683 C.3       1 RES1    0.0000
     10 C6         3.1969    1.4383    4.7740 C.3       1 RES1    0.0000
     11 C7         2.2387    1.6455    8.9070 C.ar      1 RES1    0.0000
     12 C8         0.9489    2.1371    9.0796 C.ar      1 RES1    0.0000
     13 C9         0.3670    2.1820   10.3244 C.ar      1 RES1    0.0000
     14 C10        1.0843    1.7214   11.4049 C.ar      1 RES1    0.0000
     15 C11        2.3685    1.2084   11.2899 C.ar      1 RES1    0.0000
     16 C12        2.9224    1.1752   10.0286 C.ar      1 RES1    0.0000
     17 N3         0.4744    1.7635   12.7401 N.pl3     1 RES1    0.0000
     18 O3         0.9358    1.0868   13.6235 O.2       1 RES1    0.0000
     19 O4        -0.4875    2.4893   12.8922 O.2       1 RES1    0.0000
     20 C13        0.1596    0.8680    2.8019 C.ar      1 RES1    0.0000
     21 C14       -0.6744    1.4922    1.8816 C.ar      1 RES1    0.0000
     22 C15       -1.7413    0.7982    1.3311 C.ar      1 RES1    0.0000
     23 C16       -1.9363   -0.5110    1.6844 C.ar      1 RES1    0.0000
     24 C17       -1.1184   -1.1566    2.5636 C.ar      1 RES1    0.0000
     25 C18       -0.0751   -0.4578    3.1265 C.ar      1 RES1    0.0000
     26 N4        -3.0913   -1.2401    1.1175 N.pl3     1 RES1    0.0000
     27 O5        -3.8254   -0.6491    0.3574 O.2       1 RES1    0.0000
     28 O6        -3.2615   -2.3995    1.4585 O.2       1 RES1    0.0000
     29 H1         3.8241    2.0936    7.7197 H         1 RES1    0.0000
     30 H2         2.2921    0.0000    6.8282 H         1 RES1    0.0000
     31 H3         3.8937   -0.4005    5.3450 H         1 RES1    0.0000
     32 H4         4.7699    0.7713    5.9038 H         1 RES1    0.0000
     33 H5         1.8816    1.9389    2.6910 H         1 RES1    0.0000
     34 H6         0.1205    2.6115    4.7781 H         1 RES1    0.0000
     35 H7         1.5885    4.3260    5.1807 H         1 RES1    0.0000
     36 H8         2.4362    3.9939    3.9071 H         1 RES1    0.0000
     37 H9         3.6794    3.2543    5.6203 H         1 RES1    0.0000
     38 H10        3.8080    1.6151    4.0303 H         1 RES1    0.0000
     39 H11        0.4732    2.4402    8.3401 H         1 RES1    0.0000
     40 H12       -0.4943    2.5162   10.4312 H         1 RES1    0.0000
     41 H13        2.8355    0.8997   12.0335 H         1 RES1    0.0000
     42 H14        3.7782    0.8279    9.9218 H         1 RES1    0.0000
     43 H15       -0.5179    2.3753    1.6351 H         1 RES1    0.0000
     44 H16       -2.3157    1.2153    0.7313 H         1 RES1    0.0000
     45 H17       -1.2625   -2.0501    2.7773 H         1 RES1    0.0000
     46 H18        0.4825   -0.8831    3.7386 H         1 RES1    0.0000
@<TRIPOS>BOND
     1    1    2 1
     2    2    3 1
     3    3    4 1
     4    4   10 1
     5    5    6 1
     6    6    7 1
     7    7    8 1
     8    8    9 1
     9    9    1 1
    10   10    5 1
    11   11    2 1
    12   12   11 ar
    13   13   12 ar
    14   14   13 ar
    15   15   14 ar
    16   16   11 ar
    17   17   14 1
    18   18   17 2
    19   19   17 2
    20   20    6 1
    21   21   20 ar
    22   22   21 ar
    23   23   22 ar
    24   24   23 ar
    25   25   20 ar
    26   26   23 1
    27   27   26 2
    28   28   26 2
    29   29    2 1
    30   30    3 1
    31   31    4 1
    32   32    4 1
    33   33    6 1
    34   34    7 1
    35   35    8 1
    36   36    8 1
    37   37    9 1
    38   38   10 1
    39   39   12 1
    40   40   13 1
    41   41   15 1
    42   42   16 1
    43   43   21 1
    44   44   22 1
    45   45   24 1
    46   46   25 1
    47    9   10 1
    48   15   16 ar
    49   24   25 ar
@<TRIPOS>SUBSTRUCTURE
     1 RES1 1

@<TRIPOS>CRYSIN
   6.2100    6.9050   41.0840  90.0000  90.0000  90.0000  19 1

