# MOL2 file generated by ConQuest
# Please check atom types

@<TRIPOS>MOLECULE
NEKPAU
    32    32     1
SMALL
NO_CHARGES
****
Generated from CSD

@<TRIPOS>ATOM
      1 O1         2.4586    5.4749    1.2930 O.3       1 RES1    0.0000
      2 H1         2.4815    6.0845    2.0283 H         1 RES1    0.0000
      3 N1         3.0383    4.3229    1.8518 N.2       1 RES1    0.0000
      4 C1         3.2037    3.4026    0.9913 C.2       1 RES1    0.0000
      5 C2         2.8204    3.5211   -0.4483 C.3       1 RES1    0.0000
      6 H2         2.8796    2.7208   -0.8688 H         1 RES1    0.0000
      7 H3         1.9423    3.8888   -0.5457 H         1 RES1    0.0000
      8 H4         3.3808    4.1768   -0.8963 H         1 RES1    0.0000
      9 C3         3.7376    2.0728    1.5493 C.3       1 RES1    0.0000
     10 N2         4.4538    2.2446    2.8390 N.3       1 RES1    0.0000
     11 H5         3.9529    2.6868    3.3350 H         1 RES1    0.0000
     12 C4         5.7369    2.9628    2.7099 C.3       1 RES1    0.0000
     13 H6         6.1321    3.0088    3.6174 H         1 RES1    0.0000
     14 H7         5.5660    3.9005    2.4160 H         1 RES1    0.0000
     15 C5         6.6723    2.2749    1.7203 C.3       1 RES1    0.0000
     16 C6         5.8967    2.1121    0.4151 C.3       1 RES1    0.0000
     17 H8         5.7474    2.9886    0.0120 H         1 RES1    0.0000
     18 H9         6.4085    1.5995   -0.2585 H         1 RES1    0.0000
     19 N3         4.6036    1.4504    0.5594 N.3       1 RES1    0.0000
     20 H10        4.7193    0.6696    0.7838 H         1 RES1    0.0000
     21 C7         2.5521    1.1551    1.7977 C.3       1 RES1    0.0000
     22 H11        1.9786    1.5315    2.4734 H         1 RES1    0.0000
     23 H12        2.8521    0.2689    2.0953 H         1 RES1    0.0000
     24 H13        2.0665    1.0330    0.9465 H         1 RES1    0.0000
     25 C8         7.8820    3.1820    1.4647 C.3       1 RES1    0.0000
     26 H14        8.4630    2.7622    0.7934 H         1 RES1    0.0000
     27 H15        8.3593    3.3298    2.3346 H         1 RES1    0.0000
     28 H16        7.6478    4.0780    1.1033 H         1 RES1    0.0000
     29 C9         7.1441    0.9172    2.2425 C.3       1 RES1    0.0000
     30 H17        7.7551    0.4857    1.5748 H         1 RES1    0.0000
     31 H18        6.3960    0.3167    2.4112 H         1 RES1    0.0000
     32 H19        7.6761    1.0150    3.0873 H         1 RES1    0.0000
@<TRIPOS>BOND
     1    1    2 1
     2    3    1 1
     3    4    3 2
     4    5    4 1
     5    6    5 1
     6    7    5 1
     7    8    5 1
     8    9    4 1
     9   10    9 1
    10   11   10 1
    11   12   10 1
    12   13   12 1
    13   14   12 1
    14   15   12 1
    15   16   15 1
    16   17   16 1
    17   18   16 1
    18   19    9 1
    19   20   19 1
    20   21    9 1
    21   22   21 1
    22   23   21 1
    23   24   21 1
    24   25   15 1
    25   26   25 1
    26   27   25 1
    27   28   25 1
    28   29   15 1
    29   30   29 1
    30   31   29 1
    31   32   29 1
    32   16   19 1
@<TRIPOS>SUBSTRUCTURE
     1 RES1 1

@<TRIPOS>CRYSIN
   8.6060   10.6280   12.3690  90.0000 104.6610  90.0000  14 1

