# MOL2 file generated by ConQuest
# Please check atom types

@<TRIPOS>MOLECULE
NEKSIF
    35    36     1
SMALL
NO_CHARGES
****
Generated from CSD

@<TRIPOS>ATOM
      1 C1         0.0600    3.9418    3.0097 C.2       1 RES1    0.0000
      2 N1         0.3337    2.7610    3.6139 N.3       1 RES1    0.0000
      3 C2         1.4015    2.2169    2.9328 C.ar      1 RES1    0.0000
      4 C3         2.1217    1.0508    3.0975 C.ar      1 RES1    0.0000
      5 H1         1.9063    0.4507    3.7741 H         1 RES1    0.0000
      6 C4         3.1691    0.7944    2.2343 C.ar      1 RES1    0.0000
      7 C5         3.9764   -0.4691    2.4029 C.3       1 RES1    0.0000
      8 H2         3.6381   -0.9671    3.1504 H         1 RES1    0.0000
      9 H3         4.8959   -0.2428    2.5596 H         1 RES1    0.0000
     10 H4         3.9089   -1.0009    1.6066 H         1 RES1    0.0000
     11 C6         3.4795    1.7101    1.1975 C.ar      1 RES1    0.0000
     12 C7         4.6296    1.4284    0.2555 C.3       1 RES1    0.0000
     13 H5         4.6995    2.1400   -0.3862 H         1 RES1    0.0000
     14 H6         4.4724    0.5992   -0.2016 H         1 RES1    0.0000
     15 H7         5.4458    1.3681    0.7574 H         1 RES1    0.0000
     16 C8         2.7420    2.8647    1.0438 C.ar      1 RES1    0.0000
     17 H8         2.9393    3.4558    0.3543 H         1 RES1    0.0000
     18 C9         1.6999    3.1409    1.9240 C.ar      1 RES1    0.0000
     19 N2         0.8416    4.2308    1.9899 N.2       1 RES1    0.0000
     20 N3        -0.9754    4.7287    3.4980 N.3       1 RES1    0.0000
     21 O1        -1.6570    4.2406    4.4662 O.2       1 RES1    0.0000
     22 C10       -1.2868    6.1268    3.0316 C.3       1 RES1    0.0000
     23 C11       -2.4556    6.6097    3.8709 C.3       1 RES1    0.0000
     24 H9        -3.2170    6.0464    3.7132 H         1 RES1    0.0000
     25 H10       -2.6708    7.5136    3.6294 H         1 RES1    0.0000
     26 H11       -2.2184    6.5741    4.7999 H         1 RES1    0.0000
     27 C12       -1.6715    6.0977    1.5647 C.3       1 RES1    0.0000
     28 H12       -2.4426    5.5375    1.4480 H         1 RES1    0.0000
     29 H13       -0.9410    5.7477    1.0498 H         1 RES1    0.0000
     30 H14       -1.8741    6.9884    1.2693 H         1 RES1    0.0000
     31 C13       -0.0725    7.0011    3.2641 C.3       1 RES1    0.0000
     32 H15        0.6599    6.6788    2.7342 H         1 RES1    0.0000
     33 H16        0.1684    6.9741    4.1932 H         1 RES1    0.0000
     34 H17       -0.2758    7.9051    3.0127 H         1 RES1    0.0000
     35 H18       -0.0894    2.4324    4.2710 H         1 RES1    0.0000
@<TRIPOS>BOND
     1    1    2 1
     2    2    3 1
     3    3    4 ar
     4    4    5 1
     5    6    4 ar
     6    7    6 1
     7    8    7 1
     8    9    7 1
     9   10    7 1
    10   11    6 ar
    11   12   11 1
    12   13   12 1
    13   14   12 1
    14   15   12 1
    15   16   11 ar
    16   17   16 1
    17   18    3 ar
    18   19    1 2
    19   20    1 1
    20   21   20 1
    21   22   20 1
    22   23   22 1
    23   24   23 1
    24   25   23 1
    25   26   23 1
    26   27   22 1
    27   28   27 1
    28   29   27 1
    29   30   27 1
    30   31   22 1
    31   32   31 1
    32   33   31 1
    33   34   31 1
    34   35    2 1
    35   16   18 ar
    36   18   19 1
@<TRIPOS>SUBSTRUCTURE
     1 RES1 1

@<TRIPOS>CRYSIN
   5.9550   10.8880   11.4900 117.9900  96.0600  96.4800   2 1

