# MOL2 file generated by ConQuest
# Please check atom types

@<TRIPOS>MOLECULE
NEKWAE
    21    21     1
SMALL
NO_CHARGES
****
Generated from CSD

@<TRIPOS>ATOM
      1 O1         2.3431   -0.1358    6.2842 O.3       1 RES1    0.0000
      2 O2         3.8802    1.4346    5.9425 O.2       1 RES1    0.0000
      3 O3        -0.5525    4.0633    1.4609 O.3       1 RES1    0.0000
      4 N1         3.0969    0.9186    6.6913 N.pl3     1 RES1    0.0000
      5 O4         1.2470    3.7814    0.1779 O.2       1 RES1    0.0000
      6 O5         2.9463    1.1878    7.8790 O.2       1 RES1    0.0000
      7 C1         2.7697    0.9381    2.8257 C.ar      1 RES1    0.0000
      8 H1         3.6012    0.5464    2.6842 H         1 RES1    0.0000
      9 C2         0.5653    3.5019    1.1894 C.2       1 RES1    0.0000
     10 C3         1.0503    2.4655    2.1371 C.ar      1 RES1    0.0000
     11 C4         0.2901    2.0966    3.2400 C.ar      1 RES1    0.0000
     12 H2        -0.5423    2.4871    3.3803 H         1 RES1    0.0000
     13 C5         2.0149    0.5727    3.9308 C.ar      1 RES1    0.0000
     14 C6         2.2928    1.8841    1.9310 C.ar      1 RES1    0.0000
     15 H3         2.8050    2.1279    1.1941 H         1 RES1    0.0000
     16 C7         2.5553   -0.4671    4.8822 C.3       1 RES1    0.0000
     17 H4         2.1288   -1.3175    4.6926 H         1 RES1    0.0000
     18 H5         3.5065   -0.5723    4.7252 H         1 RES1    0.0000
     19 C8         0.7665    1.1482    4.1320 C.ar      1 RES1    0.0000
     20 H6         0.2510    0.8976    4.8642 H         1 RES1    0.0000
     21 H7        -0.6453    4.7102    0.9384 H         1 RES1    0.0000
@<TRIPOS>BOND
     1    1    4 1
     2    2    4 2
     3    3    9 1
     4    4    6 2
     5    5    9 2
     6    7    8 1
     7    9   10 1
     8   10   11 ar
     9   11   12 1
    10   13    7 ar
    11   14    7 ar
    12   15   14 1
    13   16    1 1
    14   17   16 1
    15   18   16 1
    16   19   11 ar
    17   20   19 1
    18   21    3 1
    19   10   14 ar
    20   13   16 1
    21   13   19 ar
@<TRIPOS>SUBSTRUCTURE
     1 RES1 1

@<TRIPOS>CRYSIN
   6.0981    4.8861   28.0271  90.0000  91.7930  90.0000 231 1

