# MOL2 file generated by ConQuest
# Please check atom types

@<TRIPOS>MOLECULE
NEKZEI
    40    38     2
SMALL
NO_CHARGES
****
Generated from CSD

@<TRIPOS>ATOM
      1 O1         3.8651    2.7666    5.0490 O.3       1 RES1    0.0000
      2 O2        -2.1265    0.3467    8.6513 O.3       2 RES2    0.0000
      3 N1         3.2393    3.8958    5.5956 N.2       1 RES1    0.0000
      4 N2         2.2397    6.0689    6.7753 N.3       1 RES1    0.0000
      5 N3        -2.1608    1.4809    7.8198 N.2       2 RES2    0.0000
      6 N4        -2.2980    3.6245    6.2327 N.3       2 RES2    0.0000
      7 C1         3.3867    4.9424    4.8732 C.2       1 RES1    0.0000
      8 C2         2.7998    6.2177    5.4191 C.3       1 RES1    0.0000
      9 C3         4.1236    4.9577    3.5651 C.3       1 RES1    0.0000
     10 C4         3.9033    7.2950    5.5183 C.3       1 RES1    0.0000
     11 C5         1.6832    6.7372    4.5104 C.3       1 RES1    0.0000
     12 C6        -2.2418    2.5669    8.4862 C.2       2 RES2    0.0000
     13 C7        -2.2505    3.8487    7.6927 C.3       2 RES2    0.0000
     14 C8        -2.2695    2.6052    9.9881 C.3       2 RES2    0.0000
     15 C9        -3.4705    4.7138    8.0495 C.3       2 RES2    0.0000
     16 C10       -0.9780    4.6384    7.9876 C.3       2 RES2    0.0000
     17 H1         3.4018    1.8921    5.4924 H         1 RES1    0.0000
     18 H2        -1.9412   -0.5140    8.0222 H         2 RES2    0.0000
     19 H3         1.4814    5.3044    6.6508 H         1 RES1    0.0000
     20 H4         2.9646    5.5122    7.3431 H         1 RES1    0.0000
     21 H5        -1.6201    2.7999    6.0649 H         2 RES2    0.0000
     22 H6        -3.1257    2.9530    6.0716 H         2 RES2    0.0000
     23 H7         3.8495    5.8294    2.9825 H         1 RES1    0.0000
     24 H8         3.9438    4.0139    3.0691 H         1 RES1    0.0000
     25 H9         5.1609    4.7795    3.7881 H         1 RES1    0.0000
     26 H10        4.3293    7.4700    4.5404 H         1 RES1    0.0000
     27 H11        4.6366    6.9669    6.2447 H         1 RES1    0.0000
     28 H12        3.4647    8.2137    5.8719 H         1 RES1    0.0000
     29 H13        1.9747    6.9450    3.4885 H         1 RES1    0.0000
     30 H14        1.3111    7.6559    4.9198 H         1 RES1    0.0000
     31 H15        0.9226    5.9716    4.4871 H         1 RES1    0.0000
     32 H16       -2.4070    3.6201   10.3124 H         2 RES2    0.0000
     33 H17       -3.0599    1.9905   10.3989 H         2 RES2    0.0000
     34 H18       -1.4535    1.9796   10.3323 H         2 RES2    0.0000
     35 H19       -3.3187    5.6763    7.5961 H         2 RES2    0.0000
     36 H20       -3.4287    4.8670    9.1207 H         2 RES2    0.0000
     37 H21       -4.3583    4.1342    7.8358 H         2 RES2    0.0000
     38 H22       -0.9090    4.7904    9.0541 H         2 RES2    0.0000
     39 H23       -1.0336    5.6216    7.5429 H         2 RES2    0.0000
     40 H24       -0.2012    3.9264    7.7226 H         2 RES2    0.0000
@<TRIPOS>BOND
     1    1    3 1
     2    2    5 1
     3    3    7 2
     4    4    8 1
     5    5   12 2
     6    6   13 1
     7    7    8 1
     8    8   10 1
     9    9    7 1
    10   10   26 1
    11   11    8 1
    12   12   13 1
    13   13   15 1
    14   14   12 1
    15   15   35 1
    16   16   13 1
    17   17    1 1
    18   18    2 1
    19   19    4 1
    20   20    4 1
    21   21    6 1
    22   22    6 1
    23   23    9 1
    24   24    9 1
    25   25    9 1
    26   27   10 1
    27   28   10 1
    28   29   11 1
    29   30   11 1
    30   31   11 1
    31   32   14 1
    32   33   14 1
    33   34   14 1
    34   36   15 1
    35   37   15 1
    36   38   16 1
    37   39   16 1
    38   40   16 1
@<TRIPOS>SUBSTRUCTURE
     1 RES1 1
     2 RES2 2

@<TRIPOS>CRYSIN
   9.2250   10.9370    6.9430  90.0000 106.4900  90.0000   4 1

