# MOL2 file generated by ConQuest
# Please check atom types

@<TRIPOS>MOLECULE
NELLAU
    61    65     1
SMALL
NO_CHARGES
****
Generated from CSD

@<TRIPOS>ATOM
      1 O1        -0.7429   15.4228   14.7315 O.2       1 RES1    0.0000
      2 O2         5.2287   12.3424   17.1603 O.3       1 RES1    0.0000
      3 O3         0.8773   16.7828   14.3332 O.2       1 RES1    0.0000
      4 N1         0.4599   15.7209   14.6805 N.pl3     1 RES1    0.0000
      5 C1         8.3072   11.6186   20.8956 C.3       1 RES1    0.0000
      6 C2         9.6658    9.4740   20.9780 C.3       1 RES1    0.0000
      7 C3         1.4665   14.7301   15.1925 C.ar      1 RES1    0.0000
      8 C4         9.2046    9.1181   19.5498 C.3       1 RES1    0.0000
      9 H1         9.9792    9.1656   18.9671 H         1 RES1    0.0000
     10 H2         8.9097    8.1941   19.5557 H         1 RES1    0.0000
     11 C5         3.2541   12.8792   15.9871 C.ar      1 RES1    0.0000
     12 C6         6.5312   10.2853   17.1171 C.ar      1 RES1    0.0000
     13 H3         6.1395   10.0020   16.3226 H         1 RES1    0.0000
     14 C7         8.2384   13.0587   21.0722 C.3       1 RES1    0.0000
     15 H4         7.3305   13.3627   20.9172 H         1 RES1    0.0000
     16 H5         8.4800   13.2871   21.9844 H         1 RES1    0.0000
     17 C8         9.7245   11.0491   21.1566 C.3       1 RES1    0.0000
     18 C9         7.2771   11.1010   21.9374 C.3       1 RES1    0.0000
     19 H6         7.5331   11.3843   22.8300 H         1 RES1    0.0000
     20 H7         6.3965   11.4569   21.7431 H         1 RES1    0.0000
     21 C10        4.2139   11.7714   16.3383 C.3       1 RES1    0.0000
     22 H8         3.7521   11.0639   16.8169 H         1 RES1    0.0000
     23 H9         4.6039   11.3961   15.5339 H         1 RES1    0.0000
     24 C11       10.7102   11.6290   20.0305 C.3       1 RES1    0.0000
     25 H10       11.6145   11.3116   20.1796 H         1 RES1    0.0000
     26 H11       10.4219   11.3413   19.1515 H         1 RES1    0.0000
     27 C12        8.1133    9.9412   18.9259 C.ar      1 RES1    0.0000
     28 C13        0.9497   13.4636   15.5986 C.ar      1 RES1    0.0000
     29 H12        0.0444   13.2530   15.5888 H         1 RES1    0.0000
     30 C14        6.1548   11.5059   17.7135 C.ar      1 RES1    0.0000
     31 C15        7.5017    9.5156   17.7449 C.ar      1 RES1    0.0000
     32 H13        7.7490    8.6999   17.3721 H         1 RES1    0.0000
     33 C16        9.1296   13.7157   20.1580 C.3       1 RES1    0.0000
     34 H14        9.1504   14.6604   20.3777 H         1 RES1    0.0000
     35 H15        8.7634   13.6341   19.2634 H         1 RES1    0.0000
     36 C17        7.2582    9.6179   21.8569 C.3       1 RES1    0.0000
     37 H16        6.8640    9.3673   21.0074 H         1 RES1    0.0000
     38 H17        6.6717    9.2872   22.5553 H         1 RES1    0.0000
     39 C18        3.6921   14.1458   15.5888 C.ar      1 RES1    0.0000
     40 H18        4.5974   14.3579   15.6006 H         1 RES1    0.0000
     41 C19        2.7725   15.0594   15.1808 C.ar      1 RES1    0.0000
     42 H19        3.0417   15.9033   14.8963 H         1 RES1    0.0000
     43 C20        6.7817   11.9479   18.8494 C.ar      1 RES1    0.0000
     44 H20        6.5662   12.7888   19.1849 H         1 RES1    0.0000
     45 C21        7.7279   11.1811   19.5164 C.ar      1 RES1    0.0000
     46 C22       10.2181   11.3546   22.5730 C.3       1 RES1    0.0000
     47 H21        9.5578   11.0728   23.2106 H         1 RES1    0.0000
     48 H22       10.3674   12.2993   22.6632 H         1 RES1    0.0000
     49 H23       11.0398   10.8845   22.7339 H         1 RES1    0.0000
     50 C23        1.8986   12.6123   15.9969 C.ar      1 RES1    0.0000
     51 H24        1.6263   11.7773   16.3029 H         1 RES1    0.0000
     52 C24       10.9706    8.7562   21.3351 C.3       1 RES1    0.0000
     53 H25       11.6930    9.1344   20.8270 H         1 RES1    0.0000
     54 H26       10.8889    7.8219   21.1271 H         1 RES1    0.0000
     55 H27       11.1482    8.8615   22.2709 H         1 RES1    0.0000
     56 C25       10.6600   13.1670   20.1325 C.3       1 RES1    0.0000
     57 H28       11.1261   13.5526   19.3752 H         1 RES1    0.0000
     58 H29       11.1153   13.4488   20.9407 H         1 RES1    0.0000
     59 C26        8.6172    8.8882   21.9884 C.3       1 RES1    0.0000
     60 H30        8.4940    7.9420   21.8138 H         1 RES1    0.0000
     61 H31        8.9511    8.9861   22.8928 H         1 RES1    0.0000
@<TRIPOS>BOND
     1    1    4 2
     2    2   21 1
     3    3    4 2
     4    4    7 1
     5    5   14 1
     6    6    8 1
     7    7   28 ar
     8    8    9 1
     9   10    8 1
    10   11   21 1
    11   12   13 1
    12   14   15 1
    13   16   14 1
    14   17    5 1
    15   18    5 1
    16   19   18 1
    17   20   18 1
    18   21   22 1
    19   23   21 1
    20   24   17 1
    21   25   24 1
    22   26   24 1
    23   27    8 1
    24   28   29 1
    25   30    2 1
    26   31   12 ar
    27   32   31 1
    28   33   14 1
    29   34   33 1
    30   35   33 1
    31   36   18 1
    32   37   36 1
    33   38   36 1
    34   39   11 ar
    35   40   39 1
    36   41    7 ar
    37   42   41 1
    38   43   30 ar
    39   44   43 1
    40   45    5 1
    41   46   17 1
    42   47   46 1
    43   48   46 1
    44   49   46 1
    45   50   11 ar
    46   51   50 1
    47   52    6 1
    48   53   52 1
    49   54   52 1
    50   55   52 1
    51   56   24 1
    52   57   56 1
    53   58   56 1
    54   59    6 1
    55   60   59 1
    56   61   59 1
    57    6   17 1
    58   12   30 ar
    59   27   31 ar
    60   27   45 ar
    61   28   50 ar
    62   33   56 1
    63   36   59 1
    64   39   41 ar
    65   43   45 ar
@<TRIPOS>SUBSTRUCTURE
     1 RES1 1

@<TRIPOS>CRYSIN
   7.5010   14.8310   19.6190  90.0000  90.4240  90.0000 231 1

