# MOL2 file generated by ConQuest
# Please check atom types

@<TRIPOS>MOLECULE
NELLUO
    49    51     1
SMALL
NO_CHARGES
****
Generated from CSD

@<TRIPOS>ATOM
      1 O1         5.0815    1.8893   10.8863 O.2       1 RES1    0.0000
      2 O2         8.8401    0.1000    9.1166 O.2       1 RES1    0.0000
      3 O3         6.2610    2.0260    7.1018 O.2       1 RES1    0.0000
      4 O4         0.7813    8.0553   13.0676 O.2       1 RES1    0.0000
      5 O5        -0.8600    7.5928   11.7623 O.2       1 RES1    0.0000
      6 N1         7.8032    1.6984   10.3013 N.am      1 RES1    0.0000
      7 N2         7.9663    3.3316    7.7653 N.am      1 RES1    0.0000
      8 N3         4.9561    3.7404    9.6081 N.am      1 RES1    0.0000
      9 N4         0.2891    7.4144   12.1482 N.pl3     1 RES1    0.0000
     10 C1         5.6410    2.8440   10.3433 C.2       1 RES1    0.0000
     11 C2         7.1545    2.9921   10.5776 C.3       1 RES1    0.0000
     12 H1         7.5479    3.7312   10.0305 H         1 RES1    0.0000
     13 C3         7.4410    3.1699   12.0737 C.3       1 RES1    0.0000
     14 H2         8.3242    3.5963   12.2118 H         1 RES1    0.0000
     15 H3         6.7461    3.7318   12.4989 H         1 RES1    0.0000
     16 C4         7.4254    1.7584   12.6573 C.3       1 RES1    0.0000
     17 H4         8.1098    1.6681   13.3668 H         1 RES1    0.0000
     18 H5         6.5381    1.5503   13.0419 H         1 RES1    0.0000
     19 C5         7.7358    0.8301   11.4956 C.3       1 RES1    0.0000
     20 H6         8.5992    0.3676   11.6391 H         1 RES1    0.0000
     21 H7         7.0240    0.1503   11.3927 H         1 RES1    0.0000
     22 C6         8.4328    1.2765    9.1938 C.2       1 RES1    0.0000
     23 C7         8.8280    2.2003    8.0455 C.3       1 RES1    0.0000
     24 H8         8.8528    1.6412    7.2169 H         1 RES1    0.0000
     25 C8        10.2374    2.6839    8.2920 C.3       1 RES1    0.0000
     26 H9        10.8309    1.9133    8.4138 H         1 RES1    0.0000
     27 H10       10.2559    3.2407    9.0976 H         1 RES1    0.0000
     28 H11       10.5417    3.2110    7.5229 H         1 RES1    0.0000
     29 C9         6.6995    3.1596    7.3618 C.2       1 RES1    0.0000
     30 C10        5.8447    4.3909    7.3672 C.3       1 RES1    0.0000
     31 H12        4.9978    4.2091    6.8879 H         1 RES1    0.0000
     32 H13        6.3151    5.1226    6.8933 H         1 RES1    0.0000
     33 C11        5.5390    4.8225    8.8024 C.3       1 RES1    0.0000
     34 H14        6.3763    5.1301    9.2330 H         1 RES1    0.0000
     35 H15        4.9100    5.5863    8.7835 H         1 RES1    0.0000
     36 C12        3.5189    3.5334    9.4334 C.3       1 RES1    0.0000
     37 H16        3.2850    2.6205    9.7367 H         1 RES1    0.0000
     38 H17        3.2999    3.5975    8.4694 H         1 RES1    0.0000
     39 C13        2.6797    4.5361   10.1971 C.ar      1 RES1    0.0000
     40 C14        1.3757    4.7648    9.7868 C.ar      1 RES1    0.0000
     41 H18        1.0309    4.2806    9.0448 H         1 RES1    0.0000
     42 C15        0.5579    5.6886   10.4367 C.ar      1 RES1    0.0000
     43 H19       -0.3396    5.8338   10.1605 H         1 RES1    0.0000
     44 C16        1.1072    6.3843   11.4969 C.ar      1 RES1    0.0000
     45 C17        2.3749    6.1654   11.9465 C.ar      1 RES1    0.0000
     46 H20        2.7130    6.6455   12.6925 H         1 RES1    0.0000
     47 C18        3.1640    5.2278   11.2938 C.ar      1 RES1    0.0000
     48 H21        4.0466    5.0592   11.6025 H         1 RES1    0.0000
     49 H22        8.1988    4.1102    7.9887 H         1 RES1    0.0000
@<TRIPOS>BOND
     1    1   10 2
     2    2   22 2
     3    3   29 2
     4    4    9 2
     5    5    9 2
     6    6   11 1
     7    7   23 1
     8    8   10 1
     9    9   44 1
    10   10   11 1
    11   11   12 1
    12   13   11 1
    13   14   13 1
    14   15   13 1
    15   16   13 1
    16   17   16 1
    17   18   16 1
    18   19    6 1
    19   20   19 1
    20   21   19 1
    21   22    6 1
    22   23   22 1
    23   24   23 1
    24   25   23 1
    25   26   25 1
    26   27   25 1
    27   28   25 1
    28   29    7 1
    29   30   29 1
    30   31   30 1
    31   32   30 1
    32   33    8 1
    33   34   33 1
    34   35   33 1
    35   36    8 1
    36   37   36 1
    37   38   36 1
    38   39   36 1
    39   40   39 ar
    40   41   40 1
    41   42   40 ar
    42   43   42 1
    43   44   42 ar
    44   45   44 ar
    45   46   45 1
    46   47   39 ar
    47   48   47 1
    48   49    7 1
    49   16   19 1
    50   30   33 1
    51   45   47 ar
@<TRIPOS>SUBSTRUCTURE
     1 RES1 1

@<TRIPOS>CRYSIN
  11.6779    5.7166   13.8325  90.0000 101.8010  90.0000   4 1

