# MOL2 file generated by ConQuest
# Please check atom types

@<TRIPOS>MOLECULE
NEMLIA
    34    35     1
SMALL
NO_CHARGES
****
Generated from CSD

@<TRIPOS>ATOM
      1 O1         6.6245    1.8198   17.8566 O.3       1 RES1    0.0000
      2 O2         4.3667    0.6019   17.1350 O.3       1 RES1    0.0000
      3 H1         4.5971    0.9018   17.8626 H         1 RES1    0.0000
      4 O3         7.4817    0.4775    5.1704 O.2       1 RES1    0.0000
      5 O4         9.4739    1.2703    4.9075 O.2       1 RES1    0.0000
      6 N1         7.9985    1.4667   11.9736 N.2       1 RES1    0.0000
      7 N2         9.0188    1.7701   11.1075 N.pl3     1 RES1    0.0000
      8 H2         9.7453    2.1155   11.4107 H         1 RES1    0.0000
      9 N3         8.5345    0.9431    5.6266 N.pl3     1 RES1    0.0000
     10 C1         6.4954    1.5380   16.5279 C.ar      1 RES1    0.0000
     11 C2         7.4229    1.8051   15.5528 C.ar      1 RES1    0.0000
     12 H3         8.2284    2.2092   15.7836 H         1 RES1    0.0000
     13 C3         7.1738    1.4786   14.2190 C.ar      1 RES1    0.0000
     14 C4         5.9562    0.8928   13.8983 C.ar      1 RES1    0.0000
     15 H4         5.7675    0.6823   13.0120 H         1 RES1    0.0000
     16 C5         5.0209    0.6194   14.8784 C.ar      1 RES1    0.0000
     17 H5         4.2088    0.2265   14.6524 H         1 RES1    0.0000
     18 C6         5.2983    0.9319   16.1902 C.ar      1 RES1    0.0000
     19 C7         7.9108    1.9952   18.3985 C.3       1 RES1    0.0000
     20 H6         8.4693    1.2570   18.1435 H         1 RES1    0.0000
     21 H7         7.8529    2.0358   19.3558 H         1 RES1    0.0000
     22 H8         8.2901    2.8125   18.0654 H         1 RES1    0.0000
     23 C8         8.1915    1.7408   13.2100 C.2       1 RES1    0.0000
     24 H9         9.0014    2.1155   13.4702 H         1 RES1    0.0000
     25 C9         8.8931    1.5303    9.7761 C.ar      1 RES1    0.0000
     26 C10        9.9012    1.9372    8.9080 C.ar      1 RES1    0.0000
     27 H10       10.6577    2.3574    9.2490 H         1 RES1    0.0000
     28 C11        9.7962    1.7282    7.5570 C.ar      1 RES1    0.0000
     29 H11       10.4799    1.9924    6.9837 H         1 RES1    0.0000
     30 C12        8.6595    1.1179    7.0573 C.ar      1 RES1    0.0000
     31 C13        7.6589    0.6886    7.8901 C.ar      1 RES1    0.0000
     32 H12        6.9105    0.2615    7.5395 H         1 RES1    0.0000
     33 C14        7.7632    0.8900    9.2474 C.ar      1 RES1    0.0000
     34 H13        7.0854    0.6012    9.8139 H         1 RES1    0.0000
@<TRIPOS>BOND
     1    1   10 1
     2    2    3 1
     3    4    9 2
     4    5    9 2
     5    6    7 1
     6    7    8 1
     7    9   30 1
     8   10   11 ar
     9   11   12 1
    10   13   11 ar
    11   14   13 ar
    12   15   14 1
    13   16   14 ar
    14   17   16 1
    15   18    2 1
    16   19    1 1
    17   20   19 1
    18   21   19 1
    19   22   19 1
    20   23    6 2
    21   24   23 1
    22   25    7 1
    23   26   25 ar
    24   27   26 1
    25   28   26 ar
    26   29   28 1
    27   30   28 ar
    28   31   30 ar
    29   32   31 1
    30   33   25 ar
    31   34   33 1
    32   10   18 ar
    33   13   23 1
    34   16   18 ar
    35   31   33 ar
@<TRIPOS>SUBSTRUCTURE
     1 RES1 1

@<TRIPOS>CRYSIN
  12.5926    6.9910   15.7650  90.0000 107.6610  90.0000 231 1

