# MOL2 file generated by ConQuest
# Please check atom types

@<TRIPOS>MOLECULE
NEMRAY
    46    47     1
SMALL
NO_CHARGES
****
Generated from CSD

@<TRIPOS>ATOM
      1 C1         1.0866    3.5678    1.0472 C.ar      1 RES1    0.0000
      2 C2         0.7795    3.1454   -0.2471 C.ar      1 RES1    0.0000
      3 C3        -0.1755    2.1690   -0.4478 C.ar      1 RES1    0.0000
      4 C4        -0.8538    1.5902    0.6129 C.ar      1 RES1    0.0000
      5 H1        -1.5007    0.9106    0.4637 H         1 RES1    0.0000
      6 C5        -0.5600    2.0345    1.9280 C.ar      1 RES1    0.0000
      7 H2        -1.0165    1.6604    2.6719 H         1 RES1    0.0000
      8 C6         0.3902    3.0124    2.1189 C.ar      1 RES1    0.0000
      9 H3         0.5760    3.3134    3.0009 H         1 RES1    0.0000
     10 O1         1.3850    3.6672   -1.3567 O.3       1 RES1    0.0000
     11 H4         1.9443    4.2489   -1.1231 H         1 RES1    0.0000
     12 O2        -0.3780    1.8036   -1.7715 O.3       1 RES1    0.0000
     13 C7        -1.4852    0.9091   -2.0602 C.3       1 RES1    0.0000
     14 H5        -1.3030    0.0278   -1.6736 H         1 RES1    0.0000
     15 H6        -1.5912    0.8243   -3.0315 H         1 RES1    0.0000
     16 H7        -2.3086    1.2731   -1.6724 H         1 RES1    0.0000
     17 C8         2.0690    4.6128    1.3090 C.2       1 RES1    0.0000
     18 H8         2.2534    4.8686    2.2045 H         1 RES1    0.0000
     19 N1         2.6882    5.1931    0.3450 N.2       1 RES1    0.0000
     20 O3         3.5745    6.1826    0.8184 O.3       1 RES1    0.0000
     21 C9         4.2620    6.7745   -0.2936 C.3       1 RES1    0.0000
     22 H9         3.6171    7.1618   -0.9371 H         1 RES1    0.0000
     23 H10        4.8130    6.0978   -0.7634 H         1 RES1    0.0000
     24 C9B        5.1260    7.8415    0.2936 C.3       1 RES1    0.0000
     25 O3B        5.8135    8.4334   -0.8184 O.3       1 RES1    0.0000
     26 N1B        6.6998    9.4229   -0.3450 N.2       1 RES1    0.0000
     27 C8B        7.3190   10.0032   -1.3090 C.2       1 RES1    0.0000
     28 C1B        8.3014   11.0482   -1.0472 C.ar      1 RES1    0.0000
     29 C2B        8.6085   11.4706    0.2471 C.ar      1 RES1    0.0000
     30 C3B        9.5635   12.4470    0.4478 C.ar      1 RES1    0.0000
     31 C4B       10.2418   13.0258   -0.6129 C.ar      1 RES1    0.0000
     32 H1B       10.8887   13.7054   -0.4637 H         1 RES1    0.0000
     33 C5B        9.9480   12.5815   -1.9280 C.ar      1 RES1    0.0000
     34 H2B       10.4045   12.9556   -2.6719 H         1 RES1    0.0000
     35 C6B        8.9978   11.6036   -2.1189 C.ar      1 RES1    0.0000
     36 H3B        8.8120   11.3026   -3.0009 H         1 RES1    0.0000
     37 O2B        9.7660   12.8124    1.7715 O.3       1 RES1    0.0000
     38 C7B       10.8732   13.7069    2.0602 C.3       1 RES1    0.0000
     39 H5B       10.6910   14.5882    1.6736 H         1 RES1    0.0000
     40 H6B       10.9792   13.7917    3.0315 H         1 RES1    0.0000
     41 H7B       11.6966   13.3429    1.6724 H         1 RES1    0.0000
     42 O1B        8.0030   10.9488    1.3567 O.3       1 RES1    0.0000
     43 H4B        7.4437   10.3671    1.1231 H         1 RES1    0.0000
     44 H8B        7.1346    9.7474   -2.2045 H         1 RES1    0.0000
     45 H9B        5.7709    7.4542    0.9371 H         1 RES1    0.0000
     46 H10B       4.5750    8.5182    0.7634 H         1 RES1    0.0000
@<TRIPOS>BOND
     1    1    2 ar
     2    2    3 ar
     3    3    4 ar
     4    4    5 1
     5    6    4 ar
     6    7    6 1
     7    8    1 ar
     8    9    8 1
     9   10    2 1
    10   11   10 1
    11   12    3 1
    12   13   12 1
    13   14   13 1
    14   15   13 1
    15   16   13 1
    16   17    1 1
    17   18   17 1
    18   19   17 2
    19   20   19 1
    20   21   20 1
    21   22   21 1
    22   23   21 1
    23   24   21 1
    24   25   24 1
    25   26   25 1
    26   27   26 2
    27   28   27 1
    28   29   28 ar
    29   30   29 ar
    30   31   30 ar
    31   32   31 1
    32   33   31 ar
    33   34   33 1
    34   35   28 ar
    35   36   35 1
    36   37   30 1
    37   38   37 1
    38   39   38 1
    39   40   38 1
    40   41   38 1
    41   42   29 1
    42   43   42 1
    43   44   27 1
    44   45   24 1
    45   46   24 1
    46    6    8 ar
    47   33   35 ar
@<TRIPOS>SUBSTRUCTURE
     1 RES1 1

@<TRIPOS>CRYSIN
   4.6940   14.6160   12.3560  90.0000  98.0650  90.0000 231 1

