# MOL2 file generated by ConQuest
# Please check atom types

@<TRIPOS>MOLECULE
NENNUP01
    62    64     2
SMALL
NO_CHARGES
****
Generated from CSD

@<TRIPOS>ATOM
      1 N1         1.8141    4.3838   -2.3217 N.pl3     1 RES1    0.0000
      2 O1         1.5696    5.2642   -3.2200 O.2       1 RES1    0.0000
      3 C1         1.7264    2.9296   -2.6117 C.3       1 RES1    0.0000
      4 O2         2.5010    3.3677    0.8819 O.2       1 RES1    0.0000
      5 N2         2.2621    3.4844   -0.3871 N.pl3     1 RES1    0.0000
      6 C2         0.2021    2.6338   -2.7363 C.3       1 RES1    0.0000
      7 H1        -0.1334    3.0198   -3.5487 H         1 RES1    0.0000
      8 H2        -0.2596    3.0133   -1.9862 H         1 RES1    0.0000
      9 H3         0.0610    1.6841   -2.7512 H         1 RES1    0.0000
     10 N3         2.1179    8.1095   -0.2118 N.pl3     1 RES1    0.0000
     11 H4         2.0651    8.9649   -0.3863 H         1 RES1    0.0000
     12 C3         2.4221    2.6350   -3.9050 C.3       1 RES1    0.0000
     13 H5         3.5311    2.9529   -3.4266 H         1 RES1    0.0000
     14 H6         1.8839    2.9567   -4.5978 H         1 RES1    0.0000
     15 H7         2.4013    1.7434   -4.1243 H         1 RES1    0.0000
     16 N4         2.3806    7.6553    1.0252 N.2       1 RES1    0.0000
     17 C4         2.3156    2.3227   -1.3195 C.3       1 RES1    0.0000
     18 C5         1.5892    1.1576   -0.6903 C.3       1 RES1    0.0000
     19 H8         0.4844    1.7002   -0.8099 H         1 RES1    0.0000
     20 H9         2.3032    0.8919   -0.0374 H         1 RES1    0.0000
     21 H10        1.6167    0.4425   -1.2585 H         1 RES1    0.0000
     22 C6         3.8321    2.0148   -1.4853 C.3       1 RES1    0.0000
     23 H11        4.1733    1.6411   -0.6691 H         1 RES1    0.0000
     24 H12        4.3033    2.8275   -1.6859 H         1 RES1    0.0000
     25 H13        3.9561    1.3883   -2.2005 H         1 RES1    0.0000
     26 C7         2.0582    4.6491   -1.0180 C.2       1 RES1    0.0000
     27 C8         2.1209    5.9543   -0.4498 C.2       1 RES1    0.0000
     28 C9         1.9542    7.1555   -1.1040 C.2       1 RES1    0.0000
     29 H14        1.7480    7.2881   -1.9936 H         1 RES1    0.0000
     30 C10        2.3798    6.3397    0.8672 C.2       1 RES1    0.0000
     31 H15        2.5630    5.7997    1.5575 H         1 RES1    0.0000
     32 N5         6.0301    0.3313    5.8782 N.pl3     2 RES2    0.0000
     33 O3         4.7923    0.0754    5.8715 O.2       2 RES2    0.0000
     34 C11        6.8583    0.1847    7.1073 C.3       2 RES2    0.0000
     35 N6         7.9900    1.0168    5.2229 N.pl3     2 RES2    0.0000
     36 O4         8.9159    1.5114    4.4787 O.2       2 RES2    0.0000
     37 C12        6.4561    1.3464    8.0094 C.3       2 RES2    0.0000
     38 H16        5.4883    1.3234    8.2487 H         2 RES2    0.0000
     39 H17        6.6040    2.2900    7.5883 H         2 RES2    0.0000
     40 H18        7.0037    1.4073    8.7969 H         2 RES2    0.0000
     41 N7         4.6527    2.1769    2.2256 N.pl3     2 RES2    0.0000
     42 H19        3.8209    2.4314    1.7693 H         2 RES2    0.0000
     43 C13        6.5494   -1.1394    7.7839 C.3       2 RES2    0.0000
     44 H20        5.6295   -1.1654    8.0493 H         2 RES2    0.0000
     45 H21        7.1388   -1.3257    8.5228 H         2 RES2    0.0000
     46 H22        6.5414   -1.8978    7.1023 H         2 RES2    0.0000
     47 N8         5.8590    2.4369    1.6677 N.2       2 RES2    0.0000
     48 C14        8.2916    0.3015    6.5092 C.3       2 RES2    0.0000
     49 C15        8.9115   -1.0330    6.1167 C.3       2 RES2    0.0000
     50 H23        9.6928   -0.9062    5.5822 H         2 RES2    0.0000
     51 H24        8.2941   -1.5822    5.5822 H         2 RES2    0.0000
     52 H25        9.1874   -1.4573    6.9653 H         2 RES2    0.0000
     53 C16        9.2595    1.1222    7.3328 C.3       2 RES2    0.0000
     54 H26       10.0916    1.1507    6.9279 H         2 RES2    0.0000
     55 H27        9.3750    0.7124    8.2487 H         2 RES2    0.0000
     56 H28        8.9437    2.0657    7.5010 H         2 RES2    0.0000
     57 C17        6.6989    0.9415    4.8807 C.2       2 RES2    0.0000
     58 C18        6.0974    1.4597    3.6845 C.2       2 RES2    0.0000
     59 C19        4.7495    1.5888    3.4253 C.2       2 RES2    0.0000
     60 H29        3.9597    1.3619    3.9599 H         2 RES2    0.0000
     61 C20        6.7363    2.0065    2.5631 C.2       2 RES2    0.0000
     62 H30        7.6799    2.0851    2.4223 H         2 RES2    0.0000
@<TRIPOS>BOND
     1    1    2 1
     2    3    1 1
     3    4    5 2
     4    5   17 1
     5    6    3 1
     6    7    6 1
     7    8    6 1
     8    9    6 1
     9   10   11 1
    10   12    3 1
    11   13   12 1
    12   14   12 1
    13   15   12 1
    14   16   10 1
    15   17    3 1
    16   18   17 1
    17   19   18 1
    18   20   18 1
    19   21   18 1
    20   22   17 1
    21   23   22 1
    22   24   22 1
    23   25   22 1
    24   26    1 2
    25   27   26 1
    26   28   10 1
    27   29   28 1
    28   30   16 2
    29   31   30 1
    30   32   33 1
    31   34   32 1
    32   35   36 2
    33   37   34 1
    34   38   37 1
    35   39   37 1
    36   40   37 1
    37   41   42 1
    38   43   34 1
    39   44   43 1
    40   45   43 1
    41   46   43 1
    42   47   41 1
    43   48   34 1
    44   49   48 1
    45   50   49 1
    46   51   49 1
    47   52   49 1
    48   53   48 1
    49   54   53 1
    50   55   53 1
    51   56   53 1
    52   57   32 2
    53   58   57 1
    54   59   41 1
    55   60   59 1
    56   61   47 2
    57   62   61 1
    58    5   26 1
    59   27   28 2
    60   27   30 1
    61   35   48 1
    62   35   57 1
    63   58   59 2
    64   58   61 1
@<TRIPOS>SUBSTRUCTURE
     1 RES1 1
     2 RES2 32

@<TRIPOS>CRYSIN
   7.1757   13.0260   14.0570  63.9020  80.1290  86.4020   2 1

