# MOL2 file generated by ConQuest
# Please check atom types

@<TRIPOS>MOLECULE
NENNUP02
    62    64     2
SMALL
NO_CHARGES
****
Generated from CSD

@<TRIPOS>ATOM
      1 O1         3.1757   -0.9498   11.2342 O.2       1 RES1    0.0000
      2 O2         0.6608    2.8438   10.5411 O.2       1 RES1    0.0000
      3 N1         2.1601   -0.1465   11.1957 N.3       1 RES1    0.0000
      4 N2         0.9833    1.6516   10.8891 N.pl3     1 RES1    0.0000
      5 N3         5.3149    1.9601    9.0177 N.2       1 RES1    0.0000
      6 N4         4.6275    3.1176    9.0472 N.pl3     1 RES1    0.0000
      7 H1         4.9481    3.8727    8.6911 H         1 RES1    0.0000
      8 C1         2.1907    1.0845   10.6869 C.2       1 RES1    0.0000
      9 C2         0.7842   -0.5824   11.5923 C.3       1 RES1    0.0000
     10 C3         0.0967    0.8081   11.7468 C.3       1 RES1    0.0000
     11 C4         3.3118    1.6923   10.0340 C.2       1 RES1    0.0000
     12 C5         4.5153    1.0998    9.6150 C.2       1 RES1    0.0000
     13 H2         4.7263    0.1927    9.7464 H         1 RES1    0.0000
     14 C6         3.4355    3.0012    9.6374 C.2       1 RES1    0.0000
     15 H3         2.8025    3.6853    9.7580 H         1 RES1    0.0000
     16 C7         0.8436   -1.4125   12.8581 C.3       1 RES1    0.0000
     17 H4        -0.0575   -1.6225   13.1497 H         1 RES1    0.0000
     18 H5         1.2995   -0.9108   13.5527 H         1 RES1    0.0000
     19 H6         1.3266   -2.2345   12.6835 H         1 RES1    0.0000
     20 C8         0.2494   -1.4114   10.4299 C.3       1 RES1    0.0000
     21 H7        -0.6434   -1.7273   10.6415 H         1 RES1    0.0000
     22 H8         0.8335   -2.1716   10.2785 H         1 RES1    0.0000
     23 H9         0.2171   -0.8637    9.6301 H         1 RES1    0.0000
     24 C9         0.2021    1.4009   13.1503 C.3       1 RES1    0.0000
     25 H10       -0.3768    0.9095   13.7529 H         1 RES1    0.0000
     26 H11       -0.0683    2.3315   13.1291 H         1 RES1    0.0000
     27 H12        1.1191    1.3381   13.4597 H         1 RES1    0.0000
     28 C10       -1.3309    0.8760   11.2415 C.3       1 RES1    0.0000
     29 H13       -1.8935    0.3001   11.7819 H         1 RES1    0.0000
     30 H14       -1.3606    0.5819   10.3173 H         1 RES1    0.0000
     31 H15       -1.6523    1.7889   11.3015 H         1 RES1    0.0000
     32 O3        -0.6215    1.4083    3.7016 O.2       2 RES2    0.0000
     33 O4         1.0085    0.9101    7.9772 O.2       2 RES2    0.0000
     34 N5         0.1314    1.0321    4.6810 N.3       2 RES2    0.0000
     35 N6         0.8946    0.7846    6.7076 N.pl3     2 RES2    0.0000
     36 N7        -2.5799    3.9820    6.5223 N.2       2 RES2    0.0000
     37 N8        -1.9053    3.9075    7.6969 N.pl3     2 RES2    0.0000
     38 H16       -2.1376    4.4468    8.3967 H         2 RES2    0.0000
     39 C11       -0.0156    1.4368    5.9486 C.2       2 RES2    0.0000
     40 C12        1.1517   -0.0600    4.5317 C.3       2 RES2    0.0000
     41 C13        1.9029    0.0383    5.8954 C.3       2 RES2    0.0000
     42 C14       -0.9437    2.4166    6.4325 C.2       2 RES2    0.0000
     43 C15       -1.9890    3.0760    5.7577 C.2       2 RES2    0.0000
     44 H17       -2.2385    2.8950    4.8693 H         2 RES2    0.0000
     45 C16       -0.9377    2.9965    7.6877 C.2       2 RES2    0.0000
     46 H18       -0.3595    2.7863    8.3992 H         2 RES2    0.0000
     47 C17        2.0040    0.2215    3.3030 C.3       2 RES2    0.0000
     48 H19        1.4591    0.1350    2.5044 H         2 RES2    0.0000
     49 H20        2.7363   -0.4128    3.2652 H         2 RES2    0.0000
     50 H21        2.3592    1.1232    3.3556 H         2 RES2    0.0000
     51 C18        0.3731   -1.3549    4.3487 C.3       2 RES2    0.0000
     52 H22       -0.2084   -1.4940    5.1134 H         2 RES2    0.0000
     53 H23        0.9930   -2.0969    4.2752 H         2 RES2    0.0000
     54 H24       -0.1629   -1.2988    3.5416 H         2 RES2    0.0000
     55 C19        3.1567    0.9076    5.8642 C.3       2 RES2    0.0000
     56 H25        2.9524    1.7549    5.4389 H         2 RES2    0.0000
     57 H26        3.8518    0.4548    5.3627 H         2 RES2    0.0000
     58 H27        3.4628    1.0655    6.7705 H         2 RES2    0.0000
     59 C20        2.2179   -1.2854    6.5691 C.3       2 RES2    0.0000
     60 H28        2.6106   -1.1192    7.4409 H         2 RES2    0.0000
     61 H29        2.8442   -1.7850    6.0227 H         2 RES2    0.0000
     62 H30        1.4001   -1.7968    6.6750 H         2 RES2    0.0000
@<TRIPOS>BOND
     1    1    3 1
     2    2    4 1
     3    3    8 1
     4    4    8 2
     5    5    6 1
     6    6    7 1
     7    8   11 1
     8    9    3 1
     9   10    4 1
    10   11   12 1
    11   12    5 2
    12   13   12 1
    13   14    6 1
    14   15   14 1
    15   16    9 1
    16   17   16 1
    17   18   16 1
    18   19   16 1
    19   20    9 1
    20   21   20 1
    21   22   20 1
    22   23   20 1
    23   24   10 1
    24   25   24 1
    25   26   24 1
    26   27   24 1
    27   28   10 1
    28   29   28 1
    29   30   28 1
    30   31   28 1
    31   32   34 1
    32   33   35 1
    33   34   39 1
    34   35   39 2
    35   36   37 1
    36   37   38 1
    37   39   42 1
    38   40   34 1
    39   41   35 1
    40   42   43 1
    41   43   36 2
    42   44   43 1
    43   45   37 1
    44   46   45 1
    45   47   40 1
    46   48   47 1
    47   49   47 1
    48   50   47 1
    49   51   40 1
    50   52   51 1
    51   53   51 1
    52   54   51 1
    53   55   41 1
    54   56   55 1
    55   57   55 1
    56   58   55 1
    57   59   41 1
    58   60   59 1
    59   61   59 1
    60   62   59 1
    61    9   10 1
    62   11   14 2
    63   40   41 1
    64   42   45 2
@<TRIPOS>SUBSTRUCTURE
     1 RES1 1
     2 RES2 32

@<TRIPOS>CRYSIN
  13.8867   13.1057   13.4309  90.0000 105.9170  90.0000  14 1

