# MOL2 file generated by ConQuest
# Please check atom types

@<TRIPOS>MOLECULE
NENNUP
    62    64     2
SMALL
NO_CHARGES
****
Generated from CSD

@<TRIPOS>ATOM
      1 O1         5.2631   12.5090    6.5448 O.2       1 RES1    0.0000
      2 O2         1.1144   11.0770    7.9535 O.2       1 RES1    0.0000
      3 N1         4.0124   12.2487    6.5460 N.pl3     1 RES1    0.0000
      4 N2         2.0394   11.5659    7.2076 N.pl3     1 RES1    0.0000
      5 N3         5.4024   10.4385   10.2237 N.3       1 RES1    0.0000
      6 N4         4.1972   10.1719   10.7872 N.2       1 RES1    0.0000
      7 C1         3.3400   11.6485    7.5439 C.2       1 RES1    0.0000
      8 C2         3.1846   12.4038    5.3073 C.3       1 RES1    0.0000
      9 C3         1.7513   12.2902    5.9143 C.3       1 RES1    0.0000
     10 C4         3.9389   11.1376    8.7591 C.2       1 RES1    0.0000
     11 C5         5.3039   11.0202    9.0147 C.2       1 RES1    0.0000
     12 H1         6.0106   11.2905    8.4562 H         1 RES1    0.0000
     13 C6         3.2952   10.5896    9.8985 C.2       1 RES1    0.0000
     14 H2         2.3635   10.5283   10.0102 H         1 RES1    0.0000
     15 C7         3.5911   11.2107    4.4211 C.3       1 RES1    0.0000
     16 H3         3.0451   11.2015    3.6193 H         1 RES1    0.0000
     17 H4         3.4594   10.3840    4.9114 H         1 RES1    0.0000
     18 H5         4.5262   11.2938    4.1754 H         1 RES1    0.0000
     19 C8         3.5003   13.7054    4.6098 C.3       1 RES1    0.0000
     20 H6         2.8834   13.8341    3.8713 H         1 RES1    0.0000
     21 H7         4.4091   13.6790    4.2709 H         1 RES1    0.0000
     22 H8         3.4112   14.4394    5.2378 H         1 RES1    0.0000
     23 C9         0.7662   11.4643    5.0827 C.3       1 RES1    0.0000
     24 H9         0.6427   11.8844    4.2176 H         1 RES1    0.0000
     25 H10       -0.0853   11.4178    5.5444 H         1 RES1    0.0000
     26 H11        1.1180   10.5688    4.9610 H         1 RES1    0.0000
     27 C10        1.1247   13.6353    6.3015 C.3       1 RES1    0.0000
     28 H12        0.9063   14.1322    5.4972 H         1 RES1    0.0000
     29 H13        1.7538   14.1432    6.8352 H         1 RES1    0.0000
     30 H14        0.3163   13.4794    6.8141 H         1 RES1    0.0000
     31 H15        6.2156   10.1931   10.6308 H         1 RES1    0.0000
     32 O3         4.3506   17.8648    9.2071 O.2       2 RES2    0.0000
     33 O4         5.4312   15.9713   13.2981 O.2       2 RES2    0.0000
     34 N5         4.6295   16.9775   10.0983 N.pl3     2 RES2    0.0000
     35 N6         5.1525   16.0858   12.0271 N.pl3     2 RES2    0.0000
     36 N7         4.9473   20.7317   12.2145 N.3       2 RES2    0.0000
     37 N8         5.2800   20.2719   13.4408 N.2       2 RES2    0.0000
     38 C11        4.9193   17.2557   11.4015 C.2       2 RES2    0.0000
     39 C12        4.5350   15.5137    9.8203 C.3       2 RES2    0.0000
     40 C13        5.2266   14.9195   11.0863 C.3       2 RES2    0.0000
     41 C14        4.9684   18.5619   11.9675 C.2       2 RES2    0.0000
     42 C15        4.7673   19.7723   11.3233 C.2       2 RES2    0.0000
     43 H16        4.5434   19.8894   10.4173 H         2 RES2    0.0000
     44 C16        5.2886   18.9594   13.2906 C.2       2 RES2    0.0000
     45 H17        5.4843   18.3563   13.9845 H         2 RES2    0.0000
     46 C17        3.0200   15.1885    9.7421 C.3       2 RES2    0.0000
     47 H18        2.9020   14.2492    9.5311 H         2 RES2    0.0000
     48 H19        2.6077   15.7289    9.0507 H         2 RES2    0.0000
     49 H20        2.6030   15.3823   10.5960 H         2 RES2    0.0000
     50 C18        5.2039   15.2130    8.4872 C.3       2 RES2    0.0000
     51 H21        5.2249   14.2537    8.3445 H         2 RES2    0.0000
     52 H22        6.1102   15.5596    8.4947 H         2 RES2    0.0000
     53 H23        4.7025   15.6363    7.7723 H         2 RES2    0.0000
     54 C19        4.5542   13.7171   11.7069 C.3       2 RES2    0.0000
     55 H24        5.0431   13.4488   12.5012 H         2 RES2    0.0000
     56 H25        4.5457   12.9866   11.0701 H         2 RES2    0.0000
     57 H26        3.6434   13.9458   11.9501 H         2 RES2    0.0000
     58 C20        6.7234   14.6376   10.8728 C.3       2 RES2    0.0000
     59 H27        6.8279   13.9143   10.2348 H         2 RES2    0.0000
     60 H28        7.1287   14.3871   11.7168 H         2 RES2    0.0000
     61 H29        7.1566   15.4362   10.5302 H         2 RES2    0.0000
     62 H30        4.8558   21.5346   12.0085 H         2 RES2    0.0000
@<TRIPOS>BOND
     1    1    3 un
     2    2    4 un
     3    3    7 un
     4    4    7 un
     5    5    6 1
     6    6   13 2
     7    7   10 1
     8    8    3 1
     9    9    4 1
    10   10   11 2
    11   11    5 1
    12   12   11 1
    13   13   10 1
    14   14   13 1
    15   15    8 1
    16   16   15 1
    17   17   15 1
    18   18   15 1
    19   19    8 1
    20   20   19 1
    21   21   19 1
    22   22   19 1
    23   23    9 1
    24   24   23 1
    25   25   23 1
    26   26   23 1
    27   27    9 1
    28   28   27 1
    29   29   27 1
    30   30   27 1
    31   31    5 1
    32   32   34 un
    33   33   35 un
    34   34   38 un
    35   35   38 un
    36   36   37 1
    37   37   44 2
    38   38   41 1
    39   39   34 1
    40   40   35 1
    41   41   42 2
    42   42   36 1
    43   43   42 1
    44   44   41 1
    45   45   44 1
    46   46   39 1
    47   47   46 1
    48   48   46 1
    49   49   46 1
    50   50   39 1
    51   51   50 1
    52   52   50 1
    53   53   50 1
    54   54   40 1
    55   55   54 1
    56   56   54 1
    57   57   54 1
    58   58   40 1
    59   59   58 1
    60   60   58 1
    61   61   58 1
    62   62   36 1
    63    8    9 1
    64   39   40 1
@<TRIPOS>SUBSTRUCTURE
     1 RES1 1
     2 RES2 32

@<TRIPOS>CRYSIN
   7.1880   13.0620   14.0520  63.7700  79.5800  86.8000   2 1

