# MOL2 file generated by ConQuest
# Please check atom types

@<TRIPOS>MOLECULE
NEPTEI
    90    96     2
SMALL
NO_CHARGES
****
Generated from CSD

@<TRIPOS>ATOM
      1 C1         9.3960   11.9684    1.7157 C.ar      1 RES1    0.0000
      2 C2        10.3753   10.9903    1.7553 C.ar      1 RES1    0.0000
      3 H1        10.1512   10.0980    1.6194 H         1 RES1    0.0000
      4 C3        11.7124   11.3575    2.0045 C.ar      1 RES1    0.0000
      5 H2        12.3757   10.7059    2.0229 H         1 RES1    0.0000
      6 C4        12.0418   12.6651    2.2182 C.ar      1 RES1    0.0000
      7 H3        12.9262   12.8998    2.3825 H         1 RES1    0.0000
      8 C5        11.0837   13.6160    2.1928 C.ar      1 RES1    0.0000
      9 H4        11.3093   14.5053    2.3471 H         1 RES1    0.0000
     10 C6         9.7676   13.2730    1.9365 C.ar      1 RES1    0.0000
     11 H5         9.1209   13.9395    1.9153 H         1 RES1    0.0000
     12 C7         7.9747   11.6373    1.3434 C.3       1 RES1    0.0000
     13 H6         7.6799   12.2483    0.6498 H         1 RES1    0.0000
     14 H7         7.9462   10.7390    0.9768 H         1 RES1    0.0000
     15 N1         7.0324   11.7201    2.4943 N.3       1 RES1    0.0000
     16 O1         7.3502   10.6385    3.4141 O.3       1 RES1    0.0000
     17 C8         6.5519    9.4796    3.0959 C.3       1 RES1    0.0000
     18 H8         6.0630    9.1832    3.8787 H         1 RES1    0.0000
     19 H9         7.1204    8.7528    2.7958 H         1 RES1    0.0000
     20 C9         5.5892    9.8814    1.9960 C.3       1 RES1    0.0000
     21 H10        5.9502    9.5910    1.1311 H         1 RES1    0.0000
     22 C10        5.6462   11.4115    2.0760 C.3       1 RES1    0.0000
     23 H11        5.4749   11.7953    1.1905 H         1 RES1    0.0000
     24 C11        4.6802   12.0095    3.0878 C.3       1 RES1    0.0000
     25 H12        5.0508   11.8676    3.9835 H         1 RES1    0.0000
     26 O2         4.6430   13.4064    2.8410 O.3       1 RES1    0.0000
     27 H13        4.0445   13.7469    3.2856 H         1 RES1    0.0000
     28 C12        3.2726   11.3659    3.0411 C.3       1 RES1    0.0000
     29 O3         3.4507    9.9410    3.2283 O.3       1 RES1    0.0000
     30 C13        4.1754    9.3156    2.1630 C.3       1 RES1    0.0000
     31 H14        3.6865    9.4360    1.3349 H         1 RES1    0.0000
     32 H15        4.2340    8.3631    2.3372 H         1 RES1    0.0000
     33 C14        2.3945   11.7066    1.8318 C.3       1 RES1    0.0000
     34 H16        2.5269   12.6274    1.5600 H         1 RES1    0.0000
     35 H17        2.6036   11.1273    1.0829 H         1 RES1    0.0000
     36 C15        0.9701   11.4869    2.2961 C.3       1 RES1    0.0000
     37 H18        0.6077   10.6804    1.8941 H         1 RES1    0.0000
     38 H19        0.4136   12.2362    2.0356 H         1 RES1    0.0000
     39 C16        0.9927   11.3515    3.8080 C.3       1 RES1    0.0000
     40 H20        0.8393   10.4321    4.0741 H         1 RES1    0.0000
     41 H21        0.3113   11.9127    4.2128 H         1 RES1    0.0000
     42 C17        2.3899   11.8104    4.2256 C.3       1 RES1    0.0000
     43 H22        2.6728   11.3936    5.0664 H         1 RES1    0.0000
     44 O4         2.4410   13.2341    4.2990 O.3       1 RES1    0.0000
     45 H23        2.4412   13.4671    5.0848 H         1 RES1    0.0000
     46 C18        7.4098   13.0518    5.9908 C.3       2 RES2    0.0000
     47 H24        7.1851   12.1023    5.9002 H         2 RES2    0.0000
     48 C19       -0.5460   13.4610    7.4630 C.ar      2 RES2    0.0000
     49 H25       -0.2948   12.9750    8.2147 H         2 RES2    0.0000
     50 C20        0.2898   14.4462    6.9832 C.ar      2 RES2    0.0000
     51 C21       -1.7553   13.1797    6.8430 C.ar      2 RES2    0.0000
     52 H26       -2.3163   12.5266    7.1927 H         2 RES2    0.0000
     53 C22       -2.1208   13.8643    5.7190 C.ar      2 RES2    0.0000
     54 H27       -2.9315   13.6747    5.3057 H         2 RES2    0.0000
     55 C23       -1.3010   14.8273    5.1967 C.ar      2 RES2    0.0000
     56 H28       -1.5447   15.2817    4.4223 H         2 RES2    0.0000
     57 C24       -0.0902   15.1207    5.8379 C.ar      2 RES2    0.0000
     58 H29        0.4663   15.7798    5.4883 H         2 RES2    0.0000
     59 C25        1.6034   14.7611    7.6499 C.3       2 RES2    0.0000
     60 H30        1.7869   15.7106    7.5692 H         2 RES2    0.0000
     61 H31        1.5477   14.5444    8.5941 H         2 RES2    0.0000
     62 N2         2.7014   13.9931    7.0324 N.3       2 RES2    0.0000
     63 O5         2.5667   12.5945    7.4190 O.3       2 RES2    0.0000
     64 C26        3.2970   12.3611    8.6437 C.3       2 RES2    0.0000
     65 H32        3.8355   11.5576    8.5644 H         2 RES2    0.0000
     66 H33        2.6818   12.2468    9.3840 H         2 RES2    0.0000
     67 C27        4.1868   13.5739    8.8769 C.3       2 RES2    0.0000
     68 H34        3.8054   14.1096    9.6034 H         2 RES2    0.0000
     69 C28        5.0607   13.9854    6.4772 C.3       2 RES2    0.0000
     70 H35        4.7605   13.1541    6.0531 H         2 RES2    0.0000
     71 O6         5.0130   15.0163    5.4958 O.3       2 RES2    0.0000
     72 H36        5.5426   14.8454    4.8937 H         2 RES2    0.0000
     73 C29        4.0382   14.3562    7.5494 C.3       2 RES2    0.0000
     74 H37        4.0761   15.3194    7.7249 H         2 RES2    0.0000
     75 C30        5.6434   13.2489    9.2170 C.3       2 RES2    0.0000
     76 H38        6.0721   14.0464    9.5666 H         2 RES2    0.0000
     77 H39        5.6629   12.5718    9.9106 H         2 RES2    0.0000
     78 C31        6.4801   13.7483    7.0185 C.3       2 RES2    0.0000
     79 O7         6.3741   12.7847    8.0937 O.3       2 RES2    0.0000
     80 C32        7.2964   14.9752    7.4248 C.3       2 RES2    0.0000
     81 H40        6.9896   15.3329    8.2714 H         2 RES2    0.0000
     82 H41        7.2407   15.6699    6.7496 H         2 RES2    0.0000
     83 C33        8.7253   14.4391    7.5423 C.3       2 RES2    0.0000
     84 H42        9.3660   15.1177    7.2776 H         2 RES2    0.0000
     85 H43        8.9148   14.1743    8.4554 H         2 RES2    0.0000
     86 C34        8.8065   13.2338    6.6066 C.3       2 RES2    0.0000
     87 H44        9.0622   12.4394    7.1021 H         2 RES2    0.0000
     88 H45        9.4653   13.3888    5.9115 H         2 RES2    0.0000
     89 O8         7.3027   13.7220    4.7414 O.3       2 RES2    0.0000
     90 H46        7.3144   13.1706    4.1336 H         2 RES2    0.0000
@<TRIPOS>BOND
     1    1    2 ar
     2    2    3 1
     3    4    2 ar
     4    5    4 1
     5    6    4 ar
     6    7    6 1
     7    8    6 ar
     8    9    8 1
     9   10    1 ar
    10   11   10 1
    11   12    1 1
    12   13   12 1
    13   14   12 1
    14   15   12 1
    15   16   15 1
    16   17   16 1
    17   18   17 1
    18   19   17 1
    19   20   17 1
    20   21   20 1
    21   22   15 1
    22   23   22 1
    23   24   22 1
    24   25   24 1
    25   26   24 1
    26   27   26 1
    27   28   24 1
    28   29   28 1
    29   30   20 1
    30   31   30 1
    31   32   30 1
    32   33   28 1
    33   34   33 1
    34   35   33 1
    35   36   33 1
    36   37   36 1
    37   38   36 1
    38   39   36 1
    39   40   39 1
    40   41   39 1
    41   42   28 1
    42   43   42 1
    43   44   42 1
    44   45   44 1
    45   46   47 1
    46   48   49 1
    47   50   48 ar
    48   51   48 ar
    49   52   51 1
    50   53   51 ar
    51   54   53 1
    52   55   53 ar
    53   56   55 1
    54   57   50 ar
    55   58   57 1
    56   59   50 1
    57   60   59 1
    58   61   59 1
    59   62   59 1
    60   63   62 1
    61   64   63 1
    62   65   64 1
    63   66   64 1
    64   67   64 1
    65   68   67 1
    66   69   70 1
    67   71   69 1
    68   72   71 1
    69   73   62 1
    70   74   73 1
    71   75   67 1
    72   76   75 1
    73   77   75 1
    74   78   46 1
    75   79   75 1
    76   80   78 1
    77   81   80 1
    78   82   80 1
    79   83   80 1
    80   84   83 1
    81   85   83 1
    82   86   46 1
    83   87   86 1
    84   88   86 1
    85   89   46 1
    86   90   89 1
    87    8   10 ar
    88   20   22 1
    89   29   30 1
    90   39   42 1
    91   55   57 ar
    92   67   73 1
    93   69   73 1
    94   69   78 1
    95   78   79 1
    96   83   86 1
@<TRIPOS>SUBSTRUCTURE
     1 RES1 1
     2 RES2 46

@<TRIPOS>CRYSIN
  15.0410   15.0470   14.1560  90.0000  90.0000  90.0000  19 1

