# MOL2 file generated by ConQuest
# Please check atom types

@<TRIPOS>MOLECULE
NEPTIM
    36    39     1
SMALL
NO_CHARGES
****
Generated from CSD

@<TRIPOS>ATOM
      1 N1         3.1356    8.6480    7.1296 N.3       1 RES1    0.0000
      2 C1         1.8264    7.9784    7.0850 C.3       1 RES1    0.0000
      3 H1         1.4783    7.8321    7.9894 H         1 RES1    0.0000
      4 C2         1.8545    6.6365    6.2721 C.3       1 RES1    0.0000
      5 H2         2.7799    6.4165    6.0358 H         1 RES1    0.0000
      6 O1         1.2854    5.5615    7.0262 O.3       1 RES1    0.0000
      7 H3         0.5104    5.7452    7.2210 H         1 RES1    0.0000
      8 C3         1.0602    6.9340    4.9998 C.3       1 RES1    0.0000
      9 H4         0.6490    6.1174    4.6469 H         1 RES1    0.0000
     10 C4        -0.0106    7.9127    5.5008 C.3       1 RES1    0.0000
     11 H5        -0.5067    8.3379    4.7698 H         1 RES1    0.0000
     12 O2        -0.8505    7.1728    6.3773 O.3       1 RES1    0.0000
     13 H6        -1.4296    7.6667    6.6832 H         1 RES1    0.0000
     14 C5         0.8811    8.9034    6.2707 C.3       1 RES1    0.0000
     15 H7         0.3732    9.5266    6.8311 H         1 RES1    0.0000
     16 O3         3.1949    9.4354    5.9057 O.3       1 RES1    0.0000
     17 C6         1.8695    9.6009    5.3306 C.3       1 RES1    0.0000
     18 H8         1.6511   10.5542    5.2597 H         1 RES1    0.0000
     19 C7         1.8795    8.9699    3.9567 C.3       1 RES1    0.0000
     20 H9         1.0883    9.2509    3.4693 H         1 RES1    0.0000
     21 H10        2.6570    9.2806    3.4674 H         1 RES1    0.0000
     22 O4         1.9069    7.5373    4.0260 O.3       1 RES1    0.0000
     23 C8         3.3203    9.5712    8.2853 C.3       1 RES1    0.0000
     24 H11        4.1565   10.0452    8.1604 H         1 RES1    0.0000
     25 H12        3.4120    9.0325    9.0883 H         1 RES1    0.0000
     26 C9         2.2333   10.5955    8.5331 C.ar      1 RES1    0.0000
     27 C10        2.1803   11.7503    7.7618 C.ar      1 RES1    0.0000
     28 H13        2.8573   11.9231    7.1480 H         1 RES1    0.0000
     29 C11        1.1344   12.6453    7.8938 C.ar      1 RES1    0.0000
     30 H14        1.1101   13.4077    7.3613 H         1 RES1    0.0000
     31 C12        0.1379   12.4183    8.7982 C.ar      1 RES1    0.0000
     32 H15       -0.5747   13.0122    8.8635 H         1 RES1    0.0000
     33 C13        0.1872   11.3208    9.6069 C.ar      1 RES1    0.0000
     34 H16       -0.4767   11.1830   10.2428 H         1 RES1    0.0000
     35 C14        1.2368   10.4025    9.4790 C.ar      1 RES1    0.0000
     36 H17        1.2655    9.6560   10.0334 H         1 RES1    0.0000
@<TRIPOS>BOND
     1    1    2 1
     2    2    3 1
     3    4    2 1
     4    5    4 1
     5    6    4 1
     6    7    6 1
     7    8    4 1
     8    9    8 1
     9   10    8 1
    10   11   10 1
    11   12   10 1
    12   13   12 1
    13   14    2 1
    14   15   14 1
    15   16    1 1
    16   17   14 1
    17   18   17 1
    18   19   17 1
    19   20   19 1
    20   21   19 1
    21   22    8 1
    22   23    1 1
    23   24   23 1
    24   25   23 1
    25   26   23 1
    26   27   26 ar
    27   28   27 1
    28   29   27 ar
    29   30   29 1
    30   31   29 ar
    31   32   31 1
    32   33   31 ar
    33   34   33 1
    34   35   26 ar
    35   36   35 1
    36   10   14 1
    37   16   17 1
    38   19   22 1
    39   33   35 ar
@<TRIPOS>SUBSTRUCTURE
     1 RES1 1

@<TRIPOS>CRYSIN
   6.2400   10.6040   19.2100  90.0000  90.0000  90.0000  19 1

