# MOL2 file generated by ConQuest
# Please check atom types

@<TRIPOS>MOLECULE
NEPTAE
    45    48     1
SMALL
NO_CHARGES
****
Generated from CSD

@<TRIPOS>ATOM
      1 C1         1.1027    2.4363   10.8639 C.3       1 RES1    0.0000
      2 O1         0.1109    3.2954   11.4916 O.3       1 RES1    0.0000
      3 C2         0.4791    3.8547   12.7732 C.3       1 RES1    0.0000
      4 H1        -0.2738    4.3471   13.1359 H         1 RES1    0.0000
      5 H2         1.2126    4.4776   12.6515 H         1 RES1    0.0000
      6 C3         0.8967    2.7737   13.7656 C.3       1 RES1    0.0000
      7 H3         0.1433    2.1913   13.9509 H         1 RES1    0.0000
      8 H4         1.1730    3.1849   14.6000 H         1 RES1    0.0000
      9 C4         2.0489    1.9544   13.1917 C.3       1 RES1    0.0000
     10 H5         2.2721    1.2336   13.8008 H         1 RES1    0.0000
     11 H6         2.8313    2.5186   13.0895 H         1 RES1    0.0000
     12 C5         1.6510    1.3767   11.8344 C.3       1 RES1    0.0000
     13 H7         0.9758    0.6931   11.9682 H         1 RES1    0.0000
     14 H8         2.4255    0.9530   11.4338 H         1 RES1    0.0000
     15 C6         2.1487    3.2665   10.0842 C.3       1 RES1    0.0000
     16 H9         2.7596    2.6422    9.6390 H         1 RES1    0.0000
     17 O2         2.9387    4.2051   10.8262 O.3       1 RES1    0.0000
     18 H10        3.6816    3.8866   10.9665 H         1 RES1    0.0000
     19 C7         1.3168    3.9704    8.9985 C.3       1 RES1    0.0000
     20 H11        0.9095    4.7942    9.3376 H         1 RES1    0.0000
     21 C8         0.2314    2.9101    8.6215 C.3       1 RES1    0.0000
     22 H12       -0.6696    3.2938    8.6482 H         1 RES1    0.0000
     23 C9         0.3948    1.7720    9.6577 C.3       1 RES1    0.0000
     24 H13        0.9940    1.0935    9.2815 H         1 RES1    0.0000
     25 C10        0.6327    2.5205    7.1945 C.3       1 RES1    0.0000
     26 H14        0.5624    1.5615    7.0670 H         1 RES1    0.0000
     27 H15        0.0670    2.9658    6.5447 H         1 RES1    0.0000
     28 N1         2.1223    4.2266    7.7844 N.3       1 RES1    0.0000
     29 C11        1.5230    5.3196    6.9805 C.3       1 RES1    0.0000
     30 H16        1.4707    6.1180    7.5294 H         1 RES1    0.0000
     31 H17        0.6182    5.0694    6.7375 H         1 RES1    0.0000
     32 O3        -0.8455    1.1587    9.9532 O.3       1 RES1    0.0000
     33 H18       -0.7135    0.4102   10.2612 H         1 RES1    0.0000
     34 O4         2.0040    2.9556    7.0643 O.3       1 RES1    0.0000
     35 C12        2.2979    5.6463    5.7118 C.ar      1 RES1    0.0000
     36 C13        1.8855    6.7560    4.9616 C.ar      1 RES1    0.0000
     37 H19        1.1231    7.2271    5.2112 H         1 RES1    0.0000
     38 C14        2.6130    7.1550    3.8471 C.ar      1 RES1    0.0000
     39 H20        2.3401    7.8969    3.3578 H         1 RES1    0.0000
     40 C15        3.7432    6.4511    3.4604 C.ar      1 RES1    0.0000
     41 H21        4.2320    6.7236    2.7172 H         1 RES1    0.0000
     42 C16        4.1432    5.3349    4.1899 C.ar      1 RES1    0.0000
     43 H22        4.8988    4.8584    3.9312 H         1 RES1    0.0000
     44 C17        3.4167    4.9304    5.3027 C.ar      1 RES1    0.0000
     45 H23        3.6812    4.1756    5.7773 H         1 RES1    0.0000
@<TRIPOS>BOND
     1    1    2 1
     2    2    3 1
     3    3    4 1
     4    5    3 1
     5    6    3 1
     6    7    6 1
     7    8    6 1
     8    9    6 1
     9   10    9 1
    10   11    9 1
    11   12    1 1
    12   13   12 1
    13   14   12 1
    14   15    1 1
    15   16   15 1
    16   17   15 1
    17   18   17 1
    18   19   15 1
    19   20   19 1
    20   21   19 1
    21   22   21 1
    22   23    1 1
    23   24   23 1
    24   25   21 1
    25   26   25 1
    26   27   25 1
    27   28   19 1
    28   29   28 1
    29   30   29 1
    30   31   29 1
    31   32   23 1
    32   33   32 1
    33   34   25 1
    34   35   29 1
    35   36   35 ar
    36   37   36 1
    37   38   36 ar
    38   39   38 1
    39   40   38 ar
    40   41   40 1
    41   42   40 ar
    42   43   42 1
    43   44   35 ar
    44   45   44 1
    45    9   12 1
    46   21   23 1
    47   28   34 1
    48   42   44 ar
@<TRIPOS>SUBSTRUCTURE
     1 RES1 1

@<TRIPOS>CRYSIN
   5.5020    6.0940   12.2780  95.1900  91.8800 108.7900   1 1

