# MOL2 file generated by ConQuest
# Please check atom types

@<TRIPOS>MOLECULE
NEQCAO
    78    82     2
SMALL
NO_CHARGES
****
Generated from CSD

@<TRIPOS>ATOM
      1 N1         8.1789    5.4935    4.0418 N.3       1 RES1    0.0000
      2 C1         7.1776    6.5172    4.2710 C.3       1 RES1    0.0000
      3 H1         7.5921    7.3665    4.4380 H         1 RES1    0.0000
      4 H2         6.6607    6.2737    5.0435 H         1 RES1    0.0000
      5 C2         6.3260    6.6126    3.0600 C.3       1 RES1    0.0000
      6 H3         5.6898    7.3227    3.1771 H         1 RES1    0.0000
      7 H4         5.8423    5.7905    2.9528 H         1 RES1    0.0000
      8 C3         7.1375    6.8220    1.7941 C.3       1 RES1    0.0000
      9 H5         7.5498    7.6860    1.8614 H         1 RES1    0.0000
     10 H6         6.5782    6.8142    1.0142 H         1 RES1    0.0000
     11 C4         8.2407    5.7730    1.6596 C.3       1 RES1    0.0000
     12 H7         7.8506    4.9042    1.5400 H         1 RES1    0.0000
     13 C5         9.0248    5.7954    2.9030 C.3       1 RES1    0.0000
     14 H8         9.4474    6.6496    3.0151 H         1 RES1    0.0000
     15 C6        10.1089    4.6782    3.0201 C.3       1 RES1    0.0000
     16 H9        10.9441    4.9276    2.6164 H         1 RES1    0.0000
     17 H10        9.7691    3.8941    2.5840 H         1 RES1    0.0000
     18 C7        10.2503    4.4221    4.5152 C.3       1 RES1    0.0000
     19 H11       11.1078    4.7308    4.8192 H         1 RES1    0.0000
     20 H12       10.1620    3.4909    4.7295 H         1 RES1    0.0000
     21 C8         9.1140    5.2909    5.1855 C.3       1 RES1    0.0000
     22 H13        8.6749    4.7951    5.8808 H         1 RES1    0.0000
     23 H14        9.4407    6.1188    5.5468 H         1 RES1    0.0000
     24 O1         9.1168    6.1168    0.5532 O.3       1 RES1    0.0000
     25 C9         8.8047    5.6191   -0.6429 C.2       1 RES1    0.0000
     26 O2         7.9399    4.8516   -0.8647 O.2       1 RES1    0.0000
     27 C10        9.7632    6.1548   -1.7194 C.ar      1 RES1    0.0000
     28 C11        9.4885    5.7974   -3.0301 C.ar      1 RES1    0.0000
     29 H15        8.8343    5.1146   -3.1995 H         1 RES1    0.0000
     30 C12       10.2461    6.3925   -4.0443 C.ar      1 RES1    0.0000
     31 H16       10.0514    6.2542   -4.9737 H         1 RES1    0.0000
     32 C13       11.3051    7.2574   -3.6506 C.ar      1 RES1    0.0000
     33 C14       11.6003    7.5146   -2.4046 C.ar      1 RES1    0.0000
     34 H17       12.3780    8.0366   -2.1978 H         1 RES1    0.0000
     35 C15       10.7814    6.9954   -1.3755 C.ar      1 RES1    0.0000
     36 H18       10.9252    7.2194   -0.4535 H         1 RES1    0.0000
     37 N2        12.1245    7.8672   -4.7569 N.pl3     1 RES1    0.0000
     38 O3        13.0836    8.5431   -4.4380 O.2       1 RES1    0.0000
     39 O4        11.7392    7.7152   -5.9231 O.2       1 RES1    0.0000
     40 N3         8.0843    4.2828   16.4287 N.3       2 RES2    0.0000
     41 C16        9.0774    5.3396   16.6231 C.3       2 RES2    0.0000
     42 H19        9.6092    5.1243   17.3931 H         2 RES2    0.0000
     43 H20        8.6368    6.1782   16.7801 H         2 RES2    0.0000
     44 C17        9.9139    5.4292   15.4420 C.3       2 RES2    0.0000
     45 H21       10.4163    4.6178   15.3398 H         2 RES2    0.0000
     46 H22       10.5324    6.1578   15.5342 H         2 RES2    0.0000
     47 C18        9.0588    5.6639   14.1886 C.3       2 RES2    0.0000
     48 H23        9.6060    5.6931   13.3986 H         2 RES2    0.0000
     49 H24        8.6031    6.5045   14.2683 H         2 RES2    0.0000
     50 C19        7.9950    4.5750   14.0565 C.3       2 RES2    0.0000
     51 H25        8.4112    3.7227   13.9095 H         2 RES2    0.0000
     52 C20        7.1780    4.5311   15.3099 C.3       2 RES2    0.0000
     53 H26        6.7355    5.3766   15.4145 H         2 RES2    0.0000
     54 C21        6.1661    3.4432   15.4395 C.3       2 RES2    0.0000
     55 H27        6.4732    2.6844   14.9361 H         2 RES2    0.0000
     56 H28        5.3045    3.7052   15.1056 H         2 RES2    0.0000
     57 C22        6.0934    3.1305   16.9545 C.3       2 RES2    0.0000
     58 H29        6.3067    2.2081   17.1115 H         2 RES2    0.0000
     59 H30        5.2180    3.3117   17.3034 H         2 RES2    0.0000
     60 C23        7.1808    4.0285   17.5650 C.3       2 RES2    0.0000
     61 H31        6.7836    4.8380   17.8939 H         2 RES2    0.0000
     62 H32        7.6499    3.5912   18.2777 H         2 RES2    0.0000
     63 O5         7.0685    4.8818   12.9526 O.3       2 RES2    0.0000
     64 C24        7.3470    4.4445   11.7515 C.2       2 RES2    0.0000
     65 O6         8.2199    3.6019   11.5422 O.2       2 RES2    0.0000
     66 C25        6.4609    4.9334   10.6925 C.ar      2 RES2    0.0000
     67 C26        6.6089    4.5331    9.4192 C.ar      2 RES2    0.0000
     68 H33        7.2666    3.8581    9.2373 H         2 RES2    0.0000
     69 C27        5.8437    5.0454    8.3826 C.ar      2 RES2    0.0000
     70 H34        5.9670    4.7659    7.4730 H         2 RES2    0.0000
     71 C28        4.8800    5.9737    8.7414 C.ar      2 RES2    0.0000
     72 C29        4.6030    6.3798   10.0471 C.ar      2 RES2    0.0000
     73 H35        3.9014    7.0003   10.2564 H         2 RES2    0.0000
     74 C30        5.4060    5.7993   11.0314 C.ar      2 RES2    0.0000
     75 H36        5.2407    5.9970   11.9559 H         2 RES2    0.0000
     76 N4         4.0594    6.5970    7.6799 N.pl3     2 RES2    0.0000
     77 O7         3.1658    7.3860    7.9888 O.2       2 RES2    0.0000
     78 O8         4.3603    6.3253    6.4987 O.2       2 RES2    0.0000
@<TRIPOS>BOND
     1    1    2 1
     2    2    3 1
     3    4    2 1
     4    5    2 1
     5    6    5 1
     6    7    5 1
     7    8    5 1
     8    9    8 1
     9   10    8 1
    10   11    8 1
    11   12   11 1
    12   13    1 1
    13   14   13 1
    14   15   13 1
    15   16   15 1
    16   17   15 1
    17   18   15 1
    18   19   18 1
    19   20   18 1
    20   21    1 1
    21   22   21 1
    22   23   21 1
    23   24   11 1
    24   25   24 1
    25   26   25 2
    26   27   25 1
    27   28   27 ar
    28   29   28 1
    29   30   28 ar
    30   31   30 1
    31   32   30 ar
    32   33   32 ar
    33   34   33 1
    34   35   27 ar
    35   36   35 1
    36   37   32 1
    37   38   37 2
    38   39   37 2
    39   40   41 1
    40   41   42 1
    41   43   41 1
    42   44   41 1
    43   45   44 1
    44   46   44 1
    45   47   44 1
    46   48   47 1
    47   49   47 1
    48   50   47 1
    49   51   50 1
    50   52   40 1
    51   53   52 1
    52   54   52 1
    53   55   54 1
    54   56   54 1
    55   57   54 1
    56   58   57 1
    57   59   57 1
    58   60   40 1
    59   61   60 1
    60   62   60 1
    61   63   50 1
    62   64   63 1
    63   65   64 2
    64   66   64 1
    65   67   66 ar
    66   68   67 1
    67   69   67 ar
    68   70   69 1
    69   71   69 ar
    70   72   71 ar
    71   73   72 1
    72   74   66 ar
    73   75   74 1
    74   76   71 1
    75   77   76 2
    76   78   76 2
    77   11   13 1
    78   18   21 1
    79   33   35 ar
    80   50   52 1
    81   57   60 1
    82   72   74 ar
@<TRIPOS>SUBSTRUCTURE
     1 RES1 1
     2 RES2 40

@<TRIPOS>CRYSIN
  12.0635    9.7402   25.1880  90.0000  98.3900  90.0000   5 1

