# MOL2 file generated by ConQuest
# Please check atom types

@<TRIPOS>MOLECULE
NEQFAS
    47    49     1
SMALL
NO_CHARGES
****
Generated from CSD

@<TRIPOS>ATOM
      1 N1         5.2063   10.3669   19.9302 N.pl3     1 RES1    0.0000
      2 C1         6.4411   11.0155   19.4398 C.3       1 RES1    0.0000
      3 H1         7.1658   10.3554   19.4444 H         1 RES1    0.0000
      4 C2         6.7231   12.0557   20.5134 C.3       1 RES1    0.0000
      5 H2         7.6750   12.2239   20.5953 H         1 RES1    0.0000
      6 H3         6.2697   12.8913   20.3175 H         1 RES1    0.0000
      7 C3         6.1721   11.4176   21.7675 C.3       1 RES1    0.0000
      8 H4         6.0139   12.0798   22.4585 H         1 RES1    0.0000
      9 H5         6.7756   10.7398   22.1096 H         1 RES1    0.0000
     10 C4         4.8726   10.8024   21.2925 C.3       1 RES1    0.0000
     11 H6         4.6143   10.0505   21.8485 H         1 RES1    0.0000
     12 H7         4.1552   11.4552   21.2867 H         1 RES1    0.0000
     13 C5         6.2476   11.5210   18.0006 C.3       1 RES1    0.0000
     14 H8         5.9598   10.7711   17.4391 H         1 RES1    0.0000
     15 N2         7.5020   12.0557   17.4636 N.am      1 RES1    0.0000
     16 C6         7.3954   13.4563   17.0521 C.3       1 RES1    0.0000
     17 H9         7.3774   13.5325   16.0856 H         1 RES1    0.0000
     18 H10        8.1399   13.9754   17.3953 H         1 RES1    0.0000
     19 C7         6.1024   13.9179   17.6480 C.3       1 RES1    0.0000
     20 H11        5.6605   14.5477   17.0569 H         1 RES1    0.0000
     21 H12        6.2574   14.3503   18.5044 H         1 RES1    0.0000
     22 C8         5.2555   12.6699   17.8287 C.3       1 RES1    0.0000
     23 H13        4.6947   12.5236   17.0506 H         1 RES1    0.0000
     24 H14        4.6890   12.7513   18.6109 H         1 RES1    0.0000
     25 C9         4.6086    9.2880   19.3307 C.ar      1 RES1    0.0000
     26 C10        5.2932    8.1997   18.7601 C.ar      1 RES1    0.0000
     27 C11        4.6726    7.2180   18.0209 C.ar      1 RES1    0.0000
     28 H15        5.1735    6.5485   17.6125 H         1 RES1    0.0000
     29 C12        3.3181    7.2389   17.8941 C.ar      1 RES1    0.0000
     30 C13        2.5507    8.1977   18.5234 C.ar      1 RES1    0.0000
     31 H16        1.6217    8.1705   18.4835 H         1 RES1    0.0000
     32 C14        3.1959    9.1836   19.2054 C.ar      1 RES1    0.0000
     33 C15        8.4941   11.2066   17.0803 C.2       1 RES1    0.0000
     34 C16        9.6468   11.8281   16.3402 C.3       1 RES1    0.0000
     35 H17       10.3691   11.1972   16.2841 H         1 RES1    0.0000
     36 H18        9.9428   12.6124   16.8083 H         1 RES1    0.0000
     37 H19        9.3656   12.0704   15.4548 H         1 RES1    0.0000
     38 O1         7.1289    8.3021   20.1675 O.2       1 RES1    0.0000
     39 O2         7.3356    7.1929   18.3440 O.2       1 RES1    0.0000
     40 O3         3.3829    5.3819   16.5316 O.2       1 RES1    0.0000
     41 O4         1.4586    6.1339   17.0851 O.2       1 RES1    0.0000
     42 O5         2.4621   11.3696   19.3332 O.2       1 RES1    0.0000
     43 O6         1.5529    9.9220   20.6500 O.2       1 RES1    0.0000
     44 O7         8.4317   10.0045   17.3186 O.2       1 RES1    0.0000
     45 N3         6.7034    7.9094   19.1018 N.pl3     1 RES1    0.0000
     46 N4         2.6638    6.1746   17.1183 N.pl3     1 RES1    0.0000
     47 N5         2.3424   10.2458   19.7825 N.pl3     1 RES1    0.0000
@<TRIPOS>BOND
     1    1    2 1
     2    2    3 1
     3    4    2 1
     4    5    4 1
     5    6    4 1
     6    7    4 1
     7    8    7 1
     8    9    7 1
     9   10    1 1
    10   11   10 1
    11   12   10 1
    12   13    2 1
    13   14   13 1
    14   15   13 1
    15   16   15 1
    16   17   16 1
    17   18   16 1
    18   19   16 1
    19   20   19 1
    20   21   19 1
    21   22   13 1
    22   23   22 1
    23   24   22 1
    24   25    1 1
    25   26   25 ar
    26   27   26 ar
    27   28   27 1
    28   29   27 ar
    29   30   29 ar
    30   31   30 1
    31   32   25 ar
    32   33   15 1
    33   34   33 1
    34   35   34 1
    35   36   34 1
    36   37   34 1
    37   38   45 2
    38   39   45 2
    39   40   46 2
    40   41   46 2
    41   42   47 2
    42   43   47 2
    43   44   33 2
    44   45   26 1
    45   46   29 1
    46   47   32 1
    47    7   10 1
    48   19   22 1
    49   30   32 ar
@<TRIPOS>SUBSTRUCTURE
     1 RES1 1

@<TRIPOS>CRYSIN
   8.1989   10.4442   20.8877  90.0000  90.0000  90.0000  19 1

