# MOL2 file generated by ConQuest
# Please check atom types

@<TRIPOS>MOLECULE
NEQGOH
    38    40     1
SMALL
NO_CHARGES
****
Generated from CSD

@<TRIPOS>ATOM
      1 O1         5.3488    8.4163   -2.4402 O.3       1 RES1    0.0000
      2 O2         7.1593   13.6279   -2.6456 O.3       1 RES1    0.0000
      3 O3         3.1920    5.2119    3.7083 O.2       1 RES1    0.0000
      4 O4         3.5638    5.4113    1.6099 O.2       1 RES1    0.0000
      5 N1         5.3141    9.7831   -0.2306 N.pl3     1 RES1    0.0000
      6 H1         5.1407    8.9507   -0.4023 H         1 RES1    0.0000
      7 N2         5.4056   11.4999    1.3112 N.ar      1 RES1    0.0000
      8 N3         4.8927   11.2005    3.6262 N.ar      1 RES1    0.0000
      9 N4         3.5291    5.8670    2.7385 N.pl3     1 RES1    0.0000
     10 C1         5.8140    9.7064   -2.5527 C.ar      1 RES1    0.0000
     11 C2         6.2692   10.2961   -3.7224 C.ar      1 RES1    0.0000
     12 H2         6.2771    9.8053   -4.5118 H         1 RES1    0.0000
     13 C3         6.7085   11.6013   -3.7277 C.ar      1 RES1    0.0000
     14 H3         7.0141   11.9867   -4.5171 H         1 RES1    0.0000
     15 C4         6.6967   12.3342   -2.5658 C.ar      1 RES1    0.0000
     16 C5         6.2398   11.7675   -1.3826 C.ar      1 RES1    0.0000
     17 H4         6.2307   12.2675   -0.5992 H         1 RES1    0.0000
     18 C6         5.7980   10.4552   -1.3733 C.ar      1 RES1    0.0000
     19 C7         5.1449   10.2375    1.0360 C.ar      1 RES1    0.0000
     20 C8         5.2657   11.8935    2.5894 C.ar      1 RES1    0.0000
     21 H5         5.4628   12.7869    2.7556 H         1 RES1    0.0000
     22 C9         4.5692    9.8977    3.3590 C.ar      1 RES1    0.0000
     23 C10        4.1156    9.0974    4.4267 C.ar      1 RES1    0.0000
     24 H6         4.0464    9.4649    5.2781 H         1 RES1    0.0000
     25 C11        3.7772    7.7973    4.2302 C.ar      1 RES1    0.0000
     26 H7         3.4780    7.2716    4.9365 H         1 RES1    0.0000
     27 C12        3.8876    7.2681    2.9434 C.ar      1 RES1    0.0000
     28 C13        4.3166    7.9994    1.8712 C.ar      1 RES1    0.0000
     29 H8         4.3706    7.6134    1.0271 H         1 RES1    0.0000
     30 C14        4.6736    9.3426    2.0655 C.ar      1 RES1    0.0000
     31 C15        5.4248    7.5973   -3.6017 C.3       1 RES1    0.0000
     32 H9         5.1096    6.7143   -3.3921 H         1 RES1    0.0000
     33 H10        6.3357    7.5484   -3.8998 H         1 RES1    0.0000
     34 H11        4.8796    7.9746   -4.2957 H         1 RES1    0.0000
     35 C16        7.1422   14.3894   -1.4433 C.3       1 RES1    0.0000
     36 H12        7.5023   15.2630   -1.6125 H         1 RES1    0.0000
     37 H13        7.6736   13.9477   -0.7770 H         1 RES1    0.0000
     38 H14        6.2388   14.4710   -1.1293 H         1 RES1    0.0000
@<TRIPOS>BOND
     1    1   10 1
     2    2   15 1
     3    3    9 2
     4    4    9 2
     5    5    6 1
     6    7   19 ar
     7    8   20 ar
     8    9   27 1
     9   10   11 ar
    10   11   12 1
    11   13   11 ar
    12   14   13 1
    13   15   13 ar
    14   16   15 ar
    15   17   16 1
    16   18    5 1
    17   19    5 1
    18   20    7 ar
    19   21   20 1
    20   22    8 ar
    21   23   22 ar
    22   24   23 1
    23   25   23 ar
    24   26   25 1
    25   27   25 ar
    26   28   27 ar
    27   29   28 1
    28   30   19 ar
    29   31    1 1
    30   32   31 1
    31   33   31 1
    32   34   31 1
    33   35    2 1
    34   36   35 1
    35   37   35 1
    36   38   35 1
    37   10   18 ar
    38   16   18 ar
    39   22   30 ar
    40   28   30 ar
@<TRIPOS>SUBSTRUCTURE
     1 RES1 1

@<TRIPOS>CRYSIN
   7.2440   10.2832   11.1622  72.4750  83.6630  70.4290   2 1

