# MOL2 file generated by ConQuest
# Please check atom types

@<TRIPOS>MOLECULE
NEQHOJ
   272   284     4
SMALL
NO_CHARGES
****
Generated from CSD

@<TRIPOS>ATOM
      1 O1        13.3384   -6.4789   24.2364 O.2       1 RES1    0.0000
      2 O2        17.6184   -8.1559   22.7585 O.3       1 RES1    0.0000
      3 O3        11.0193  -12.8305   21.8424 O.3       1 RES1    0.0000
      4 O4        14.5562   -5.2748   21.3477 O.2       1 RES1    0.0000
      5 O5        14.9519   -7.4629   20.8744 O.3       1 RES1    0.0000
      6 O6        19.0775  -11.6810   17.2956 O.2       1 RES1    0.0000
      7 O7        18.7791  -13.2780   18.6850 O.2       1 RES1    0.0000
      8 O8        17.6740   -6.4917   21.1828 O.2       1 RES1    0.0000
      9 O9        19.4659   -7.7267   21.8332 O.3       1 RES1    0.0000
     10 N1        14.5510   -8.4197   24.5143 N.am      1 RES1    0.0000
     11 N2        18.6284  -12.1375   18.3246 N.pl3     1 RES1    0.0000
     12 C1        14.3414   -7.2301   24.0104 C.2       1 RES1    0.0000
     13 C2        15.4135   -6.7863   23.0760 C.3       1 RES1    0.0000
     14 C3        16.1693   -8.1268   22.8501 C.3       1 RES1    0.0000
     15 C4        15.7923   -9.0290   24.0104 C.3       1 RES1    0.0000
     16 H1        15.5760   -9.9367   23.6501 H         1 RES1    0.0000
     17 C5        16.8864   -9.1873   25.1494 C.3       1 RES1    0.0000
     18 H2        17.3100   -8.3015   25.2838 H         1 RES1    0.0000
     19 H3        16.4134   -9.4128   25.9922 H         1 RES1    0.0000
     20 C6        17.9335  -10.1513   24.9632 C.3       1 RES1    0.0000
     21 H4        18.5485   -9.8439   24.2364 H         1 RES1    0.0000
     22 C7        18.7464  -10.3004   26.3220 C.3       1 RES1    0.0000
     23 H5        19.0852   -9.4219   26.5968 H         1 RES1    0.0000
     24 H6        18.1551  -10.6533   27.0182 H         1 RES1    0.0000
     25 H7        19.4966  -10.9152   26.1877 H         1 RES1    0.0000
     26 C8        17.4871  -11.5482   24.6822 C.3       1 RES1    0.0000
     27 H8        18.2712  -12.1248   24.5693 H         1 RES1    0.0000
     28 H9        16.9453  -11.8738   25.4304 H         1 RES1    0.0000
     29 H10       16.9531  -11.5609   23.8608 H         1 RES1    0.0000
     30 C9        13.5306   -9.1363   25.2930 C.3       1 RES1    0.0000
     31 H11       12.8731   -8.4888   25.6502 H         1 RES1    0.0000
     32 H12       13.9594   -9.5929   26.0594 H         1 RES1    0.0000
     33 C10       12.8312  -10.1349   24.4532 C.ar      1 RES1    0.0000
     34 C11       11.8478   -9.6602   23.5982 C.ar      1 RES1    0.0000
     35 H13       11.6194   -8.7380   23.5982 H         1 RES1    0.0000
     36 C12       11.1884  -10.5587   22.7310 C.ar      1 RES1    0.0000
     37 H14       10.4992  -10.2240   22.1722 H         1 RES1    0.0000
     38 C13       11.4929  -11.8629   22.6669 C.ar      1 RES1    0.0000
     39 C14       12.5159  -12.3758   23.5310 C.ar      1 RES1    0.0000
     40 H15       12.7484  -13.2962   23.5402 H         1 RES1    0.0000
     41 C15       13.1486  -11.4482   24.3555 C.ar      1 RES1    0.0000
     42 H16       13.8609  -11.7646   24.8990 H         1 RES1    0.0000
     43 C16        9.8822  -12.3994   21.0576 C.3       1 RES1    0.0000
     44 H17        9.5825  -13.1343   20.4866 H         1 RES1    0.0000
     45 H18        9.1529  -12.1339   21.6592 H         1 RES1    0.0000
     46 H19       10.1397  -11.6355   20.5019 H         1 RES1    0.0000
     47 C17       14.9703   -6.4280   21.7111 C.2       1 RES1    0.0000
     48 C18       15.4376   -8.6398   21.5554 C.3       1 RES1    0.0000
     49 H20       14.6427   -9.1709   21.8485 H         1 RES1    0.0000
     50 C19       16.2889   -9.5329   20.6545 C.ar      1 RES1    0.0000
     51 C20       16.9070   -9.0472   19.4972 C.ar      1 RES1    0.0000
     52 H21       16.7951   -8.1432   19.2316 H         1 RES1    0.0000
     53 C21       17.6823   -9.9112   18.7521 C.ar      1 RES1    0.0000
     54 H22       18.1214   -9.6092   17.9674 H         1 RES1    0.0000
     55 C22       17.8059  -11.1899   19.1522 C.ar      1 RES1    0.0000
     56 C23       17.1720  -11.7719   20.2576 C.ar      1 RES1    0.0000
     57 H23       17.2743  -12.6832   20.5019 H         1 RES1    0.0000
     58 C24       16.3666  -10.8697   20.9691 C.ar      1 RES1    0.0000
     59 H24       15.8541  -11.1953   21.6989 H         1 RES1    0.0000
     60 C25       16.2309   -5.6404   23.7326 C.3       1 RES1    0.0000
     61 H25       16.5085   -5.9114   24.6334 H         1 RES1    0.0000
     62 H26       17.0251   -5.4512   23.1921 H         1 RES1    0.0000
     63 H27       15.6766   -4.8328   23.7906 H         1 RES1    0.0000
     64 C26       18.2233   -7.3665   21.8760 C.2       1 RES1    0.0000
     65 C27       20.3276   -7.0046   20.8683 C.3       1 RES1    0.0000
     66 H28       21.2402   -7.3556   20.9202 H         1 RES1    0.0000
     67 H29       19.9799   -7.1301   19.9614 H         1 RES1    0.0000
     68 H30       20.3329   -6.0497   21.0882 H         1 RES1    0.0000
     69 O10       17.4818    1.8898   12.8373 O.2       2 RES2    0.0000
     70 O11       13.6575    3.8597   14.9748 O.3       2 RES2    0.0000
     71 O12       20.3690    8.1996   14.8374 O.3       2 RES2    0.0000
     72 O13       16.5745    0.8258   15.8543 O.2       2 RES2    0.0000
     73 O14       16.5234    2.9830   16.2696 O.3       2 RES2    0.0000
     74 O15       13.4430    9.1818   18.6086 O.2       2 RES2    0.0000
     75 O16       13.0719    7.6448   20.1446 O.2       2 RES2    0.0000
     76 O17       13.7526    2.2463   16.5902 O.2       2 RES2    0.0000
     77 O18       12.0341    3.6505   16.3612 O.3       2 RES2    0.0000
     78 N3        16.3310    3.8270   12.6969 N.am      2 RES2    0.0000
     79 N4        13.5428    8.0359   19.0514 N.pl3     2 RES2    0.0000
     80 C28       16.5814    2.5901   13.1915 C.2       2 RES2    0.0000
     81 C29       15.5097    2.2809   14.2267 C.3       2 RES2    0.0000
     82 C30       15.0108    3.7215   14.5870 C.3       2 RES2    0.0000
     83 C31       15.2261    4.5473   13.2251 C.3       2 RES2    0.0000
     84 H31       15.4992    5.4876   13.4328 H         2 RES2    0.0000
     85 C32       14.1025    4.5509   12.2663 C.3       2 RES2    0.0000
     86 H32       14.3763    3.9943   11.4968 H         2 RES2    0.0000
     87 H33       13.3477    4.0798   12.7030 H         2 RES2    0.0000
     88 C33       13.5986    5.7386   11.7533 C.3       2 RES2    0.0000
     89 H34       14.3751    5.9478   11.1609 H         2 RES2    0.0000
     90 C34       12.6136    5.5858   10.6906 C.3       2 RES2    0.0000
     91 H35       12.3162    6.4716   10.3914 H         2 RES2    0.0000
     92 H36       13.0155    5.1057    9.9395 H         2 RES2    0.0000
     93 H37       11.8449    5.0820   11.0296 H         2 RES2    0.0000
     94 C35       13.5875    6.9900   12.4617 C.3       2 RES2    0.0000
     95 H38       13.1852    7.6830   11.8999 H         2 RES2    0.0000
     96 H39       13.0651    6.8936   13.2862 H         2 RES2    0.0000
     97 H40       14.5072    7.2465   12.6877 H         2 RES2    0.0000
     98 C36       17.2381    4.6018   11.7869 C.3       2 RES2    0.0000
     99 H41       16.6930    5.1129   11.1365 H         2 RES2    0.0000
    100 H42       17.8115    3.9743   11.2800 H         2 RES2    0.0000
    101 C37       18.1353    5.5858   12.5961 C.ar      2 RES2    0.0000
    102 C38       19.1950    5.1711   13.3167 C.ar      2 RES2    0.0000
    103 H43       19.4272    4.2508   13.3045 H         2 RES2    0.0000
    104 C39       19.9161    6.0024   14.0466 C.ar      2 RES2    0.0000
    105 H44       20.6764    5.6968   14.5260 H         2 RES2    0.0000
    106 C40       19.5174    7.4066   14.0924 C.ar      2 RES2    0.0000
    107 C41       18.4043    7.8249   13.3778 C.ar      2 RES2    0.0000
    108 H45       18.1245    8.7307   13.4175 H         2 RES2    0.0000
    109 C42       17.7181    6.9318   12.6175 C.ar      2 RES2    0.0000
    110 H46       16.9642    7.2101   12.1106 H         2 RES2    0.0000
    111 C43       19.9067    9.5729   15.0084 C.3       2 RES2    0.0000
    112 H47       20.5568   10.0731   15.5428 H         2 RES2    0.0000
    113 H48       19.8085    9.9985   14.1321 H         2 RES2    0.0000
    114 H49       19.0398    9.5711   15.4665 H         2 RES2    0.0000
    115 C44       16.1937    1.8698   15.5153 C.2       2 RES2    0.0000
    116 C45       16.0307    4.1926   15.6192 C.3       2 RES2    0.0000
    117 H50       16.7940    4.6145   15.1306 H         2 RES2    0.0000
    118 C46       15.4863    5.1930   16.5780 C.ar      2 RES2    0.0000
    119 C47       15.4981    6.5499   16.2543 C.ar      2 RES2    0.0000
    120 H51       15.9303    6.8554   15.4665 H         2 RES2    0.0000
    121 C48       14.8597    7.4593   17.1124 C.ar      2 RES2    0.0000
    122 H52       14.8768    8.3869   16.9047 H         2 RES2    0.0000
    123 C49       14.2224    7.0428   18.2269 C.ar      2 RES2    0.0000
    124 C50       14.2813    5.7404   18.6453 C.ar      2 RES2    0.0000
    125 H53       13.8862    5.4858   19.4697 H         2 RES2    0.0000
    126 C51       14.9421    4.7673   17.8330 C.ar      2 RES2    0.0000
    127 H54       15.0192    3.8633   18.1170 H         2 RES2    0.0000
    128 C52       14.5978    1.1514   13.7473 C.3       2 RES2    0.0000
    129 H55       14.1576    1.4206   12.9137 H         2 RES2    0.0000
    130 H56       15.1311    0.3456   13.5885 H         2 RES2    0.0000
    131 H57       13.9191    0.9658   14.4283 H         2 RES2    0.0000
    132 C53       13.1897    3.1685   16.0375 C.2       2 RES2    0.0000
    133 C54       11.4569    3.1922   17.6345 C.3       2 RES2    0.0000
    134 H58       10.5882    3.6214   17.7719 H         2 RES2    0.0000
    135 H59       11.3416    2.2191   17.6071 H         2 RES2    0.0000
    136 H60       12.0591    3.4286   18.3705 H         2 RES2    0.0000
    137 O19       17.5923   11.0589   12.7457 O.2       3 RES3    0.0000
    138 O20       13.3635   12.7105   14.2542 O.3       3 RES3    0.0000
    139 O21       20.1449   17.3341   15.0512 O.3       3 RES3    0.0000
    140 O22       16.3442    9.9075   15.6253 O.2       3 RES3    0.0000
    141 O23       16.0249   12.0520   16.0894 O.3       3 RES3    0.0000
    142 O24       12.1891   17.9089   18.2514 O.2       3 RES3    0.0000
    143 O25       11.8419   16.3228   19.6407 O.2       3 RES3    0.0000
    144 O26       13.2946   11.0553   15.8085 O.2       3 RES3    0.0000
    145 O27       11.4957   12.2467   15.2008 O.3       3 RES3    0.0000
    146 N5        16.3077   12.9506   12.5075 N.am      3 RES3    0.0000
    147 N6        12.3096   16.7684   18.5903 N.pl3     3 RES3    0.0000
    148 C55       16.6198   11.7210   13.0144 C.2       3 RES3    0.0000
    149 C56       15.4119   11.3572   13.9091 C.3       3 RES3    0.0000
    150 C57       14.7493   12.6923   14.1718 C.3       3 RES3    0.0000
    151 C58       15.0795   13.6108   12.8740 C.3       3 RES3    0.0000
    152 H61       15.2749   14.5457   13.1671 H         3 RES3    0.0000
    153 C59       14.1696   13.6363   11.7991 C.3       3 RES3    0.0000
    154 H62       14.6298   13.1652   11.0571 H         3 RES3    0.0000
    155 H63       13.4244   13.0452   12.0739 H         3 RES3    0.0000
    156 C60       13.5158   14.8186   11.1609 C.3       3 RES3    0.0000
    157 H64       14.3230   15.0769   10.6326 H         3 RES3    0.0000
    158 C61       12.7224   14.7913   10.1288 C.3       3 RES3    0.0000
    159 H65       12.4316   15.7026    9.9150 H         3 RES3    0.0000
    160 H66       13.2016   14.4130    9.3623 H         3 RES3    0.0000
    161 H67       11.9406   14.2365   10.3303 H         3 RES3    0.0000
    162 C62       13.5953   16.0627   12.1167 C.3       3 RES3    0.0000
    163 H68       13.1635   16.8303   11.6892 H         3 RES3    0.0000
    164 H69       13.1391   15.8572   12.9595 H         3 RES3    0.0000
    165 H70       14.5351   16.2737   12.2999 H         3 RES3    0.0000
    166 C63       17.3143   13.7272   11.7441 C.3       3 RES3    0.0000
    167 H71       16.8570   14.2311   11.0265 H         3 RES3    0.0000
    168 H72       17.9510   13.1015   11.3197 H         3 RES3    0.0000
    169 C64       18.0679   14.6822   12.5961 C.ar      3 RES3    0.0000
    170 C65       19.0916   14.2456   13.5366 C.ar      3 RES3    0.0000
    171 H73       19.3339   13.3271   13.5549 H         3 RES3    0.0000
    172 C66       19.6929   15.0732   14.3580 C.ar      3 RES3    0.0000
    173 H74       20.3125   14.7440   14.9993 H         3 RES3    0.0000
    174 C67       19.4124   16.4483   14.2878 C.ar      3 RES3    0.0000
    175 C68       18.4433   16.9085   13.4145 C.ar      3 RES3    0.0000
    176 H75       18.1936   17.8234   13.4297 H         3 RES3    0.0000
    177 C69       17.8601   16.0773   12.5503 C.ar      3 RES3    0.0000
    178 H76       17.2834   16.4338   11.8877 H         3 RES3    0.0000
    179 C70       21.0038   16.8976   16.0375 C.3       3 RES3    0.0000
    180 H77       21.4300   17.6706   16.4650 H         3 RES3    0.0000
    181 H78       20.5031   16.3883   16.7062 H         3 RES3    0.0000
    182 H79       21.6927   16.3246   15.6375 H         3 RES3    0.0000
    183 C71       15.9486   10.9116   15.2741 C.2       3 RES3    0.0000
    184 C72       15.5032   13.2270   15.3993 C.3       3 RES3    0.0000
    185 H80       16.2906   13.7436   15.0603 H         3 RES3    0.0000
    186 C73       14.7492   14.1219   16.3001 C.ar      3 RES3    0.0000
    187 C74       14.6125   15.4898   15.9459 C.ar      3 RES3    0.0000
    188 H81       15.0557   15.8426   15.1825 H         3 RES3    0.0000
    189 C75       13.8146   16.3028   16.7490 C.ar      3 RES3    0.0000
    190 H82       13.7258   17.2177   16.5139 H         3 RES3    0.0000
    191 C76       13.1789   15.8663   17.8086 C.ar      3 RES3    0.0000
    192 C77       13.3231   14.5021   18.2086 C.ar      3 RES3    0.0000
    193 H83       12.9328   14.1856   19.0148 H         3 RES3    0.0000
    194 C78       14.0509   13.6581   17.3872 C.ar      3 RES3    0.0000
    195 H84       14.0681   12.7287   17.5796 H         3 RES3    0.0000
    196 C79       14.6593   10.1640   13.1885 C.3       3 RES3    0.0000
    197 H85       14.3219   10.4678   12.3213 H         3 RES3    0.0000
    198 H86       15.2798    9.4183   13.0572 H         3 RES3    0.0000
    199 H87       13.9075    9.8694   13.7442 H         3 RES3    0.0000
    200 C80       12.7733   11.9138   15.2069 C.2       3 RES3    0.0000
    201 C81       10.6942   11.5209   16.1749 C.3       3 RES3    0.0000
    202 H88        9.7620   11.8156   16.1169 H         3 RES3    0.0000
    203 H89       10.7447   10.5587   15.9917 H         3 RES3    0.0000
    204 H90       11.0373   11.6973   17.0757 H         3 RES3    0.0000
    205 O28       13.6153    2.7029   24.2150 O.2       4 RES4    0.0000
    206 O29       17.4426    0.6584   22.0134 O.3       4 RES4    0.0000
    207 O30       10.7653   -3.6032   22.0561 O.3       4 RES4    0.0000
    208 O31       14.4762    3.7797   21.1614 O.2       4 RES4    0.0000
    209 O32       14.5143    1.5424   20.7339 O.3       4 RES4    0.0000
    210 O33       17.9461   -3.1904   16.9108 O.2       4 RES4    0.0000
    211 O34       17.5373   -4.6891   18.3796 O.2       4 RES4    0.0000
    212 O35       17.2915    2.2845   20.4194 O.2       4 RES4    0.0000
    213 O36       19.0263    0.8512   20.6179 O.3       4 RES4    0.0000
    214 N7        14.7601    0.6657   24.3463 N.am      4 RES4    0.0000
    215 N8        17.4818   -3.5378   17.9521 N.pl3     4 RES4    0.0000
    216 C82       14.5254    1.8771   23.8700 C.2       4 RES4    0.0000
    217 C83       15.5260    2.2700   22.7432 C.3       4 RES4    0.0000
    218 C84       16.0692    0.8331   22.4898 C.3       4 RES4    0.0000
    219 C85       15.9024    0.0127   23.7265 C.3       4 RES4    0.0000
    220 H91       15.6499   -0.9204   23.4730 H         4 RES4    0.0000
    221 C86       17.1907   -0.0327   24.6975 C.3       4 RES4    0.0000
    222 H92       18.0085   -0.0582   24.1387 H         4 RES4    0.0000
    223 H93       17.2174    0.8003   25.2319 H         4 RES4    0.0000
    224 C87       17.2075   -1.2259   25.6472 C.3       4 RES4    0.0000
    225 H94       16.3550   -1.2714   26.1663 H         4 RES4    0.0000
    226 C88       18.4256   -1.0732   26.6121 C.3       4 RES4    0.0000
    227 H95       18.3247   -0.2528   27.1373 H         4 RES4    0.0000
    228 H96       18.4639   -1.8462   27.2137 H         4 RES4    0.0000
    229 H97       19.2524   -1.0259   26.0899 H         4 RES4    0.0000
    230 C89       17.4264   -2.5355   24.8471 C.3       4 RES4    0.0000
    231 H98       16.6803   -2.6665   24.2242 H         4 RES4    0.0000
    232 H99       18.2638   -2.4737   24.3402 H         4 RES4    0.0000
    233 H100      17.4747   -3.2922   25.4670 H         4 RES4    0.0000
    234 C90       13.7671    0.0600   25.2319 C.3       4 RES4    0.0000
    235 H101      13.1501    0.7567   25.5708 H         4 RES4    0.0000
    236 H102      14.2187   -0.3583   26.0075 H         4 RES4    0.0000
    237 C91       12.9620   -1.0259   24.4318 C.ar      4 RES4    0.0000
    238 C92       11.9866   -0.5529   23.5738 C.ar      4 RES4    0.0000
    239 H103      11.7974    0.3783   23.5402 H         4 RES4    0.0000
    240 C93       11.2613   -1.4551   22.7432 C.ar      4 RES4    0.0000
    241 H104      10.6233   -1.1223   22.1233 H         4 RES4    0.0000
    242 C94       11.4747   -2.7502   22.8348 C.ar      4 RES4    0.0000
    243 C95       12.4670   -3.2667   23.6929 C.ar      4 RES4    0.0000
    244 H105      12.6312   -4.2017   23.7417 H         4 RES4    0.0000
    245 C96       13.2272   -2.3409   24.4929 C.ar      4 RES4    0.0000
    246 H106      13.9139   -2.6611   25.0670 H         4 RES4    0.0000
    247 C97       11.0401   -5.0093   22.0012 C.3       4 RES4    0.0000
    248 H107      10.4152   -5.4403   21.3813 H         4 RES4    0.0000
    249 H108      11.9584   -5.1493   21.6867 H         4 RES4    0.0000
    250 H109      10.9373   -5.3967   22.8928 H         4 RES4    0.0000
    251 C98       14.8045    2.6356   21.5004 C.2       4 RES4    0.0000
    252 C99       15.0237    0.3474   21.3966 C.3       4 RES4    0.0000
    253 H110      14.2590   -0.0746   21.8821 H         4 RES4    0.0000
    254 C100      15.5013   -0.6584   20.3309 C.ar      4 RES4    0.0000
    255 C101      16.0570   -0.2728   19.1430 C.ar      4 RES4    0.0000
    256 H111      16.0010    0.6312   18.8560 H         4 RES4    0.0000
    257 C102      16.7072   -1.2241   18.3613 C.ar      4 RES4    0.0000
    258 H112      17.1378   -0.9767   17.5490 H         4 RES4    0.0000
    259 C103      16.7089   -2.5101   18.7857 C.ar      4 RES4    0.0000
    260 C104      16.1198   -2.9648   19.9492 C.ar      4 RES4    0.0000
    261 H113      16.1360   -3.8834   20.1934 H         4 RES4    0.0000
    262 C105      15.4970   -1.9917   20.7461 C.ar      4 RES4    0.0000
    263 H114      15.0772   -2.2372   21.5615 H         4 RES4    0.0000
    264 C106      16.5066    3.3122   23.2715 C.3       4 RES4    0.0000
    265 H115      16.9306    2.9757   24.0898 H         4 RES4    0.0000
    266 H116      17.1955    3.4850   22.5966 H         4 RES4    0.0000
    267 H117      16.0267    4.1416   23.4700 H         4 RES4    0.0000
    268 C107      17.8258    1.3296   20.9416 C.2       4 RES4    0.0000
    269 C108      19.6838    1.4169   19.4484 C.3       4 RES4    0.0000
    270 H118      20.5529    0.9804   19.3201 H         4 RES4    0.0000
    271 H119      19.1262    1.2714   18.6575 H         4 RES4    0.0000
    272 H120      19.8172    2.3773   19.5827 H         4 RES4    0.0000
@<TRIPOS>BOND
     1    1   12 2
     2    2   14 1
     3    3   38 1
     4    4   47 2
     5    5   47 1
     6    6   11 2
     7    7   11 2
     8    8   64 2
     9    9   64 1
    10   10   12 1
    11   11   55 1
    12   12   13 1
    13   13   14 1
    14   14   15 1
    15   15   10 1
    16   16   15 1
    17   17   15 1
    18   18   17 1
    19   19   17 1
    20   20   17 1
    21   21   20 1
    22   22   20 1
    23   23   22 1
    24   24   22 1
    25   25   22 1
    26   26   20 1
    27   27   26 1
    28   28   26 1
    29   29   26 1
    30   30   10 1
    31   31   30 1
    32   32   30 1
    33   33   30 1
    34   34   33 ar
    35   35   34 1
    36   36   34 ar
    37   37   36 1
    38   38   36 ar
    39   39   38 ar
    40   40   39 1
    41   41   33 ar
    42   42   41 1
    43   43    3 1
    44   44   43 1
    45   45   43 1
    46   46   43 1
    47   47   13 1
    48   48    5 1
    49   49   48 1
    50   50   48 1
    51   51   50 ar
    52   52   51 1
    53   53   51 ar
    54   54   53 1
    55   55   53 ar
    56   56   55 ar
    57   57   56 1
    58   58   50 ar
    59   59   58 1
    60   60   13 1
    61   61   60 1
    62   62   60 1
    63   63   60 1
    64   64    2 1
    65   65    9 1
    66   66   65 1
    67   67   65 1
    68   68   65 1
    69   69   80 2
    70   70   82 1
    71   71  106 1
    72   72  115 2
    73   73  115 1
    74   74   79 2
    75   75   79 2
    76   76  132 2
    77   77  132 1
    78   78   80 1
    79   79  123 1
    80   80   81 1
    81   81   82 1
    82   82   83 1
    83   83   78 1
    84   84   83 1
    85   85   83 1
    86   86   85 1
    87   87   85 1
    88   88   85 1
    89   89   88 1
    90   90   88 1
    91   91   90 1
    92   92   90 1
    93   93   90 1
    94   94   88 1
    95   95   94 1
    96   96   94 1
    97   97   94 1
    98   98   78 1
    99   99   98 1
   100  100   98 1
   101  101   98 1
   102  102  101 ar
   103  103  102 1
   104  104  102 ar
   105  105  104 1
   106  106  104 ar
   107  107  106 ar
   108  108  107 1
   109  109  101 ar
   110  110  109 1
   111  111   71 1
   112  112  111 1
   113  113  111 1
   114  114  111 1
   115  115   81 1
   116  116   73 1
   117  117  116 1
   118  118  116 1
   119  119  118 ar
   120  120  119 1
   121  121  119 ar
   122  122  121 1
   123  123  121 ar
   124  124  123 ar
   125  125  124 1
   126  126  118 ar
   127  127  126 1
   128  128   81 1
   129  129  128 1
   130  130  128 1
   131  131  128 1
   132  132   70 1
   133  133   77 1
   134  134  133 1
   135  135  133 1
   136  136  133 1
   137  137  148 2
   138  138  150 1
   139  139  174 1
   140  140  183 2
   141  141  183 1
   142  142  147 2
   143  143  147 2
   144  144  200 2
   145  145  200 1
   146  146  148 1
   147  147  191 1
   148  148  149 1
   149  149  150 1
   150  150  151 1
   151  151  146 1
   152  152  151 1
   153  153  151 1
   154  154  153 1
   155  155  153 1
   156  156  153 1
   157  157  156 1
   158  158  156 1
   159  159  158 1
   160  160  158 1
   161  161  158 1
   162  162  156 1
   163  163  162 1
   164  164  162 1
   165  165  162 1
   166  166  146 1
   167  167  166 1
   168  168  166 1
   169  169  166 1
   170  170  169 ar
   171  171  170 1
   172  172  170 ar
   173  173  172 1
   174  174  172 ar
   175  175  174 ar
   176  176  175 1
   177  177  169 ar
   178  178  177 1
   179  179  139 1
   180  180  179 1
   181  181  179 1
   182  182  179 1
   183  183  149 1
   184  184  141 1
   185  185  184 1
   186  186  184 1
   187  187  186 ar
   188  188  187 1
   189  189  187 ar
   190  190  189 1
   191  191  189 ar
   192  192  191 ar
   193  193  192 1
   194  194  186 ar
   195  195  194 1
   196  196  149 1
   197  197  196 1
   198  198  196 1
   199  199  196 1
   200  200  138 1
   201  201  145 1
   202  202  201 1
   203  203  201 1
   204  204  201 1
   205  205  216 2
   206  206  218 1
   207  207  242 1
   208  208  251 2
   209  209  251 1
   210  210  215 2
   211  211  215 2
   212  212  268 2
   213  213  268 1
   214  214  216 1
   215  215  259 1
   216  216  217 1
   217  217  218 1
   218  218  219 1
   219  219  214 1
   220  220  219 1
   221  221  219 1
   222  222  221 1
   223  223  221 1
   224  224  221 1
   225  225  224 1
   226  226  224 1
   227  227  226 1
   228  228  226 1
   229  229  226 1
   230  230  224 1
   231  231  230 1
   232  232  230 1
   233  233  230 1
   234  234  214 1
   235  235  234 1
   236  236  234 1
   237  237  234 1
   238  238  237 ar
   239  239  238 1
   240  240  238 ar
   241  241  240 1
   242  242  240 ar
   243  243  242 ar
   244  244  243 1
   245  245  237 ar
   246  246  245 1
   247  247  207 1
   248  248  247 1
   249  249  247 1
   250  250  247 1
   251  251  217 1
   252  252  209 1
   253  253  252 1
   254  254  252 1
   255  255  254 ar
   256  256  255 1
   257  257  255 ar
   258  258  257 1
   259  259  257 ar
   260  260  259 ar
   261  261  260 1
   262  262  254 ar
   263  263  262 1
   264  264  217 1
   265  265  264 1
   266  266  264 1
   267  267  264 1
   268  268  206 1
   269  269  213 1
   270  270  269 1
   271  271  269 1
   272  272  269 1
   273   14   48 1
   274   39   41 ar
   275   56   58 ar
   276   82  116 1
   277  107  109 ar
   278  124  126 ar
   279  150  184 1
   280  175  177 ar
   281  192  194 ar
   282  218  252 1
   283  243  245 ar
   284  260  262 ar
@<TRIPOS>SUBSTRUCTURE
     1 RES1 1
     2 RES2 69
     3 RES3 137
     4 RES4 205

@<TRIPOS>CRYSIN
  18.7210   18.1890   30.9420  90.0000  99.2920  90.0000   9 1

