# MOL2 file generated by ConQuest
# Please check atom types

@<TRIPOS>MOLECULE
NEQPAC
    62    64     2
SMALL
NO_CHARGES
****
Generated from CSD

@<TRIPOS>ATOM
      1 O1         5.5222   -0.7198    6.4537 O.2       1 RES1    0.0000
      2 O2         4.6119   -1.3506    8.3064 O.2       1 RES1    0.0000
      3 O3         1.9746    0.5928    3.8987 O.2       1 RES1    0.0000
      4 O4         6.5473    0.8851    3.0140 O.2       1 RES1    0.0000
      5 O5         2.7397    1.1605    1.9094 O.3       1 RES1    0.0000
      6 O6         5.0471    1.3074    1.4582 O.3       1 RES1    0.0000
      7 N1         4.7169   -0.5661    7.3698 N.pl3     1 RES1    0.0000
      8 C1         3.7609    1.4065    6.2002 C.ar      1 RES1    0.0000
      9 C2         3.8538    0.6155    7.3511 C.ar      1 RES1    0.0000
     10 C3         3.1173    0.8711    8.4935 C.ar      1 RES1    0.0000
     11 H1         3.2049    0.3224    9.2396 H         1 RES1    0.0000
     12 C4         2.2522    1.9460    8.5180 C.ar      1 RES1    0.0000
     13 H2         1.7646    2.1412    9.2861 H         1 RES1    0.0000
     14 C5         2.1197    2.7295    7.3843 C.ar      1 RES1    0.0000
     15 H3         1.5261    3.4458    7.3886 H         1 RES1    0.0000
     16 C6         2.8561    2.4645    6.2456 C.ar      1 RES1    0.0000
     17 H4         2.7460    3.0034    5.4947 H         1 RES1    0.0000
     18 C7         4.6408    1.2576    5.0265 C.2       1 RES1    0.0000
     19 H5         5.5533    1.2327    5.2031 H         1 RES1    0.0000
     20 C8         4.2925    1.1537    3.7404 C.2       1 RES1    0.0000
     21 C9         2.9098    0.9622    3.2394 C.2       1 RES1    0.0000
     22 C10        5.4001    1.1179    2.7413 C.2       1 RES1    0.0000
     23 C11        3.7524    1.8827    1.1710 C.3       1 RES1    0.0000
     24 C12        3.5026    1.5998   -0.2797 C.3       1 RES1    0.0000
     25 H6         2.6719    2.0000   -0.5452 H         1 RES1    0.0000
     26 H7         3.4589    0.6504   -0.4178 H         1 RES1    0.0000
     27 H8         4.2173    1.9673   -0.8047 H         1 RES1    0.0000
     28 C13        3.7295    3.3440    1.5263 C.3       1 RES1    0.0000
     29 H9         2.8737    3.7157    1.2987 H         1 RES1    0.0000
     30 H10        4.4178    3.8027    1.0380 H         1 RES1    0.0000
     31 H11        3.8828    3.4470    2.4688 H         1 RES1    0.0000
     32 O7         1.4014    5.4706    4.1233 O.2       2 RES2    0.0000
     33 O8         0.3684    5.0355    5.9326 O.2       2 RES2    0.0000
     34 O9        -1.6110    6.2457    1.1410 O.2       2 RES2    0.0000
     35 O10        2.9484    6.9370    0.7221 O.2       2 RES2    0.0000
     36 O11       -0.7453    6.9528   -0.7560 O.3       2 RES2    0.0000
     37 O12        1.5874    7.2548   -0.9894 O.3       2 RES2    0.0000
     38 N2         0.4920    5.6742    4.9143 N.pl3     2 RES2    0.0000
     39 C14       -0.3467    7.5055    3.4802 C.ar      2 RES2    0.0000
     40 C15       -1.2968    8.4989    3.2904 C.ar      2 RES2    0.0000
     41 H12       -1.2410    9.0397    2.5367 H         2 RES2    0.0000
     42 C16       -2.3263    8.7065    4.1932 C.ar      2 RES2    0.0000
     43 H13       -2.9477    9.3813    4.0413 H         2 RES2    0.0000
     44 C17       -2.4317    7.9126    5.3209 C.ar      2 RES2    0.0000
     45 H14       -3.1245    8.0510    5.9257 H         2 RES2    0.0000
     46 C18       -1.5071    6.9171    5.5441 C.ar      2 RES2    0.0000
     47 H15       -1.5722    6.3735    6.2959 H         2 RES2    0.0000
     48 C19       -0.4781    6.7347    4.6347 C.ar      2 RES2    0.0000
     49 C20        0.7563    7.3639    2.5058 C.2       2 RES2    0.0000
     50 H16        1.6227    7.4673    2.8271 H         2 RES2    0.0000
     51 C21        0.6169    7.1008    1.2063 C.2       2 RES2    0.0000
     52 C22        1.8281    7.1005    0.3321 C.2       2 RES2    0.0000
     53 C23       -0.6756    6.7431    0.5754 C.2       2 RES2    0.0000
     54 C24        0.2899    7.7379   -1.3958 C.3       2 RES2    0.0000
     55 C25        0.1404    9.1954   -1.0481 C.3       2 RES2    0.0000
     56 H17       -0.7200    9.5069   -1.3392 H         2 RES2    0.0000
     57 H18        0.8289    9.7013   -1.4868 H         2 RES2    0.0000
     58 H19        0.2171    9.3071   -0.0976 H         2 RES2    0.0000
     59 C26        0.1673    7.4569   -2.8602 C.3       2 RES2    0.0000
     60 H20       -0.7190    7.6778   -3.1557 H         2 RES2    0.0000
     61 H21        0.3354    6.5254   -3.0223 H         2 RES2    0.0000
     62 H22        0.8067    7.9868   -3.3426 H         2 RES2    0.0000
@<TRIPOS>BOND
     1    1    7 2
     2    2    7 2
     3    3   21 2
     4    4   22 2
     5    5   21 1
     6    6   22 1
     7    7    9 1
     8    8    9 ar
     9    9   10 ar
    10   10   11 1
    11   12   10 ar
    12   13   12 1
    13   14   12 ar
    14   15   14 1
    15   16    8 ar
    16   17   16 1
    17   18    8 1
    18   19   18 1
    19   20   18 2
    20   21   20 1
    21   22   20 1
    22   23    5 1
    23   24   23 1
    24   25   24 1
    25   26   24 1
    26   27   24 1
    27   28   23 1
    28   29   28 1
    29   30   28 1
    30   31   28 1
    31   32   38 2
    32   33   38 2
    33   34   53 2
    34   35   52 2
    35   36   53 1
    36   37   52 1
    37   38   48 1
    38   39   40 ar
    39   40   41 1
    40   42   40 ar
    41   43   42 1
    42   44   42 ar
    43   45   44 1
    44   46   44 ar
    45   47   46 1
    46   48   39 ar
    47   49   39 1
    48   50   49 1
    49   51   49 2
    50   52   51 1
    51   53   51 1
    52   54   36 1
    53   55   54 1
    54   56   55 1
    55   57   55 1
    56   58   55 1
    57   59   54 1
    58   60   59 1
    59   61   59 1
    60   62   59 1
    61    6   23 1
    62   14   16 ar
    63   37   54 1
    64   46   48 ar
@<TRIPOS>SUBSTRUCTURE
     1 RES1 1
     2 RES2 32

@<TRIPOS>CRYSIN
  10.0240   10.4830   12.4076 105.3850  94.6690  93.0960   2 1

