# MOL2 file generated by ConQuest
# Please check atom types

@<TRIPOS>MOLECULE
NEQSIN
    26    26     1
SMALL
NO_CHARGES
****
Generated from CSD

@<TRIPOS>ATOM
      1 O1         4.3858    1.7744   11.1810 O.2       1 RES1    0.0000
      2 O2         3.1234    3.3453   11.9291 O.2       1 RES1    0.0000
      3 N1         1.5407   -1.9888    7.6950 N.1       1 RES1    0.0000
      4 N2         3.3121    2.3544   11.2367 N.pl3     1 RES1    0.0000
      5 N3        -0.9134    0.3842    8.1066 N.2       1 RES1    0.0000
      6 N4        -2.9000    0.6654    6.9943 N.3       1 RES1    0.0000
      7 C1         2.3467    0.6782    9.7445 C.ar      1 RES1    0.0000
      8 H1         3.1416    0.1973    9.7829 H         1 RES1    0.0000
      9 C2         2.2005    1.8577   10.4381 C.ar      1 RES1    0.0000
     10 C3         1.0214    2.5658   10.4027 C.ar      1 RES1    0.0000
     11 H2         0.9395    3.3523   10.8918 H         1 RES1    0.0000
     12 C4        -0.0278    2.1192    9.6540 C.ar      1 RES1    0.0000
     13 H3        -0.8199    2.6060    9.6449 H         1 RES1    0.0000
     14 C5         0.0619    0.9365    8.8954 C.ar      1 RES1    0.0000
     15 C6         1.2784    0.2261    8.9880 C.ar      1 RES1    0.0000
     16 C7         1.4075   -1.0120    8.2642 C.1       1 RES1    0.0000
     17 C8        -1.9180    1.1191    7.7400 C.2       1 RES1    0.0000
     18 H4        -1.9444    2.0061    8.0179 H         1 RES1    0.0000
     19 C9        -3.9585    1.5394    6.5152 C.3       1 RES1    0.0000
     20 H5        -3.9261    2.3721    6.9926 H         1 RES1    0.0000
     21 H6        -4.8101    1.1200    6.6608 H         1 RES1    0.0000
     22 H7        -3.8377    1.7029    5.5765 H         1 RES1    0.0000
     23 C10       -2.9008   -0.7170    6.5237 C.3       1 RES1    0.0000
     24 H8        -2.0521   -1.1213    6.7164 H         1 RES1    0.0000
     25 H9        -3.0541   -0.7319    5.5754 H         1 RES1    0.0000
     26 H10       -3.5967   -1.2063    6.9679 H         1 RES1    0.0000
@<TRIPOS>BOND
     1    1    4 2
     2    2    4 2
     3    3   16 3
     4    4    9 1
     5    5   14 1
     6    6   17 1
     7    7    8 1
     8    9    7 ar
     9   10    9 ar
    10   11   10 1
    11   12   10 ar
    12   13   12 1
    13   14   12 ar
    14   15    7 ar
    15   16   15 1
    16   17    5 2
    17   18   17 1
    18   19    6 1
    19   20   19 1
    20   21   19 1
    21   22   19 1
    22   23    6 1
    23   24   23 1
    24   25   23 1
    25   26   23 1
    26   14   15 ar
@<TRIPOS>SUBSTRUCTURE
     1 RES1 1

@<TRIPOS>CRYSIN
   7.6496   13.0693   11.1617  90.0000 106.4750  90.0000 231 1

