# MOL2 file generated by ConQuest
# Please check atom types

@<TRIPOS>MOLECULE
NEQTEL01
    22    23     1
SMALL
NO_CHARGES
****
Generated from CSD

@<TRIPOS>ATOM
      1 O1         6.1371   -0.1942    5.7718 O.3       1 RES1    0.0000
      2 N1         6.5569    0.8306    4.9225 N.2       1 RES1    0.0000
      3 C1         5.7599    2.4016    3.3048 C.ar      1 RES1    0.0000
      4 C2         6.9490    2.4971    2.6199 C.ar      1 RES1    0.0000
      5 H1         7.6505    1.9309    2.8471 H         1 RES1    0.0000
      6 C3         7.1254    3.4250    1.5902 C.ar      1 RES1    0.0000
      7 H2         7.9477    3.4904    1.1610 H         1 RES1    0.0000
      8 C4         6.0989    4.2313    1.2169 C.ar      1 RES1    0.0000
      9 H3         6.2174    4.8285    0.5137 H         1 RES1    0.0000
     10 C5         4.8592    4.1766    1.8779 C.ar      1 RES1    0.0000
     11 C6         3.7961    5.0285    1.5274 C.ar      1 RES1    0.0000
     12 H4         3.9127    5.6305    0.8288 H         1 RES1    0.0000
     13 C7         2.6095    4.9994    2.1770 C.ar      1 RES1    0.0000
     14 H5         1.9145    5.5593    1.9144 H         1 RES1    0.0000
     15 C8         2.4428    4.1122    3.2489 C.ar      1 RES1    0.0000
     16 H6         1.6358    4.0977    3.7101 H         1 RES1    0.0000
     17 C9         3.4414    3.2739    3.6256 C.ar      1 RES1    0.0000
     18 H7         3.3072    2.6917    4.3380 H         1 RES1    0.0000
     19 C10        4.6855    3.2739    2.9475 C.ar      1 RES1    0.0000
     20 C11        5.5726    1.3686    4.3208 C.2       1 RES1    0.0000
     21 H8         4.7093    1.0965    4.5343 H         1 RES1    0.0000
     22 H9         6.8850   -0.6247    6.0275 H         1 RES1    0.0000
@<TRIPOS>BOND
     1    1    2 1
     2    2   20 2
     3    3    4 ar
     4    4    5 1
     5    6    4 ar
     6    7    6 1
     7    8    6 ar
     8    9    8 1
     9   10    8 ar
    10   11   10 ar
    11   12   11 1
    12   13   11 ar
    13   14   13 1
    14   15   13 ar
    15   16   15 1
    16   17   15 ar
    17   18   17 1
    18   19    3 ar
    19   20    3 1
    20   21   20 1
    21   22    1 1
    22   10   19 ar
    23   17   19 ar
@<TRIPOS>SUBSTRUCTURE
     1 RES1 1

@<TRIPOS>CRYSIN
   7.9280    4.8430   11.4440  90.0000  94.0300  90.0000   4 1

