# MOL2 file generated by ConQuest
# Please check atom types

@<TRIPOS>MOLECULE
NEQTEL
    44    46     2
SMALL
NO_CHARGES
****
Generated from CSD

@<TRIPOS>ATOM
      1 O1         4.8913   10.2663    0.8384 O.3       1 RES1    0.0000
      2 H1         4.9796   11.0172    0.4741 H         1 RES1    0.0000
      3 N1         3.8391   10.3205    1.7592 N.2       1 RES1    0.0000
      4 C1         3.6219    9.1675    2.2747 C.2       1 RES1    0.0000
      5 H2         4.1719    8.4323    2.0343 H         1 RES1    0.0000
      6 C2         2.5255    8.9778    3.2373 C.ar      1 RES1    0.0000
      7 C3         1.5145    9.9151    3.3355 C.ar      1 RES1    0.0000
      8 H3         1.5332   10.6833    2.7778 H         1 RES1    0.0000
      9 C4         0.4653    9.7474    4.2399 C.ar      1 RES1    0.0000
     10 H4        -0.2100   10.4125    4.3046 H         1 RES1    0.0000
     11 C5         0.4018    8.6398    5.0293 C.ar      1 RES1    0.0000
     12 H5        -0.3237    8.5353    5.6350 H         1 RES1    0.0000
     13 C6         1.3935    7.6545    4.9619 C.ar      1 RES1    0.0000
     14 C7         1.3535    6.5015    5.7967 C.ar      1 RES1    0.0000
     15 H6         0.6317    6.3833    6.4030 H         1 RES1    0.0000
     16 C8         2.3349    5.5725    5.7334 C.ar      1 RES1    0.0000
     17 H7         2.2859    4.8029    6.2881 H         1 RES1    0.0000
     18 C9         3.4246    5.7278    4.8614 C.ar      1 RES1    0.0000
     19 H8         4.1126    5.0723    4.8385 H         1 RES1    0.0000
     20 C10        3.4948    6.8258    4.0431 C.ar      1 RES1    0.0000
     21 H9         4.2318    6.9206    3.4506 H         1 RES1    0.0000
     22 C11        2.4856    7.8207    4.0678 C.ar      1 RES1    0.0000
     23 O2         3.3611   12.7195   -0.9869 O.3       2 RES2    0.0000
     24 H10        3.0677   11.9324   -0.9858 H         2 RES2    0.0000
     25 N2         4.4811   12.8023   -0.1489 N.2       2 RES2    0.0000
     26 C12        4.8375   14.0158    0.0313 C.2       2 RES2    0.0000
     27 H11        4.3365   14.7098   -0.3812 H         2 RES2    0.0000
     28 C13        5.9913   14.3676    0.8517 C.ar      2 RES2    0.0000
     29 C14        6.9570   13.4290    1.1245 C.ar      2 RES2    0.0000
     30 H12        6.8686   12.5550    0.7613 H         2 RES2    0.0000
     31 C15        8.0600   13.7217    1.9169 C.ar      2 RES2    0.0000
     32 H13        8.7062   13.0497    2.0953 H         2 RES2    0.0000
     33 C16        8.2197   14.9667    2.4386 C.ar      2 RES2    0.0000
     34 H14        8.9773   15.1591    2.9788 H         2 RES2    0.0000
     35 C17        7.2625   15.9823    2.1818 C.ar      2 RES2    0.0000
     36 C18        7.4035   17.2823    2.7285 C.ar      2 RES2    0.0000
     37 H15        8.1689   17.4857    3.2538 H         2 RES2    0.0000
     38 C19        6.4717   18.2415    2.5184 C.ar      2 RES2    0.0000
     39 H16        6.5782   19.1018    2.9071 H         2 RES2    0.0000
     40 C20        5.3518   17.9653    1.7292 C.ar      2 RES2    0.0000
     41 H17        4.7049   18.6456    1.5771 H         2 RES2    0.0000
     42 C21        5.1751   16.7230    1.1705 C.ar      2 RES2    0.0000
     43 H18        4.4109   16.5499    0.6331 H         2 RES2    0.0000
     44 C22        6.1347   15.6923    1.3950 C.ar      2 RES2    0.0000
@<TRIPOS>BOND
     1    1    2 1
     2    3    1 1
     3    4    3 2
     4    5    4 1
     5    6    4 1
     6    7    6 ar
     7    8    7 1
     8    9    7 ar
     9   10    9 1
    10   11    9 ar
    11   12   11 1
    12   13   11 ar
    13   14   13 ar
    14   15   14 1
    15   16   14 ar
    16   17   16 1
    17   18   16 ar
    18   19   18 1
    19   20   18 ar
    20   21   20 1
    21   22    6 ar
    22   23   24 1
    23   25   23 1
    24   26   25 2
    25   27   26 1
    26   28   26 1
    27   29   28 ar
    28   30   29 1
    29   31   29 ar
    30   32   31 1
    31   33   31 ar
    32   34   33 1
    33   35   33 ar
    34   36   35 ar
    35   37   36 1
    36   38   36 ar
    37   39   38 1
    38   40   38 ar
    39   41   40 1
    40   42   40 ar
    41   43   42 1
    42   44   28 ar
    43   13   22 ar
    44   20   22 ar
    45   35   44 ar
    46   42   44 ar
@<TRIPOS>SUBSTRUCTURE
     1 RES1 1
     2 RES2 23

@<TRIPOS>CRYSIN
   6.0506   13.7423   20.8860  90.0000  90.0000  90.0000  19 1

