# MOL2 file generated by ConQuest
# Please check atom types

@<TRIPOS>MOLECULE
NEQXEO
    54    56     1
SMALL
NO_CHARGES
****
Generated from CSD

@<TRIPOS>ATOM
      1 O1         0.4331   16.5628    2.3405 O.3       1 RES1    0.0000
      2 O2        -0.5742   17.9724    0.8089 O.3       1 RES1    0.0000
      3 H1        -0.9800   18.4867    1.3006 H         1 RES1    0.0000
      4 O3        -1.5836   16.4331   -1.7024 O.2       1 RES1    0.0000
      5 O4        -2.3909   14.7348   -0.4934 O.3       1 RES1    0.0000
      6 O5         2.9015   10.6976   -3.5920 O.2       1 RES1    0.0000
      7 O6         2.3040   11.9271   -5.2526 O.2       1 RES1    0.0000
      8 O7         3.7835   16.1519   -0.9442 O.2       1 RES1    0.0000
      9 N1         2.4272   11.7221   -4.0569 N.pl3     1 RES1    0.0000
     10 C1        -0.6280   16.6970    1.3555 C.3       1 RES1    0.0000
     11 C2        -0.3664   15.6761    0.2425 C.3       1 RES1    0.0000
     12 H2        -0.3277   14.7870    0.6519 H         1 RES1    0.0000
     13 C3         0.9824   15.9403   -0.4458 C.3       1 RES1    0.0000
     14 H3         0.8999   16.7594   -0.9779 H         1 RES1    0.0000
     15 C4         2.0338   16.1696    0.6163 C.2       1 RES1    0.0000
     16 C5         3.4415   16.2200    0.2266 C.2       1 RES1    0.0000
     17 C6         4.4741   16.4500    1.3022 C.3       1 RES1    0.0000
     18 H4         4.7139   17.3901    1.2974 H         1 RES1    0.0000
     19 H5         5.2706   15.9466    1.0718 H         1 RES1    0.0000
     20 C7         4.0619   16.0699    2.7188 C.3       1 RES1    0.0000
     21 C8         2.6946   16.7016    2.9794 C.3       1 RES1    0.0000
     22 H6         2.3407   16.3518    3.8120 H         1 RES1    0.0000
     23 H7         2.8060   17.6594    3.0846 H         1 RES1    0.0000
     24 C9         1.7055   16.4481    1.8910 C.2       1 RES1    0.0000
     25 C10       -1.9002   16.4593    2.1329 C.3       1 RES1    0.0000
     26 H8        -1.9928   17.1354    2.8084 H         1 RES1    0.0000
     27 H9        -1.8645   15.5948    2.5483 H         1 RES1    0.0000
     28 H10       -2.6514   16.4973    1.5367 H         1 RES1    0.0000
     29 C11       -1.4968   15.6764   -0.7709 C.2       1 RES1    0.0000
     30 C12       -3.5397   14.6523   -1.3887 C.3       1 RES1    0.0000
     31 H11       -3.2426   14.5686   -2.3082 H         1 RES1    0.0000
     32 H12       -4.0831   15.4517   -1.3119 H         1 RES1    0.0000
     33 C13       -4.3306   13.4490   -0.9883 C.3       1 RES1    0.0000
     34 H13       -5.0966   13.3653   -1.5608 H         1 RES1    0.0000
     35 H14       -4.6192   13.5448   -0.0779 H         1 RES1    0.0000
     36 H15       -3.7833   12.6641   -1.0702 H         1 RES1    0.0000
     37 C14        1.3167   14.7964   -1.3837 C.ar      1 RES1    0.0000
     38 C15        1.2101   14.9747   -2.7538 C.ar      1 RES1    0.0000
     39 H16        0.9109   15.7889   -3.0886 H         1 RES1    0.0000
     40 C16        1.5425   13.9582   -3.6278 C.ar      1 RES1    0.0000
     41 H17        1.4661   14.0810   -4.5466 H         1 RES1    0.0000
     42 C17        1.9865   12.7648   -3.1181 C.ar      1 RES1    0.0000
     43 C18        2.0639   12.5329   -1.7631 C.ar      1 RES1    0.0000
     44 H18        2.3431   11.7083   -1.4355 H         1 RES1    0.0000
     45 C19        1.7168   13.5540   -0.9022 C.ar      1 RES1    0.0000
     46 H19        1.7513   13.4089    0.0161 H         1 RES1    0.0000
     47 C20        3.9903   14.5524    2.8791 C.3       1 RES1    0.0000
     48 H20        4.8562   14.1707    2.7137 H         1 RES1    0.0000
     49 H21        3.3572   14.1926    2.2528 H         1 RES1    0.0000
     50 H22        3.7128   14.3381    3.7727 H         1 RES1    0.0000
     51 C21        5.0767   16.6376    3.7133 C.3       1 RES1    0.0000
     52 H23        5.9363   16.2402    3.5543 H         1 RES1    0.0000
     53 H24        4.7934   16.4391    4.6085 H         1 RES1    0.0000
     54 H25        5.1373   17.5891    3.6009 H         1 RES1    0.0000
@<TRIPOS>BOND
     1    1   10 1
     2    2    3 1
     3    4   29 2
     4    5   29 1
     5    6    9 2
     6    7    9 2
     7    8   16 2
     8    9   42 1
     9   10    2 1
    10   11   10 1
    11   12   11 1
    12   13   11 1
    13   14   13 1
    14   15   13 1
    15   16   15 1
    16   17   16 1
    17   18   17 1
    18   19   17 1
    19   20   17 1
    20   21   20 1
    21   22   21 1
    22   23   21 1
    23   24    1 1
    24   25   10 1
    25   26   25 1
    26   27   25 1
    27   28   25 1
    28   29   11 1
    29   30    5 1
    30   31   30 1
    31   32   30 1
    32   33   30 1
    33   34   33 1
    34   35   33 1
    35   36   33 1
    36   37   13 1
    37   38   37 ar
    38   39   38 1
    39   40   38 ar
    40   41   40 1
    41   42   40 ar
    42   43   42 ar
    43   44   43 1
    44   45   37 ar
    45   46   45 1
    46   47   20 1
    47   48   47 1
    48   49   47 1
    49   50   47 1
    50   51   20 1
    51   52   51 1
    52   53   51 1
    53   54   51 1
    54   15   24 2
    55   21   24 1
    56   43   45 ar
@<TRIPOS>SUBSTRUCTURE
     1 RES1 1

@<TRIPOS>CRYSIN
  10.4163   24.2608    8.0796  90.0000  96.4370  90.0000  14 1

