# MOL2 file generated by ConQuest
# Please check atom types

@<TRIPOS>MOLECULE
NERDOE
    62    64     2
SMALL
NO_CHARGES
****
Generated from CSD

@<TRIPOS>ATOM
      1 O1         0.0073    3.7679    7.3108 O.2       1 RES1    0.0000
      2 N1        -0.1597    4.7542    6.5246 N.pl3     1 RES1    0.0000
      3 C1         0.8276    5.2307    5.5086 C.3       1 RES1    0.0000
      4 C2         1.8712    6.0048    6.2960 C.3       1 RES1    0.0000
      5 H1         2.4376    5.5469    6.8811 H         1 RES1    0.0000
      6 H2         1.4532    6.9280    6.9059 H         1 RES1    0.0000
      7 H3         2.5673    6.3363    5.6638 H         1 RES1    0.0000
      8 C3         1.4634    4.0655    4.7981 C.3       1 RES1    0.0000
      9 H4         0.8167    3.5208    4.4714 H         1 RES1    0.0000
     10 H5         1.8956    3.4914    5.5148 H         1 RES1    0.0000
     11 H6         2.0740    4.4491    4.1361 H         1 RES1    0.0000
     12 C4        -0.1118    6.1397    4.6851 C.3       1 RES1    0.0000
     13 C5         0.5412    7.3982    4.1175 C.3       1 RES1    0.0000
     14 H7         0.9575    7.8714    4.8565 H         1 RES1    0.0000
     15 H8        -0.1905    7.8985    3.3908 H         1 RES1    0.0000
     16 H9         1.2888    7.1047    3.5026 H         1 RES1    0.0000
     17 C6        -0.8264    5.3899    3.5486 C.3       1 RES1    0.0000
     18 H10       -1.3485    4.5483    3.9001 H         1 RES1    0.0000
     19 H11       -0.1829    5.0581    2.7450 H         1 RES1    0.0000
     20 H12       -1.5367    6.1839    3.0679 H         1 RES1    0.0000
     21 N2        -1.1887    6.5451    5.6340 N.2       1 RES1    0.0000
     22 C7        -1.2041    5.6887    6.5941 C.2       1 RES1    0.0000
     23 C8        -2.1927    5.7014    7.6573 C.2       1 RES1    0.0000
     24 N3        -3.4355    6.1866    7.4586 N.2       1 RES1    0.0000
     25 N4        -4.0464    6.0942    8.6162 N.2       1 RES1    0.0000
     26 N5        -3.1747    5.5909    9.4559 N.pl3     1 RES1    0.0000
     27 C9        -3.4712    5.3643   10.8743 C.3       1 RES1    0.0000
     28 H13       -4.3837    5.6913   10.8557 H         1 RES1    0.0000
     29 H14       -2.6699    5.5524   11.4022 H         1 RES1    0.0000
     30 H15       -3.5083    4.4238   11.1786 H         1 RES1    0.0000
     31 N6        -1.9896    5.3166    8.9093 N.2       1 RES1    0.0000
     32 O2         1.9637    5.2040    1.1750 O.2       2 RES2    0.0000
     33 N7         2.1451    6.1688    0.3614 N.pl3     2 RES2    0.0000
     34 C10        1.1608    6.5966   -0.6794 C.3       2 RES2    0.0000
     35 C11        0.5274    5.3933   -1.3464 C.3       2 RES2    0.0000
     36 H16       -0.0430    4.8956   -0.6707 H         2 RES2    0.0000
     37 H17        1.1571    4.6522   -1.5526 H         2 RES2    0.0000
     38 H18       -0.0484    5.6499   -2.0743 H         2 RES2    0.0000
     39 C12        0.0968    7.4242    0.0547 C.3       2 RES2    0.0000
     40 H19       -0.3062    6.9158    0.8570 H         2 RES2    0.0000
     41 H20       -0.4857    7.8030   -0.6335 H         2 RES2    0.0000
     42 H21        0.4257    8.2741    0.5962 H         2 RES2    0.0000
     43 C13        2.1119    7.4549   -1.5576 C.3       2 RES2    0.0000
     44 C14        1.4598    8.6859   -2.1686 C.3       2 RES2    0.0000
     45 H22        0.9602    9.1429   -1.5029 H         2 RES2    0.0000
     46 H23        0.7014    8.4331   -2.7698 H         2 RES2    0.0000
     47 H24        2.1771    9.2077   -2.7077 H         2 RES2    0.0000
     48 C15        2.8297    6.6511   -2.6468 C.3       2 RES2    0.0000
     49 H25        3.6182    7.3005   -3.1052 H         2 RES2    0.0000
     50 H26        2.1606    6.3402   -3.3163 H         2 RES2    0.0000
     51 H27        3.2110    5.8304   -2.1612 H         2 RES2    0.0000
     52 N8         3.1936    7.8829   -0.6123 N.2       2 RES2    0.0000
     53 C16        3.1888    7.0717    0.3801 C.2       2 RES2    0.0000
     54 C17        4.1697    7.1474    1.4507 C.2       2 RES2    0.0000
     55 N9         5.3597    7.7727    1.2843 N.2       2 RES2    0.0000
     56 N10        5.9794    7.6884    2.4568 N.2       2 RES2    0.0000
     57 N11        5.1596    7.0371    3.2567 N.pl3     2 RES2    0.0000
     58 C18        5.5034    6.7272    4.6391 C.3       2 RES2    0.0000
     59 H28        6.3783    7.1104    4.7323 H         2 RES2    0.0000
     60 H29        5.0316    5.7969    4.9186 H         2 RES2    0.0000
     61 H30        4.8141    7.0137    5.2167 H         2 RES2    0.0000
     62 N12        4.0180    6.6709    2.6965 N.2       2 RES2    0.0000
@<TRIPOS>BOND
     1    1    2 1
     2    2    3 1
     3    3    4 1
     4    4    5 1
     5    6    4 1
     6    7    4 1
     7    8    3 1
     8    9    8 1
     9   10    8 1
    10   11    8 1
    11   12    3 1
    12   13   12 1
    13   14   13 1
    14   15   13 1
    15   16   13 1
    16   17   12 1
    17   18   17 1
    18   19   17 1
    19   20   17 1
    20   21   12 1
    21   22    2 1
    22   23   22 1
    23   24   23 1
    24   25   24 2
    25   26   25 1
    26   27   26 1
    27   28   27 1
    28   29   27 1
    29   30   27 1
    30   31   23 2
    31   32   33 1
    32   33   34 1
    33   34   35 1
    34   35   36 1
    35   37   35 1
    36   38   35 1
    37   39   34 1
    38   40   39 1
    39   41   39 1
    40   42   39 1
    41   43   34 1
    42   44   43 1
    43   45   44 1
    44   46   44 1
    45   47   44 1
    46   48   43 1
    47   49   48 1
    48   50   48 1
    49   51   48 1
    50   52   43 1
    51   53   33 1
    52   54   53 1
    53   55   54 1
    54   56   55 2
    55   57   56 1
    56   58   57 1
    57   59   58 1
    58   60   58 1
    59   61   58 1
    60   62   54 2
    61   21   22 2
    62   26   31 1
    63   52   53 2
    64   57   62 1
@<TRIPOS>SUBSTRUCTURE
     1 RES1 1
     2 RES2 32

@<TRIPOS>CRYSIN
   9.9370    9.9390   12.7160 101.7760  90.1250 107.1510   2 1

