# MOL2 file generated by ConQuest
# Please check atom types

@<TRIPOS>MOLECULE
NERDIY
    62    64     2
SMALL
NO_CHARGES
****
Generated from CSD

@<TRIPOS>ATOM
      1 O1        -0.7562   -1.9497    6.7087 O.2       1 RES1    0.0000
      2 N1         0.1814   -1.4388    6.0418 N.pl3     1 RES1    0.0000
      3 C1         0.9380   -2.1351    4.9668 C.3       1 RES1    0.0000
      4 C2         1.9805   -3.0112    5.6894 C.3       1 RES1    0.0000
      5 H1         1.5098   -3.6052    6.2440 H         1 RES1    0.0000
      6 H2         2.6674   -2.3190    6.3741 H         1 RES1    0.0000
      7 H3         2.5420   -3.4628    5.0614 H         1 RES1    0.0000
      8 C3         0.0158   -2.9872    4.1225 C.3       1 RES1    0.0000
      9 H4        -0.7073   -2.4308    3.7488 H         1 RES1    0.0000
     10 H5        -0.4005   -3.7594    4.6830 H         1 RES1    0.0000
     11 H6         0.5413   -3.3903    3.4176 H         1 RES1    0.0000
     12 C4         1.5697   -0.9113    4.2738 C.3       1 RES1    0.0000
     13 C5         2.9769   -1.1345    3.7511 C.3       1 RES1    0.0000
     14 H7         3.3255   -0.2959    3.2994 H         1 RES1    0.0000
     15 H8         2.9829   -1.8685    3.1338 H         1 RES1    0.0000
     16 H9         3.5756   -1.4115    4.5411 H         1 RES1    0.0000
     17 C6         0.6851   -0.3300    3.1752 C.3       1 RES1    0.0000
     18 H10        1.1248    0.5973    2.8973 H         1 RES1    0.0000
     19 H11       -0.2581   -0.1876    3.5477 H         1 RES1    0.0000
     20 H12        0.6878   -1.0016    2.4598 H         1 RES1    0.0000
     21 N2         1.5972    0.1379    5.3312 N.2       1 RES1    0.0000
     22 C7         0.7635   -0.2021    6.2263 C.2       1 RES1    0.0000
     23 C8         0.4912    0.6027    7.4088 C.2       1 RES1    0.0000
     24 N3         0.4949    1.9346    7.4387 N.pl3     1 RES1    0.0000
     25 C9         0.5910    2.9044    6.3481 C.3       1 RES1    0.0000
     26 H13        0.7174    2.4405    5.5167 H         1 RES1    0.0000
     27 H14        1.3374    3.4887    6.5042 H         1 RES1    0.0000
     28 H15       -0.2169    3.4210    6.3067 H         1 RES1    0.0000
     29 N4         0.3183    2.3284    8.6990 N.2       1 RES1    0.0000
     30 N5         0.2213    1.2597    9.4097 N.2       1 RES1    0.0000
     31 N6         0.3152    0.1564    8.6316 N.2       1 RES1    0.0000
     32 O2        -1.7816    6.6397    0.8379 O.2       2 RES2    0.0000
     33 N7        -0.7114    6.7605    0.1692 N.pl3     2 RES2    0.0000
     34 C10       -0.4525    7.8012   -0.8633 C.3       2 RES2    0.0000
     35 C11       -1.6949    8.0465   -1.6899 C.3       2 RES2    0.0000
     36 H16       -1.9699    7.1932   -2.1523 H         2 RES2    0.0000
     37 H17       -1.4053    8.6210   -2.3888 H         2 RES2    0.0000
     38 H18       -2.3952    8.4505   -1.1116 H         2 RES2    0.0000
     39 C12       -0.0499    9.0653   -0.0982 C.3       2 RES2    0.0000
     40 H19       -0.8009    9.3082    0.5085 H         2 RES2    0.0000
     41 H20        0.1721    9.7971   -0.7568 H         2 RES2    0.0000
     42 H21        0.8781    8.8921    0.4730 H         2 RES2    0.0000
     43 C13        0.7394    7.1286   -1.5799 C.3       2 RES2    0.0000
     44 C14        1.7866    8.0887   -2.0967 C.3       2 RES2    0.0000
     45 H22        2.1494    8.6437   -1.3836 H         2 RES2    0.0000
     46 H23        1.4158    8.7316   -2.7436 H         2 RES2    0.0000
     47 H24        2.4953    7.6314   -2.6017 H         2 RES2    0.0000
     48 C15        0.2985    6.1980   -2.7045 C.3       2 RES2    0.0000
     49 H25        1.0875    5.7719   -3.0274 H         2 RES2    0.0000
     50 H26       -0.0648    6.7490   -3.4768 H         2 RES2    0.0000
     51 H27       -0.4108    5.5259   -2.3770 H         2 RES2    0.0000
     52 N8         1.3374    6.2413   -0.5542 N.2       2 RES2    0.0000
     53 C16        0.4558    6.0281    0.3394 C.2       2 RES2    0.0000
     54 C17        0.6458    5.1480    1.4770 C.2       2 RES2    0.0000
     55 N9         1.3532    4.0127    1.4244 N.pl3     2 RES2    0.0000
     56 C18        1.9319    3.3145    0.2791 C.3       2 RES2    0.0000
     57 H28        2.0184    2.3744    0.4730 H         2 RES2    0.0000
     58 H29        2.8032    3.5991    0.0473 H         2 RES2    0.0000
     59 H30        1.3843    3.4466   -0.4967 H         2 RES2    0.0000
     60 N10        1.4162    3.5059    2.6549 N.2       2 RES2    0.0000
     61 N11        0.7747    4.3235    3.4129 N.2       2 RES2    0.0000
     62 N12        0.2654    5.3539    2.7069 N.2       2 RES2    0.0000
@<TRIPOS>BOND
     1    1    2 1
     2    2    3 1
     3    3    4 1
     4    4    5 1
     5    6    4 1
     6    7    4 1
     7    8    3 1
     8    9    8 1
     9   10    8 1
    10   11    8 1
    11   12    3 1
    12   13   12 1
    13   14   13 1
    14   15   13 1
    15   16   13 1
    16   17   12 1
    17   18   17 1
    18   19   17 1
    19   20   17 1
    20   21   12 1
    21   22    2 1
    22   23   22 1
    23   24   23 1
    24   25   24 1
    25   26   25 1
    26   27   25 1
    27   28   25 1
    28   29   24 1
    29   30   29 2
    30   31   23 2
    31   32   33 1
    32   33   34 1
    33   34   35 1
    34   35   36 1
    35   37   35 1
    36   38   35 1
    37   39   34 1
    38   40   39 1
    39   41   39 1
    40   42   39 1
    41   43   34 1
    42   44   43 1
    43   45   44 1
    44   46   44 1
    45   47   44 1
    46   48   43 1
    47   49   48 1
    48   50   48 1
    49   51   48 1
    50   52   43 1
    51   53   33 1
    52   54   53 1
    53   55   54 1
    54   56   55 1
    55   57   56 1
    56   58   56 1
    57   59   56 1
    58   60   55 1
    59   61   60 2
    60   62   54 2
    61   21   22 2
    62   30   31 1
    63   52   53 2
    64   61   62 1
@<TRIPOS>SUBSTRUCTURE
     1 RES1 1
     2 RES2 32

@<TRIPOS>CRYSIN
  10.0220   10.4970   12.2520  90.1610 104.3440 108.0380   2 1

