# MOL2 file generated by ConQuest
# Please check atom types

@<TRIPOS>MOLECULE
NERFOI
    96    82     3
SMALL
NO_CHARGES
****
Generated from CSD

@<TRIPOS>ATOM
      1 N1         9.3458    7.1389    2.0654 N.2       1 RES1    0.0000
      2 C1         8.8328    7.8543    0.8543 C.3       1 RES1    0.0000
      3 C2         9.8529    7.7146   -0.2744 C.3       1 RES1    0.0000
      4 H1         9.5299    8.1711   -1.0556 H         1 RES1    0.0000
      5 H2        10.6883    8.1006   -0.0018 H         1 RES1    0.0000
      6 H3         9.9804    6.7854   -0.4775 H         1 RES1    0.0000
      7 C3         7.5529    7.1562    0.4665 C.3       1 RES1    0.0000
      8 H4         7.1804    7.5798   -0.3110 H         1 RES1    0.0000
      9 H5         7.7376    6.2344    0.2708 H         1 RES1    0.0000
     10 H6         6.9269    7.2114    1.1909 H         1 RES1    0.0000
     11 C4         8.6249    9.3327    1.3391 C.3       1 RES1    0.0000
     12 C5         7.3598   10.0258    0.8708 C.3       1 RES1    0.0000
     13 H7         7.4112   10.1821   -0.0750 H         1 RES1    0.0000
     14 H8         6.6005    9.4705    1.0629 H         1 RES1    0.0000
     15 H9         7.2664   10.8647    1.3281 H         1 RES1    0.0000
     16 C6         9.8378   10.2186    1.1324 C.3       1 RES1    0.0000
     17 H10        9.9365   10.4125    0.1957 H         1 RES1    0.0000
     18 H11        9.7227   11.0374    1.6172 H         1 RES1    0.0000
     19 H12       10.6231    9.7662    1.4489 H         1 RES1    0.0000
     20 N2         8.5533    9.0860    2.8100 N.pl3     1 RES1    0.0000
     21 O1         8.1507    9.9677    3.6350 O.2       1 RES1    0.0000
     22 C7         9.1331    7.8543    3.1246 C.2       1 RES1    0.0000
     23 C8         9.4778    7.4106    4.4710 C.ar      1 RES1    0.0000
     24 C9         9.8182    6.0714    4.6723 C.ar      1 RES1    0.0000
     25 O2         9.8566    5.1626    3.6864 O.3       1 RES1    0.0000
     26 H13        9.6045    5.6072    2.9435 H         1 RES1    0.0000
     27 C10       10.1555    5.6071    5.9565 C.ar      1 RES1    0.0000
     28 O3        10.4455    4.2740    6.0379 O.3       1 RES1    0.0000
     29 C11       10.7265    3.7538    7.3578 C.3       1 RES1    0.0000
     30 H14       10.9163    2.8151    7.2975 H         1 RES1    0.0000
     31 H15       11.4866    4.2107    7.7255 H         1 RES1    0.0000
     32 H16        9.9644    3.8908    7.9249 H         1 RES1    0.0000
     33 C12       10.1974    6.4763    7.0139 C.ar      1 RES1    0.0000
     34 H17       10.4243    6.1816    7.8646 H         1 RES1    0.0000
     35 C13        9.8938    7.8082    6.7797 C.ar      1 RES1    0.0000
     36 N3         9.9866    8.7658    7.8957 N.pl3     1 RES1    0.0000
     37 O4        10.2668    8.2947    8.9897 O.2       1 RES1    0.0000
     38 O5         9.7906    9.9364    7.6816 O.2       1 RES1    0.0000
     39 C14        9.5220    8.2891    5.5632 C.ar      1 RES1    0.0000
     40 H18        9.3011    9.1861    5.4571 H         1 RES1    0.0000
     41 N4         7.0129    3.0952    6.0407 N.2       2 RES2    0.0000
     42 C15        7.1149    1.7385    5.4315 C.3       2 RES2    0.0000
     43 C16        5.8899    1.0389    6.0827 C.3       2 RES2    0.0000
     44 H19        5.8382    0.1300    5.7681 H         2 RES2    0.0000
     45 H20        5.9931    1.0364    7.0377 H         2 RES2    0.0000
     46 H21        5.0887    1.5045    5.8449 H         2 RES2    0.0000
     47 C17        8.4027    0.8983    5.9401 C.3       2 RES2    0.0000
     48 H22        8.4149    0.0388    5.5138 H         2 RES2    0.0000
     49 H23        9.2072    1.3766    5.7150 H         2 RES2    0.0000
     50 H24        8.3568    0.7833    6.8913 H         2 RES2    0.0000
     51 C18        6.8844    1.9487    3.9405 C.3       2 RES2    0.0000
     52 C19        5.1391    1.5321    3.7777 C.3       2 RES2    0.0000
     53 H25        4.6485    1.9258    4.5021 H         2 RES2    0.0000
     54 H26        4.8072    1.8705    2.9435 H         2 RES2    0.0000
     55 H27        5.0360    0.5781    3.8015 H         2 RES2    0.0000
     56 C20        7.5294    1.3793    2.9106 C.3       2 RES2    0.0000
     57 H28        7.6103    0.4354    3.0679 H         2 RES2    0.0000
     58 H29        7.0298    1.5256    2.1020 H         2 RES2    0.0000
     59 H30        8.4007    1.7671    2.8246 H         2 RES2    0.0000
     60 N5         6.6595    3.3934    3.8838 N.pl3     2 RES2    0.0000
     61 O6         6.4688    3.9907    2.7843 O.2       2 RES2    0.0000
     62 C21        6.7284    3.9648    5.1406 C.2       2 RES2    0.0000
     63 C22        6.5033    5.3865    5.4223 C.ar      2 RES2    0.0000
     64 C23        6.7402    5.8518    6.7175 C.ar      2 RES2    0.0000
     65 O7         7.1460    5.0433    7.7168 O.3       2 RES2    0.0000
     66 H31        7.0480    4.1742    7.4822 H         2 RES2    0.0000
     67 C24        6.5510    7.2092    7.0487 C.ar      2 RES2    0.0000
     68 O8         6.8530    7.5727    8.3263 O.3       2 RES2    0.0000
     69 C25        6.6421    8.9440    8.7061 C.3       2 RES2    0.0000
     70 H32        6.8931    9.0637    9.6245 H         2 RES2    0.0000
     71 H33        7.1777    9.5155    8.1500 H         2 RES2    0.0000
     72 H34        5.7152    9.1667    8.5945 H         2 RES2    0.0000
     73 C26        6.0779    8.0734    6.0974 C.ar      2 RES2    0.0000
     74 H35        5.9358    8.9701    6.3004 H         2 RES2    0.0000
     75 C27        5.8145    7.5870    4.8168 C.ar      2 RES2    0.0000
     76 N6         5.2732    8.5168    3.8253 N.pl3     2 RES2    0.0000
     77 O9         4.9761    9.6626    4.1674 O.2       2 RES2    0.0000
     78 O10        5.1144    8.1045    2.6892 O.2       2 RES2    0.0000
     79 C28        6.0360    6.2838    4.4656 C.ar      2 RES2    0.0000
     80 H36        5.8759    5.9988    3.5948 H         2 RES2    0.0000
     81 C29        6.3267    0.7119    6.0955 Du        3 SUP3    0.0000
     82 H37        5.3907    0.8953    5.9821 Du        3 SUP3    0.0000
     83 H38        6.5276   -0.1492    5.7095 Du        3 SUP3    0.0000
     84 H39        6.5378    0.6938    7.0322 Du        3 SUP3    0.0000
     85 C30        8.5308    1.4790    5.5851 Du        3 SUP3    0.0000
     86 H40        9.0361    2.1673    5.1424 Du        3 SUP3    0.0000
     87 H41        8.7575    1.4703    6.5200 Du        3 SUP3    0.0000
     88 H42        8.7480    0.6274    5.1973 Du        3 SUP3    0.0000
     89 C31        6.3720    1.0591    3.0551 Du        3 SUP3    0.0000
     90 H43        6.6546    0.1735    3.2929 Du        3 SUP3    0.0000
     91 H44        5.4149    1.1063    3.0716 Du        3 SUP3    0.0000
     92 H45        6.6882    1.2696    2.1733 Du        3 SUP3    0.0000
     93 C32        8.6530    2.0470    3.3588 Du        3 SUP3    0.0000
     94 H46        9.1423    2.6598    3.9149 Du        3 SUP3    0.0000
     95 H47        9.0594    1.1775    3.4100 Du        3 SUP3    0.0000
     96 H48        8.6771    2.3556    2.4496 Du        3 SUP3    0.0000
@<TRIPOS>BOND
     1    1    2 1
     2    2    3 1
     3    3    4 1
     4    5    3 1
     5    6    3 1
     6    7    2 1
     7    8    7 1
     8    9    7 1
     9   10    7 1
    10   11    2 1
    11   12   11 1
    12   13   12 1
    13   14   12 1
    14   15   12 1
    15   16   11 1
    16   17   16 1
    17   18   16 1
    18   19   16 1
    19   20   11 1
    20   21   20 1
    21   22    1 2
    22   23   22 1
    23   24   23 ar
    24   25   24 1
    25   26   25 1
    26   27   24 ar
    27   28   27 1
    28   29   28 1
    29   30   29 1
    30   31   29 1
    31   32   29 1
    32   33   27 ar
    33   34   33 1
    34   35   33 ar
    35   36   35 1
    36   37   36 2
    37   38   36 2
    38   39   23 ar
    39   40   39 1
    40   41   42 1
    41   42   43 1
    42   43   44 1
    43   45   43 1
    44   46   43 1
    45   47   42 1
    46   48   47 1
    47   49   47 1
    48   50   47 1
    49   51   42 1
    50   52   51 1
    51   53   52 1
    52   54   52 1
    53   55   52 1
    54   56   51 1
    55   57   56 1
    56   58   56 1
    57   59   56 1
    58   60   51 1
    59   61   60 1
    60   62   41 2
    61   63   62 1
    62   64   63 ar
    63   65   64 1
    64   66   65 1
    65   67   64 ar
    66   68   67 1
    67   69   68 1
    68   70   69 1
    69   71   69 1
    70   72   69 1
    71   73   67 ar
    72   74   73 1
    73   75   73 ar
    74   76   75 1
    75   77   76 2
    76   78   76 2
    77   79   63 ar
    78   80   79 1
    79   20   22 1
    80   35   39 ar
    81   60   62 1
    82   75   79 ar
@<TRIPOS>SUBSTRUCTURE
     1 RES1 1
     2 RES2 41
     3 SUP3 81

@<TRIPOS>CRYSIN
   7.1990   11.7310   18.5010  94.7300  96.4700  97.3900   2 1

