# MOL2 file generated by ConQuest
# Please check atom types

@<TRIPOS>MOLECULE
NERFIC
    57    42     2
SMALL
USER_CHARGES
****
Generated from CSD

@<TRIPOS>ATOM
      1 O1         2.0674    7.5179   -2.5278 O.2       1 RES1   -1.0000
      2 H1         2.3983    6.3438   -2.6834 H         1 RES1    0.0000
      3 N1         1.8365    7.4470   -1.1817 N.pl3     1 RES1    1.0000
      4 C1         0.9312    8.4255   -0.5646 C.3       1 RES1    0.0000
      5 C2         1.8249    9.7908   -0.7564 C.3       1 RES1    0.0000
      6 H2         2.6988    9.6550   -0.3841 H         1 RES1    0.0000
      7 H3         1.9022    9.9929   -1.6918 H         1 RES1    0.0000
      8 H4         1.3946   10.5206   -0.3057 H         1 RES1    0.0000
      9 C3        -0.3795    8.6467   -1.1300 C.3       1 RES1    0.0000
     10 H5        -0.8422    9.3103   -0.6140 H         1 RES1    0.0000
     11 H6        -0.2908    8.9498   -2.0367 H         1 RES1    0.0000
     12 H7        -0.8769    7.8259   -1.1144 H         1 RES1    0.0000
     13 C4         1.1930    8.1908    0.9057 C.3       1 RES1    0.0000
     14 C5         1.1763    9.1598    1.9779 C.3       1 RES1    0.0000
     15 H8         0.4455    9.7684    1.8486 H         1 RES1    0.0000
     16 H9         1.0703    8.7062    2.8179 H         1 RES1    0.0000
     17 H10        2.0027    9.6482    1.9805 H         1 RES1    0.0000
     18 C6        -0.1587    7.1455    1.3391 C.3       1 RES1    0.0000
     19 H11       -0.9647    7.6642    1.3770 H         1 RES1    0.0000
     20 H12       -0.2522    6.4539    0.6793 H         1 RES1    0.0000
     21 H13        0.0060    6.7480    2.1974 H         1 RES1    0.0000
     22 N2         2.2282    7.1820    0.9239 N.pl3     1 RES1    0.0000
     23 H14        1.9447    6.2832    1.5207 H         1 RES1    0.0000
     24 C7         2.5807    6.7946   -0.3198 C.2       1 RES1    0.0000
     25 C8         3.6555    5.8510   -0.6114 C.ar      1 RES1    0.0000
     26 C9         3.7903    5.1740   -1.8632 C.ar      1 RES1    0.0000
     27 O2         2.9703    5.2877   -2.8463 O.3       1 RES1    0.0000
     28 C10        4.9299    4.3089   -2.0162 C.ar      1 RES1    0.0000
     29 O3         4.9789    3.7185   -3.2407 O.3       1 RES1    0.0000
     30 C11        5.8321    4.1136   -1.0143 C.ar      1 RES1    0.0000
     31 H15        6.5640    3.5514   -1.1366 H         1 RES1    0.0000
     32 C12        6.1225    2.9036   -3.5222 C.3       1 RES1    0.0000
     33 H16        6.0473    2.5420   -4.4091 H         1 RES1    0.0000
     34 H17        6.9181    3.4369   -3.4607 H         1 RES1    0.0000
     35 H18        6.1677    2.1861   -2.8872 H         1 RES1    0.0000
     36 C13        5.6359    4.7755    0.2000 C.ar      1 RES1    0.0000
     37 N3         6.6037    4.5759    1.2662 N.pl3     1 RES1    0.0000
     38 O4         7.5575    3.8445    1.0566 O.2       1 RES1    0.0000
     39 O5         6.4218    5.1435    2.3408 O.2       1 RES1    0.0000
     40 C14        4.5871    5.6187    0.4187 C.ar      1 RES1    0.0000
     41 H19        4.4878    6.0384    1.2424 H         1 RES1    0.0000
     42 C15        0.6232    9.6100   -1.3221 Du        2 SUP2    0.0000
     43 H20        0.0284   10.1670   -0.8165 Du        2 SUP2    0.0000
     44 H21        1.4334   10.0917   -1.5063 Du        2 SUP2    0.0000
     45 H22        0.2051    9.3608   -2.1491 Du        2 SUP2    0.0000
     46 C16       -0.4506    7.4947   -0.6702 Du        2 SUP2    0.0000
     47 H23       -0.3249    6.6773   -0.1829 Du        2 SUP2    0.0000
     48 H24       -1.1908    7.9775   -0.2952 Du        2 SUP2    0.0000
     49 H25       -0.6331    7.2937   -1.5912 Du        2 SUP2    0.0000
     50 C17        0.4247    8.5366    1.9400 Du        2 SUP2    0.0000
     51 H26       -0.1838    9.2294    1.6696 Du        2 SUP2    0.0000
     52 H27       -0.0737    7.7720    2.2392 Du        2 SUP2    0.0000
     53 H28        0.9763    8.8589    2.6559 Du        2 SUP2    0.0000
     54 C18        2.4402    9.5887    0.9550 Du        2 SUP2    0.0000
     55 H29        3.0788    9.4731    0.2469 Du        2 SUP2    0.0000
     56 H30        1.9866   10.4263    0.8413 Du        2 SUP2    0.0000
     57 H31        2.8937    9.5831    1.8002 Du        2 SUP2    0.0000
@<TRIPOS>BOND
     1    1    3 1
     2    2   27 1
     3    3    4 1
     4    4    5 1
     5    5    6 1
     6    7    5 1
     7    8    5 1
     8    9    4 1
     9   10    9 1
    10   11    9 1
    11   12    9 1
    12   13    4 1
    13   14   13 1
    14   15   14 1
    15   16   14 1
    16   17   14 1
    17   18   13 1
    18   19   18 1
    19   20   18 1
    20   21   18 1
    21   22   13 1
    22   23   22 1
    23   24    3 2
    24   25   24 1
    25   26   25 ar
    26   27   26 1
    27   28   26 ar
    28   29   28 1
    29   30   28 ar
    30   31   30 1
    31   32   29 1
    32   33   32 1
    33   34   32 1
    34   35   32 1
    35   36   30 ar
    36   37   36 1
    37   38   37 2
    38   39   37 2
    39   40   25 ar
    40   41   40 1
    41   22   24 1
    42   36   40 ar
@<TRIPOS>SUBSTRUCTURE
     1 RES1 1
     2 SUP2 42

@<TRIPOS>CRYSIN
  20.8240   11.2280   13.1485  90.0000  96.4940  90.0000  15 1

