# MOL2 file generated by ConQuest
# Please check atom types

@<TRIPOS>MOLECULE
NERGOJ
    42    44     1
SMALL
NO_CHARGES
****
Generated from CSD

@<TRIPOS>ATOM
      1 O1        14.3099    1.7946    3.5270 O.3       1 RES1    0.0000
      2 N1        17.7181    2.6432    5.4452 N.pl3     1 RES1    0.0000
      3 N2        16.7133    2.1884    4.6657 N.2       1 RES1    0.0000
      4 O2        13.2777    2.2792    5.4467 O.2       1 RES1    0.0000
      5 O3        15.1869    4.0179    8.6390 O.2       1 RES1    0.0000
      6 C1        17.2853    3.2561    6.5809 C.2       1 RES1    0.0000
      7 C2        18.2083    4.0156    7.4332 C.ar      1 RES1    0.0000
      8 C3        19.0910    4.9136    6.8335 C.ar      1 RES1    0.0000
      9 H1        19.1120    4.9848    5.9061 H         1 RES1    0.0000
     10 C4        15.9022    3.1596    6.5465 C.2       1 RES1    0.0000
     11 C5        19.0726    2.3328    5.0797 C.ar      1 RES1    0.0000
     12 C6        19.9220    5.6869    7.5868 C.ar      1 RES1    0.0000
     13 H2        20.4961    6.2978    7.1846 H         1 RES1    0.0000
     14 N3        20.7988    6.3621    9.7682 N.pl3     1 RES1    0.0000
     15 C7        15.6128    2.5150    5.3294 C.2       1 RES1    0.0000
     16 C8        19.5245    2.6712    3.8222 C.ar      1 RES1    0.0000
     17 H3        18.9666    3.0999    3.2152 H         1 RES1    0.0000
     18 C9        18.2110    3.8885    8.8115 C.ar      1 RES1    0.0000
     19 H4        17.6313    3.2875    9.2222 H         1 RES1    0.0000
     20 C10       19.8819    1.6950    5.9898 C.ar      1 RES1    0.0000
     21 H5        19.5576    1.4585    6.8290 H         1 RES1    0.0000
     22 O4        21.4909    7.1829    9.2087 O.2       1 RES1    0.0000
     23 C11       19.8926    5.5452    8.9563 C.ar      1 RES1    0.0000
     24 C12       14.2771    2.1843    4.7818 C.2       1 RES1    0.0000
     25 C13       19.0641    4.6457    9.5776 C.ar      1 RES1    0.0000
     26 H6        19.0806    4.5500   10.5023 H         1 RES1    0.0000
     27 C14       21.6467    1.7448    4.3801 C.ar      1 RES1    0.0000
     28 H7        22.5235    1.5503    4.1431 H         1 RES1    0.0000
     29 C15       14.9492    3.6940    7.5265 C.2       1 RES1    0.0000
     30 H8        14.0692    3.7867    7.2441 H         1 RES1    0.0000
     31 C16       20.8238    2.3588    3.4843 C.ar      1 RES1    0.0000
     32 H9        21.1415    2.5694    2.6363 H         1 RES1    0.0000
     33 O5        20.8406    6.1669   10.9550 O.2       1 RES1    0.0000
     34 C17       21.1869    1.4102    5.6344 C.ar      1 RES1    0.0000
     35 H10       21.7536    0.9930    6.2419 H         1 RES1    0.0000
     36 C18       13.0230    1.4340    2.9390 C.3       1 RES1    0.0000
     37 H11       12.4122    2.1866    2.9837 H         1 RES1    0.0000
     38 H12       12.6301    0.6906    3.4219 H         1 RES1    0.0000
     39 C19       13.2651    1.0565    1.5320 C.3       1 RES1    0.0000
     40 H13       12.4327    0.8207    1.1164 H         1 RES1    0.0000
     41 H14       13.8616    0.3062    1.5001 H         1 RES1    0.0000
     42 H15       13.6583    1.7976    1.0651 H         1 RES1    0.0000
@<TRIPOS>BOND
     1    1   24 1
     2    2    3 1
     3    3   15 2
     4    4   24 2
     5    5   29 2
     6    6    2 1
     7    7    6 1
     8    8    7 ar
     9    9    8 1
    10   10    6 2
    11   11    2 1
    12   12    8 ar
    13   13   12 1
    14   14   22 2
    15   15   10 1
    16   16   11 ar
    17   17   16 1
    18   18    7 ar
    19   19   18 1
    20   20   11 ar
    21   21   20 1
    22   23   12 ar
    23   24   15 1
    24   25   18 ar
    25   26   25 1
    26   27   28 1
    27   29   10 1
    28   30   29 1
    29   31   16 ar
    30   32   31 1
    31   33   14 2
    32   34   20 ar
    33   35   34 1
    34   36    1 1
    35   37   36 1
    36   38   36 1
    37   39   36 1
    38   40   39 1
    39   41   39 1
    40   42   39 1
    41   14   23 1
    42   23   25 ar
    43   27   31 ar
    44   27   34 ar
@<TRIPOS>SUBSTRUCTURE
     1 RES1 1

@<TRIPOS>CRYSIN
  27.5100    7.6560   18.9840  90.0000 119.4000  90.0000  15 1

