# MOL2 file generated by ConQuest
# Please check atom types

@<TRIPOS>MOLECULE
NERHUO
    76    76     4
SMALL
NO_CHARGES
****
Generated from CSD

@<TRIPOS>ATOM
      1 C1         0.9645    0.0000    9.6825 C.3       1 RES1    0.0000
      2 C2         0.0837   -0.3879   10.8523 C.3       1 RES1    0.0000
      3 H1         0.6070   -0.3768   11.6683 H         1 RES1    0.0000
      4 H2        -0.2715   -1.2782   10.7071 H         1 RES1    0.0000
      5 H3        -0.6484    0.2438   10.9289 H         1 RES1    0.0000
      6 C3         1.7434    1.3428    9.9413 C.3       1 RES1    0.0000
      7 H4         2.2398    1.5867    9.1451 H         1 RES1    0.0000
      8 H5         2.3590    1.2209   10.6820 H         1 RES1    0.0000
      9 H6         1.1121    2.0466   10.1565 H         1 RES1    0.0000
     10 N1         0.1489    0.1311    8.4505 N.pl3     1 RES1    0.0000
     11 O1        -0.8675    0.8755    8.3198 O.2       1 RES1    0.0000
     12 C4         0.7351   -0.6650    7.3916 C.2       1 RES1    0.0000
     13 N2         0.2632   -0.6779    6.2032 N.2       1 RES1    0.0000
     14 H7        -0.3343   -0.2087    6.1636 H         1 RES1    0.0000
     15 N3         1.7972   -1.3576    7.8854 N.2       1 RES1    0.0000
     16 C5         1.8824   -1.0122    9.2071 C.2       1 RES1    0.0000
     17 N4         2.8225   -1.5885   10.0099 N.3       1 RES1    0.0000
     18 H8         3.3720   -2.1777    9.6825 H         1 RES1    0.0000
     19 H9         2.8730   -1.3669   10.8497 H         1 RES1    0.0000
     20 C6         2.4830    0.1644    3.0607 C.3       2 RES2    0.0000
     21 C7         1.6452    1.4629    3.3564 C.3       2 RES2    0.0000
     22 H10        2.2385    2.1685    3.6588 H         2 RES2    0.0000
     23 H11        0.9891    1.2745    4.0457 H         2 RES2    0.0000
     24 H12        1.1921    1.7474    2.5470 H         2 RES2    0.0000
     25 C8         3.4473   -0.2161    4.2385 C.3       2 RES2    0.0000
     26 H13        4.0987    0.4913    4.3652 H         2 RES2    0.0000
     27 H14        3.9062   -1.0455    4.0259 H         2 RES2    0.0000
     28 H15        2.9330   -0.3325    5.0532 H         2 RES2    0.0000
     29 N5         3.2711    0.3565    1.8208 N.pl3     2 RES2    0.0000
     30 O2         4.2008    1.2228    1.6809 O.2       2 RES2    0.0000
     31 C9         2.7769   -0.5301    0.7922 C.2       2 RES2    0.0000
     32 N6         3.2248   -0.5541   -0.3922 N.2       2 RES2    0.0000
     33 H16        3.7684   -0.0277   -0.4674 H         2 RES2    0.0000
     34 N7         1.7929   -1.3004    1.2795 N.2       2 RES2    0.0000
     35 C10        1.6271   -0.9235    2.6382 C.2       2 RES2    0.0000
     36 N8         0.7229   -1.5608    3.3776 N.3       2 RES2    0.0000
     37 H17        0.2450   -2.1980    3.0277 H         2 RES2    0.0000
     38 H18        0.6099   -1.3410    4.2121 H         2 RES2    0.0000
     39 C11       -1.9009   -4.8893    0.2694 C.3       3 RES3    0.0000
     40 C12       -2.8051   -4.4792   -0.9256 C.3       3 RES3    0.0000
     41 H19       -3.2253   -3.6259   -0.7341 H         3 RES3    0.0000
     42 H20       -3.4892   -5.1534   -1.0603 H         3 RES3    0.0000
     43 H21       -2.2653   -4.4016   -1.7284 H         3 RES3    0.0000
     44 C13       -1.1375   -6.1176    0.0224 C.3       3 RES3    0.0000
     45 H22       -0.4069   -6.1785    0.6576 H         3 RES3    0.0000
     46 H23       -0.7812   -6.1028   -0.8794 H         3 RES3    0.0000
     47 H24       -1.7199   -6.8878    0.1268 H         3 RES3    0.0000
     48 N9        -2.7294   -5.0019    1.4934 N.pl3     3 RES3    0.0000
     49 O3        -3.7340   -5.7297    1.6426 O.2       3 RES3    0.0000
     50 C14       -2.2262   -4.1246    2.5233 C.2       3 RES3    0.0000
     51 N10       -2.6903   -4.0729    3.7328 N.2       3 RES3    0.0000
     52 H25       -3.2701   -4.5586    3.8027 H         3 RES3    0.0000
     53 N11       -1.1513   -3.3617    2.0057 N.2       3 RES3    0.0000
     54 C15       -0.9965   -3.7034    0.7883 C.2       3 RES3    0.0000
     55 N12       -0.1004   -3.2158   -0.0290 N.3       3 RES3    0.0000
     56 H26        0.4531   -2.6044    0.2482 H         3 RES3    0.0000
     57 H27       -0.0576   -3.5021   -0.8490 H         3 RES3    0.0000
     58 C16       -0.4876   -4.8874   -6.3551 C.3       4 RES4    0.0000
     59 C17        0.3931   -4.5586   -7.5117 C.3       4 RES4    0.0000
     60 H28        0.7437   -3.6610   -7.4074 H         4 RES4    0.0000
     61 H29       -0.1201   -4.6122   -8.3330 H         4 RES4    0.0000
     62 H30        1.1275   -5.1922   -7.5474 H         4 RES4    0.0000
     63 C18       -1.3533   -6.0788   -6.6746 C.3       4 RES4    0.0000
     64 H31       -1.9475   -5.8590   -7.4087 H         4 RES4    0.0000
     65 H32       -1.8776   -6.3152   -5.8943 H         4 RES4    0.0000
     66 H33       -0.7908   -6.8287   -6.9255 H         4 RES4    0.0000
     67 N13        0.2642   -5.1405   -5.0981 N.pl3     4 RES4    0.0000
     68 O4         1.1707   -6.0012   -4.9502 O.2       4 RES4    0.0000
     69 C19       -0.1893   -4.2834   -4.0642 C.2       4 RES4    0.0000
     70 N14        0.2838   -4.2982   -2.8534 N.2       4 RES4    0.0000
     71 H34        0.8075   -4.8449   -2.7926 H         4 RES4    0.0000
     72 N15       -1.1919   -3.4430   -4.5805 N.2       4 RES4    0.0000
     73 C20       -1.3438   -3.6850   -5.8269 C.2       4 RES4    0.0000
     74 N16       -2.1786   -3.1253   -6.6561 N.3       4 RES4    0.0000
     75 H35       -2.7209   -2.5065   -6.3749 H         4 RES4    0.0000
     76 H36       -2.1940   -3.3728   -7.4906 H         4 RES4    0.0000
@<TRIPOS>BOND
     1    1    2 1
     2    2    3 1
     3    4    2 1
     4    5    2 1
     5    6    1 1
     6    7    6 1
     7    8    6 1
     8    9    6 1
     9   10    1 1
    10   11   10 1
    11   12   10 1
    12   13   12 2
    13   14   13 1
    14   15   12 1
    15   16    1 1
    16   17   16 1
    17   18   17 1
    18   19   17 1
    19   20   21 1
    20   21   22 1
    21   23   21 1
    22   24   21 1
    23   25   20 1
    24   26   25 1
    25   27   25 1
    26   28   25 1
    27   29   20 1
    28   30   29 1
    29   31   29 1
    30   32   31 2
    31   33   32 1
    32   34   31 1
    33   35   20 1
    34   36   35 1
    35   37   36 1
    36   38   36 1
    37   39   40 1
    38   40   41 1
    39   42   40 1
    40   43   40 1
    41   44   39 1
    42   45   44 1
    43   46   44 1
    44   47   44 1
    45   48   39 1
    46   49   48 1
    47   50   48 1
    48   51   50 2
    49   52   51 1
    50   53   50 1
    51   54   39 1
    52   55   54 1
    53   56   55 1
    54   57   55 1
    55   58   59 1
    56   59   60 1
    57   61   59 1
    58   62   59 1
    59   63   58 1
    60   64   63 1
    61   65   63 1
    62   66   63 1
    63   67   58 1
    64   68   67 1
    65   69   67 1
    66   70   69 2
    67   71   70 1
    68   72   69 1
    69   73   58 1
    70   74   73 1
    71   75   74 1
    72   76   74 1
    73   15   16 2
    74   34   35 2
    75   53   54 2
    76   72   73 2
@<TRIPOS>SUBSTRUCTURE
     1 RES1 1
     2 RES2 20
     3 RES3 39
     4 RES4 58

@<TRIPOS>CRYSIN
   5.9460   18.4710   13.2040  90.0000  90.1230  90.0000   4 1

