# MOL2 file generated by ConQuest
# Please check atom types

@<TRIPOS>MOLECULE
NERKAX
    36    35     1
SMALL
USER_CHARGES
****
Generated from CSD

@<TRIPOS>ATOM
      1 N1         8.5444    7.0011   -0.6367 N.1       1 RES1    0.0000
      2 C1         7.4792    7.4373   -0.5724 C.1       1 RES1    0.0000
      3 C2         5.5898    8.4168   -1.3589 C.2       1 RES1    0.0000
      4 N2         6.2914    7.9735   -0.3500 N.2       1 RES1    0.0000
      5 N3         5.9242    8.3419   -2.6201 N.3       1 RES1    0.0000
      6 H1         5.3900    8.6181   -3.2446 H         1 RES1    0.0000
      7 H2         6.6558    7.9403   -2.8284 H         1 RES1    0.0000
      8 N4         3.6423    8.4690    0.1147 N.pl3     1 RES1    1.0000
      9 O1         3.2446    9.0455    1.1679 O.2       1 RES1   -1.0000
     10 C3         4.3566    9.2231   -0.9774 C.3       1 RES1    0.0000
     11 C4         3.3569    9.4757   -2.0906 C.3       1 RES1    0.0000
     12 H3         3.0491    8.6599   -2.4879 H         1 RES1    0.0000
     13 H4         3.7711    9.9777   -2.7622 H         1 RES1    0.0000
     14 H5         2.5983    9.9463   -1.6933 H         1 RES1    0.0000
     15 C5         4.8574   10.5328   -0.3888 C.3       1 RES1    0.0000
     16 H6         4.1258   11.1282   -0.1703 H         1 RES1    0.0000
     17 H7         5.3497   10.3898    0.3784 H         1 RES1    0.0000
     18 H8         5.4444   10.9514   -1.0689 H         1 RES1    0.0000
     19 N1E       -1.5784    8.6871    0.6367 N.1       1 RES1    0.0000
     20 C1E       -0.5132    8.2509    0.5724 C.1       1 RES1    0.0000
     21 C2E        1.3762    7.2714    1.3589 C.2       1 RES1    0.0000
     22 N2E        0.6746    7.7147    0.3500 N.2       1 RES1    0.0000
     23 N3E        1.0418    7.3463    2.6201 N.3       1 RES1    0.0000
     24 H1E        1.5760    7.0701    3.2446 H         1 RES1    0.0000
     25 H2E        0.3102    7.7479    2.8284 H         1 RES1    0.0000
     26 N4E        3.3237    7.2192   -0.1147 N.pl3     1 RES1    1.0000
     27 O1E        3.7214    6.6427   -1.1679 O.2       1 RES1   -1.0000
     28 C3E        2.6094    6.4651    0.9774 C.3       1 RES1    0.0000
     29 C4E        3.6091    6.2125    2.0906 C.3       1 RES1    0.0000
     30 H3E        3.9169    7.0283    2.4879 H         1 RES1    0.0000
     31 H4E        3.1949    5.7105    2.7622 H         1 RES1    0.0000
     32 H5E        4.3677    5.7419    1.6933 H         1 RES1    0.0000
     33 C5E        2.1086    5.1554    0.3888 C.3       1 RES1    0.0000
     34 H6E        2.8402    4.5600    0.1703 H         1 RES1    0.0000
     35 H7E        1.6163    5.2984   -0.3784 H         1 RES1    0.0000
     36 H8E        1.5216    4.7368    1.0689 H         1 RES1    0.0000
@<TRIPOS>BOND
     1    1    2 3
     2    2    4 1
     3    3    4 2
     4    5    3 1
     5    6    5 1
     6    7    5 1
     7    8    9 1
     8   10    3 1
     9   11   10 1
    10   12   11 1
    11   13   11 1
    12   14   11 1
    13   15   10 1
    14   16   15 1
    15   17   15 1
    16   18   15 1
    17   19   20 3
    18   20   22 1
    19   21   22 2
    20   23   21 1
    21   24   23 1
    22   25   23 1
    23   26    8 2
    24   27   26 1
    25   28   21 1
    26   29   28 1
    27   30   29 1
    28   31   29 1
    29   32   29 1
    30   33   28 1
    31   34   33 1
    32   35   33 1
    33   36   33 1
    34    8   10 1
    35   26   28 1
@<TRIPOS>SUBSTRUCTURE
     1 RES1 1

@<TRIPOS>CRYSIN
  13.9320   10.4588   11.0347  90.0000 120.9900  90.0000  15 1

