# MOL2 file generated by ConQuest
# Please check atom types

@<TRIPOS>MOLECULE
NERPEG
    45    48     1
SMALL
NO_CHARGES
****
Generated from CSD

@<TRIPOS>ATOM
      1 C1        -1.5951   11.9159    1.4674 C.ar      1 RES1    0.0000
      2 C2        -2.8943   11.6806    1.0559 C.ar      1 RES1    0.0000
      3 H1        -3.3779   10.9747    1.4187 H         1 RES1    0.0000
      4 C3        -3.4779   12.5088    0.0934 C.ar      1 RES1    0.0000
      5 H2        -4.3420   12.3294   -0.1990 H         1 RES1    0.0000
      6 C4        -2.7984   13.5804   -0.4291 C.ar      1 RES1    0.0000
      7 H3        -3.2067   14.1348   -1.0559 H         1 RES1    0.0000
      8 C5        -1.5188   13.8285   -0.0217 C.ar      1 RES1    0.0000
      9 H4        -1.0486   14.5484   -0.3763 H         1 RES1    0.0000
     10 C6        -0.9187   13.0062    0.9246 C.ar      1 RES1    0.0000
     11 H5        -0.0485   13.1867    1.2007 H         1 RES1    0.0000
     12 C7        -0.9290   11.0190    2.4908 C.3       1 RES1    0.0000
     13 H6        -0.8630   11.4908    3.3355 H         1 RES1    0.0000
     14 H7        -1.4765   10.2304    2.6316 H         1 RES1    0.0000
     15 N1         0.4042   10.6102    2.0620 N.3       1 RES1    0.0000
     16 O1         0.1516    9.7913    0.8591 O.3       1 RES1    0.0000
     17 C8         0.9507    8.6067    0.9205 C.3       1 RES1    0.0000
     18 H8         1.4260    8.4728    0.0866 H         1 RES1    0.0000
     19 H9         0.3959    7.8298    1.0911 H         1 RES1    0.0000
     20 C9         1.9282    8.8222    2.0617 C.3       1 RES1    0.0000
     21 H10        2.1777    7.9719    2.4813 H         1 RES1    0.0000
     22 C10        3.1541    9.5980    1.6217 C.3       1 RES1    0.0000
     23 H11        3.7109    9.0260    1.0694 H         1 RES1    0.0000
     24 H12        2.8768   10.3539    1.0816 H         1 RES1    0.0000
     25 O2         3.9202   10.0685    2.7304 O.3       1 RES1    0.0000
     26 C11        3.2047   11.0155    3.5616 C.3       1 RES1    0.0000
     27 C12        1.9261   10.3562    4.0719 C.3       1 RES1    0.0000
     28 H13        2.2055    9.6515    4.6933 H         1 RES1    0.0000
     29 C13        1.0744    9.6760    3.0025 C.3       1 RES1    0.0000
     30 H14        0.4011    9.1099    3.4343 H         1 RES1    0.0000
     31 O3         1.0950   11.2357    4.8124 O.3       1 RES1    0.0000
     32 H15        1.5456   11.6270    5.3755 H         1 RES1    0.0000
     33 C14        4.2162   11.2648    4.6973 C.3       1 RES1    0.0000
     34 H16        4.6946   10.4389    4.9207 H         1 RES1    0.0000
     35 O4         3.4975   11.7493    5.8304 O.3       1 RES1    0.0000
     36 H17        4.0264   11.9718    6.4165 H         1 RES1    0.0000
     37 C15        5.1607   12.2851    4.1410 C.3       1 RES1    0.0000
     38 H18        5.8515   11.8623    3.6090 H         1 RES1    0.0000
     39 H19        5.5803   12.7918    4.8544 H         1 RES1    0.0000
     40 C16        4.2987   13.1785    3.2868 C.3       1 RES1    0.0000
     41 H20        4.7915   13.4663    2.5030 H         1 RES1    0.0000
     42 H21        4.0357   13.9671    3.7890 H         1 RES1    0.0000
     43 C17        3.0675   12.3900    2.8712 C.3       1 RES1    0.0000
     44 H22        3.0376   12.2863    1.9074 H         1 RES1    0.0000
     45 H23        2.2591   12.8396    3.1622 H         1 RES1    0.0000
@<TRIPOS>BOND
     1    1    2 ar
     2    2    3 1
     3    4    2 ar
     4    5    4 1
     5    6    4 ar
     6    7    6 1
     7    8    6 ar
     8    9    8 1
     9   10    1 ar
    10   11   10 1
    11   12    1 1
    12   13   12 1
    13   14   12 1
    14   15   12 1
    15   16   15 1
    16   17   16 1
    17   18   17 1
    18   19   17 1
    19   20   17 1
    20   21   20 1
    21   22   20 1
    22   23   22 1
    23   24   22 1
    24   25   22 1
    25   26   25 1
    26   27   26 1
    27   28   27 1
    28   29   15 1
    29   30   29 1
    30   31   27 1
    31   32   31 1
    32   33   26 1
    33   34   33 1
    34   35   33 1
    35   36   35 1
    36   37   33 1
    37   38   37 1
    38   39   37 1
    39   40   37 1
    40   41   40 1
    41   42   40 1
    42   43   26 1
    43   44   43 1
    44   45   43 1
    45    8   10 ar
    46   20   29 1
    47   27   29 1
    48   40   43 1
@<TRIPOS>SUBSTRUCTURE
     1 RES1 1

@<TRIPOS>CRYSIN
  10.3110   11.6480   13.5370  90.0000  90.0000  90.0000  19 1

