# MOL2 file generated by ConQuest
# Please check atom types

@<TRIPOS>MOLECULE
NERSUB
    47    48     1
SMALL
NO_CHARGES
****
Generated from CSD

@<TRIPOS>ATOM
      1 O1         8.1706    3.6789    7.6150 O.2       1 RES1    0.0000
      2 O2         9.6680    4.9953    4.9543 O.2       1 RES1    0.0000
      3 O3         0.7444    2.5983    9.4849 O.3       1 RES1    0.0000
      4 O4         6.9525    2.5852    3.1900 O.2       1 RES1    0.0000
      5 O5        10.6896    4.0621    6.7402 O.3       1 RES1    0.0000
      6 O6        13.7814    0.5024    2.9362 O.2       1 RES1    0.0000
      7 O7        13.5383    1.9401    1.3384 O.2       1 RES1    0.0000
      8 N1         5.7285    2.9808    7.0573 N.pl3     1 RES1    0.0000
      9 H1         6.3370    3.2551    7.6297 H         1 RES1    0.0000
     10 N2        13.1248    1.3412    2.3287 N.pl3     1 RES1    0.0000
     11 C1         9.2285    2.2530    3.6496 C.ar      1 RES1    0.0000
     12 C2         7.5124    2.9243    5.4612 C.2       1 RES1    0.0000
     13 C3         8.4120    3.5273    6.4036 C.2       1 RES1    0.0000
     14 C4        11.7659    1.6417    2.7969 C.ar      1 RES1    0.0000
     15 C5         9.6270    2.5645    2.3494 C.ar      1 RES1    0.0000
     16 H2         9.0098    2.9746    1.7562 H         1 RES1    0.0000
     17 C6         4.4126    2.8760    7.5794 C.ar      1 RES1    0.0000
     18 C7         2.9904    3.2420    9.4939 C.ar      1 RES1    0.0000
     19 H3         2.8669    3.5583   10.3815 H         1 RES1    0.0000
     20 C8         7.8315    2.6107    4.0653 C.2       1 RES1    0.0000
     21 C9         9.6708    4.2524    5.9112 C.2       1 RES1    0.0000
     22 C10       10.9083    2.2847    1.9090 C.ar      1 RES1    0.0000
     23 H4        11.1913    2.5225    1.0337 H         1 RES1    0.0000
     24 C11        3.3491    2.3440    6.8662 C.ar      1 RES1    0.0000
     25 H5         3.4724    2.0504    5.9703 H         1 RES1    0.0000
     26 C12        1.9152    2.6789    8.7843 C.ar      1 RES1    0.0000
     27 C13        6.1717    2.7279    5.8443 C.2       1 RES1    0.0000
     28 H6         5.5588    2.3984    5.1976 H         1 RES1    0.0000
     29 C14        4.2240    3.3316    8.8915 C.ar      1 RES1    0.0000
     30 H7         4.9549    3.7051    9.3703 H         1 RES1    0.0000
     31 C15        2.1002    2.2433    7.4732 C.ar      1 RES1    0.0000
     32 H8         1.3703    1.8753    6.9901 H         1 RES1    0.0000
     33 C16       10.1229    1.5872    4.5157 C.ar      1 RES1    0.0000
     34 H9         9.8520    1.3619    5.3981 H         1 RES1    0.0000
     35 C17       11.3957    1.2633    4.0736 C.ar      1 RES1    0.0000
     36 H10       11.9998    0.7919    4.6359 H         1 RES1    0.0000
     37 C18       11.8764    4.8954    6.5212 C.3       1 RES1    0.0000
     38 H11       12.3862    4.9671    7.3669 H         1 RES1    0.0000
     39 H12       11.5917    5.8065    6.2589 H         1 RES1    0.0000
     40 C19       -0.3738    1.9994    8.8170 C.3       1 RES1    0.0000
     41 H13       -1.1493    1.9945    9.4169 H         1 RES1    0.0000
     42 H14       -0.1510    1.0793    8.5648 H         1 RES1    0.0000
     43 H15       -0.5894    2.5156    8.0117 H         1 RES1    0.0000
     44 C20       12.7664    4.3296    5.4555 C.3       1 RES1    0.0000
     45 H16       13.5442    4.9126    5.3376 H         1 RES1    0.0000
     46 H17       12.2695    4.2717    4.6117 H         1 RES1    0.0000
     47 H18       13.0667    3.4350    5.7214 H         1 RES1    0.0000
@<TRIPOS>BOND
     1    1   13 2
     2    2   21 2
     3    3   26 1
     4    4   20 2
     5    5   21 1
     6    6   10 2
     7    7   10 2
     8    8    9 1
     9   10   14 1
    10   11   15 ar
    11   12   13 1
    12   13   21 1
    13   14   22 ar
    14   15   16 1
    15   17    8 1
    16   18   19 1
    17   20   11 1
    18   22   15 ar
    19   23   22 1
    20   24   17 ar
    21   25   24 1
    22   26   18 ar
    23   27    8 1
    24   28   27 1
    25   29   17 ar
    26   30   29 1
    27   31   24 ar
    28   32   31 1
    29   33   11 ar
    30   34   33 1
    31   35   14 ar
    32   36   35 1
    33   37    5 1
    34   38   37 1
    35   39   37 1
    36   40    3 1
    37   41   40 1
    38   42   40 1
    39   43   40 1
    40   44   37 1
    41   45   44 1
    42   46   44 1
    43   47   44 1
    44   12   20 1
    45   12   27 2
    46   18   29 ar
    47   26   31 ar
    48   33   35 ar
@<TRIPOS>SUBSTRUCTURE
     1 RES1 1

@<TRIPOS>CRYSIN
  30.3780    6.8920   17.7110  90.0000 102.5900  90.0000  15 1

