# MOL2 file generated by ConQuest
# Please check atom types

@<TRIPOS>MOLECULE
NERTIQ
    45    45     1
SMALL
NO_CHARGES
****
Generated from CSD

@<TRIPOS>ATOM
      1 O1         1.6335    6.6099    3.1993 O.3       1 RES1    0.0000
      2 O2         4.6905   -1.9433    5.5808 O.2       1 RES1    0.0000
      3 O3         4.1388    7.5225    4.8224 O.2       1 RES1    0.0000
      4 O4         1.5930    4.3930    4.9653 O.2       1 RES1    0.0000
      5 O5         1.1834    7.4182    5.2582 O.2       1 RES1    0.0000
      6 O6         3.5662   -2.0914    3.7395 O.2       1 RES1    0.0000
      7 N1         6.1431    5.7369    4.6434 N.pl3     1 RES1    0.0000
      8 H1         5.9456    6.5723    4.7022 H         1 RES1    0.0000
      9 C1         3.9574    2.0848    5.8280 C.ar      1 RES1    0.0000
     10 H2         4.2956    2.6049    6.5207 H         1 RES1    0.0000
     11 N2         4.0087   -1.4465    4.6868 N.pl3     1 RES1    0.0000
     12 C2         4.2229    0.7326    5.8040 C.ar      1 RES1    0.0000
     13 H3         4.7245    0.3302    6.4762 H         1 RES1    0.0000
     14 C3         3.7197   -0.0111    4.7467 C.ar      1 RES1    0.0000
     15 C4         7.5449    5.3779    4.4497 C.3       1 RES1    0.0000
     16 H4         7.9315    5.9567    3.7730 H         1 RES1    0.0000
     17 H5         7.5972    4.4643    4.1251 H         1 RES1    0.0000
     18 C5         5.1689    4.8704    4.7342 C.2       1 RES1    0.0000
     19 H6         5.4005    3.9690    4.7253 H         1 RES1    0.0000
     20 C6         8.3533    5.4991    5.7302 C.3       1 RES1    0.0000
     21 H7         8.2975    6.4088    6.0610 H         1 RES1    0.0000
     22 H8         7.9790    4.9116    6.4042 H         1 RES1    0.0000
     23 C7         3.7981    5.1818    4.8445 C.2       1 RES1    0.0000
     24 C8         3.3770    6.5465    4.7520 C.2       1 RES1    0.0000
     25 C9         0.2383    6.7965    2.8108 C.3       1 RES1    0.0000
     26 H9        -0.0496    7.6992    3.0180 H         1 RES1    0.0000
     27 H10       -0.3294    6.1747    3.2910 H         1 RES1    0.0000
     28 C10        3.1893    2.6842    4.8303 C.ar      1 RES1    0.0000
     29 C11        2.6975    1.9048    3.7845 C.ar      1 RES1    0.0000
     30 H11        2.1827    2.2987    3.1185 H         1 RES1    0.0000
     31 C12        2.9684    0.5509    3.7321 C.ar      1 RES1    0.0000
     32 H12        2.6530    0.0305    3.0287 H         1 RES1    0.0000
     33 C13        1.9098    6.8812    4.4675 C.2       1 RES1    0.0000
     34 C14        9.8086    5.1361    5.4981 C.3       1 RES1    0.0000
     35 H13       10.1789    5.7387    4.8338 H         1 RES1    0.0000
     36 H14        9.8524    4.2367    5.1371 H         1 RES1    0.0000
     37 C15        2.7938    4.1362    4.8916 C.2       1 RES1    0.0000
     38 C16       10.6644    5.2033    6.7510 C.3       1 RES1    0.0000
     39 H15       11.5684    4.9645    6.5340 H         1 RES1    0.0000
     40 H16       10.3206    4.5926    7.4064 H         1 RES1    0.0000
     41 H17       10.6458    6.0962    7.1040 H         1 RES1    0.0000
     42 C17        0.1492    6.5498    1.3418 C.3       1 RES1    0.0000
     43 H18       -0.7592    6.6652    1.0520 H         1 RES1    0.0000
     44 H19        0.4356    5.6537    1.1498 H         1 RES1    0.0000
     45 H20        0.7141    7.1718    0.8777 H         1 RES1    0.0000
@<TRIPOS>BOND
     1    1   25 1
     2    2   11 2
     3    3   24 2
     4    4   37 2
     5    5   33 2
     6    6   11 2
     7    7    8 1
     8    9   10 1
     9   11   14 1
    10   12    9 ar
    11   13   12 1
    12   14   12 ar
    13   15    7 1
    14   16   15 1
    15   17   15 1
    16   18    7 1
    17   19   18 1
    18   20   15 1
    19   21   20 1
    20   22   20 1
    21   23   18 2
    22   24   23 1
    23   25   26 1
    24   27   25 1
    25   28    9 ar
    26   29   28 ar
    27   30   29 1
    28   31   14 ar
    29   32   31 1
    30   33    1 1
    31   34   20 1
    32   35   34 1
    33   36   34 1
    34   37   23 1
    35   38   34 1
    36   39   38 1
    37   40   38 1
    38   41   38 1
    39   42   25 1
    40   43   42 1
    41   44   42 1
    42   45   42 1
    43   24   33 1
    44   28   37 1
    45   29   31 ar
@<TRIPOS>SUBSTRUCTURE
     1 RES1 1

@<TRIPOS>CRYSIN
  12.1528   16.0299    8.9727  90.0000  97.6780  90.0000  14 1

