# MOL2 file generated by ConQuest
# Please check atom types

@<TRIPOS>MOLECULE
NERYOZ
    82    86     2
SMALL
NO_CHARGES
****
Generated from CSD

@<TRIPOS>ATOM
      1 O1        -7.9060   -0.4575   21.1413 O.2       1 RES1    0.0000
      2 O2        -9.8143   -0.2619   22.1174 O.2       1 RES1    0.0000
      3 O3       -10.2396    1.2133   26.6058 O.2       1 RES1    0.0000
      4 O4        -8.4866    1.5556   27.8040 O.2       1 RES1    0.0000
      5 N1        -4.3285   -0.3297   22.7505 N.2       1 RES1    0.0000
      6 N2        -5.6822   -0.1816   22.4904 N.3       1 RES1    0.0000
      7 N3        -8.5865   -0.2165   22.1441 N.pl3     1 RES1    0.0000
      8 N4        -9.0173    1.2301   26.7478 N.pl3     1 RES1    0.0000
      9 C1        -1.7342   -1.1707   23.3106 C.ar      1 RES1    0.0000
     10 H1        -2.3658   -1.2790   23.9846 H         1 RES1    0.0000
     11 C2        -0.3905   -1.3551   23.5942 C.ar      1 RES1    0.0000
     12 H2        -0.1266   -1.5933   24.4543 H         1 RES1    0.0000
     13 C3         0.5539   -1.1868   22.6064 C.ar      1 RES1    0.0000
     14 H3         1.4576   -1.2979   22.7961 H         1 RES1    0.0000
     15 C4         0.1520   -0.8578   21.3491 C.ar      1 RES1    0.0000
     16 H4         0.7864   -0.7565   20.6752 H         1 RES1    0.0000
     17 C5        -1.1934   -0.6706   21.0591 C.ar      1 RES1    0.0000
     18 H5        -1.4543   -0.4373   20.1983 H         1 RES1    0.0000
     19 C6        -2.1436   -0.8284   22.0441 C.ar      1 RES1    0.0000
     20 C7        -3.5795   -0.5826   21.7399 C.2       1 RES1    0.0000
     21 C8        -4.0466   -0.6112   20.3261 C.ar      1 RES1    0.0000
     22 C9        -4.2132   -1.8113   19.6805 C.ar      1 RES1    0.0000
     23 H6        -4.0211   -2.6069   20.1236 H         1 RES1    0.0000
     24 C10       -4.6698   -1.8413   18.3678 C.ar      1 RES1    0.0000
     25 H7        -4.8150   -2.6572   17.9458 H         1 RES1    0.0000
     26 C11       -4.9036   -0.6859   17.7006 C.ar      1 RES1    0.0000
     27 H8        -5.1879   -0.7118   16.8141 H         1 RES1    0.0000
     28 C12       -4.7211    0.5141   18.3215 C.ar      1 RES1    0.0000
     29 H9        -4.8791    1.3076   17.8639 H         1 RES1    0.0000
     30 C13       -4.3032    0.5421   19.6279 C.ar      1 RES1    0.0000
     31 H10       -4.1904    1.3628   20.0524 H         1 RES1    0.0000
     32 C14       -6.5100    0.1460   23.4960 C.ar      1 RES1    0.0000
     33 C15       -7.9271    0.1537   23.3853 C.ar      1 RES1    0.0000
     34 C16       -8.7396    0.5022   24.4458 C.ar      1 RES1    0.0000
     35 H11       -9.6635    0.4946   24.3476 H         1 RES1    0.0000
     36 C17       -8.1784    0.8571   25.6344 C.ar      1 RES1    0.0000
     37 C18       -6.7901    0.8641   25.7970 C.ar      1 RES1    0.0000
     38 H12       -6.4134    1.1092   26.6108 H         1 RES1    0.0000
     39 C19       -5.9881    0.5071   24.7465 C.ar      1 RES1    0.0000
     40 H13       -5.0671    0.5043   24.8671 H         1 RES1    0.0000
     41 O5        -3.0631    2.7494   22.1975 O.2       2 RES2    0.0000
     42 O6        -3.4278    1.2601   26.6884 O.2       2 RES2    0.0000
     43 O7        -1.6608    0.8669   27.8524 O.2       2 RES2    0.0000
     44 N5         2.4213    2.7277   22.7420 N.2       2 RES2    0.0000
     45 N6         1.0834    2.5768   22.4907 N.3       2 RES2    0.0000
     46 N7        -1.8361    2.6222   22.1818 N.pl3     2 RES2    0.0000
     47 N8        -2.2078    1.2008   26.8069 N.pl3     2 RES2    0.0000
     48 C20        4.9883    3.6526   23.3387 C.ar      2 RES2    0.0000
     49 H14        4.3410    3.8447   23.9775 H         2 RES2    0.0000
     50 C21        6.3298    3.7909   23.6505 C.ar      2 RES2    0.0000
     51 H15        6.5810    4.0710   24.5006 H         2 RES2    0.0000
     52 C22        7.2948    3.5157   22.7106 C.ar      2 RES2    0.0000
     53 H16        8.1940    3.5925   22.9348 H         2 RES2    0.0000
     54 C23        6.9413    3.1336   21.4595 C.ar      2 RES2    0.0000
     55 H17        7.5968    2.9610   20.8246 H         2 RES2    0.0000
     56 C24        5.5958    2.9994   21.1253 C.ar      2 RES2    0.0000
     57 H18        5.3548    2.7550   20.2624 H         2 RES2    0.0000
     58 C25        4.6114    3.2293   22.0769 C.ar      2 RES2    0.0000
     59 C26        3.1905    3.0099   21.7395 C.2       2 RES2    0.0000
     60 C27        2.7381    3.0672   20.3229 C.ar      2 RES2    0.0000
     61 C28        2.8604    4.2226   19.5838 C.ar      2 RES2    0.0000
     62 H19        3.2237    4.9867   19.9706 H         2 RES2    0.0000
     63 C29        2.4389    4.2428   18.2610 C.ar      2 RES2    0.0000
     64 H20        2.5155    5.0259   17.7643 H         2 RES2    0.0000
     65 C30        1.9137    3.1168   17.6792 C.ar      2 RES2    0.0000
     66 H21        1.6349    3.1378   16.7928 H         2 RES2    0.0000
     67 C31        1.8004    1.9754   18.3977 C.ar      2 RES2    0.0000
     68 H22        1.4470    1.2112   18.0027 H         2 RES2    0.0000
     69 C32        2.2120    1.9454   19.7211 C.ar      2 RES2    0.0000
     70 H23        2.1332    1.1574   20.2090 H         2 RES2    0.0000
     71 C33        0.2604    2.2478   23.5202 C.ar      2 RES2    0.0000
     72 C34       -1.1678    2.2653   23.4103 C.ar      2 RES2    0.0000
     73 C35       -1.9510    1.9482   24.4874 C.ar      2 RES2    0.0000
     74 H24       -2.8776    1.9810   24.4116 H         2 RES2    0.0000
     75 C36       -1.3808    1.5856   25.6703 C.ar      2 RES2    0.0000
     76 C37        0.0101    1.5312   25.8073 C.ar      2 RES2    0.0000
     77 H25        0.3933    1.2650   26.6108 H         2 RES2    0.0000
     78 C38        0.7960    1.8692   24.7561 C.ar      2 RES2    0.0000
     79 H26        1.7204    1.8497   24.8600 H         2 RES2    0.0000
     80 O8        -1.1705    2.7892   21.1637 O.2       2 RES2    0.0000
     81 H27       -5.9630   -0.4680   21.6466 H         1 RES1    0.0000
     82 H28        0.7316    2.6963   21.7392 H         2 RES2    0.0000
@<TRIPOS>BOND
     1    1    7 2
     2    2    7 2
     3    3    8 2
     4    4    8 2
     5    5    6 1
     6    6   32 1
     7    7   33 1
     8    8   36 1
     9    9   10 1
    10   11    9 ar
    11   12   11 1
    12   13   11 ar
    13   14   13 1
    14   15   13 ar
    15   16   15 1
    16   17   15 ar
    17   18   17 1
    18   19    9 ar
    19   20    5 2
    20   21   20 1
    21   22   21 ar
    22   23   22 1
    23   24   22 ar
    24   25   24 1
    25   26   24 ar
    26   27   26 1
    27   28   26 ar
    28   29   28 1
    29   30   21 ar
    30   31   30 1
    31   32   33 ar
    32   33   34 ar
    33   34   35 1
    34   36   34 ar
    35   37   36 ar
    36   38   37 1
    37   39   32 ar
    38   40   39 1
    39   41   46 2
    40   42   47 2
    41   43   47 2
    42   44   45 1
    43   45   71 1
    44   46   72 1
    45   47   75 1
    46   48   49 1
    47   50   48 ar
    48   51   50 1
    49   52   50 ar
    50   53   52 1
    51   54   52 ar
    52   55   54 1
    53   56   54 ar
    54   57   56 1
    55   58   48 ar
    56   59   44 2
    57   60   59 1
    58   61   60 ar
    59   62   61 1
    60   63   61 ar
    61   64   63 1
    62   65   63 ar
    63   66   65 1
    64   67   65 ar
    65   68   67 1
    66   69   60 ar
    67   70   69 1
    68   71   72 ar
    69   72   73 ar
    70   73   74 1
    71   75   73 ar
    72   76   75 ar
    73   77   76 1
    74   78   71 ar
    75   79   78 1
    76   80   46 2
    77   81    6 1
    78   82   45 1
    79   17   19 ar
    80   19   20 1
    81   28   30 ar
    82   37   39 ar
    83   56   58 ar
    84   58   59 1
    85   67   69 ar
    86   76   78 ar
@<TRIPOS>SUBSTRUCTURE
     1 RES1 1
     2 RES2 41

@<TRIPOS>CRYSIN
  13.6764    6.9852   37.9306  90.0000 110.2530  90.0000  14 1

