# MOL2 file generated by ConQuest
# Please check atom types

@<TRIPOS>MOLECULE
NETDUM
    57    58     1
SMALL
NO_CHARGES
****
Generated from CSD

@<TRIPOS>ATOM
      1 C1         6.3823   10.6879    8.4505 C.ar      1 RES1    0.0000
      2 C2         5.3819   10.2596    9.3379 C.ar      1 RES1    0.0000
      3 H1         5.4474   10.4736   10.2619 H         1 RES1    0.0000
      4 C3         4.3038    9.5308    8.8778 C.ar      1 RES1    0.0000
      5 H2         3.6131    9.2699    9.4755 H         1 RES1    0.0000
      6 C4         4.2366    9.1832    7.5393 C.ar      1 RES1    0.0000
      7 C5         5.2204    9.5792    6.6427 C.ar      1 RES1    0.0000
      8 C6         6.2886   10.3391    7.1026 C.ar      1 RES1    0.0000
      9 H3         6.9605   10.6240    6.4939 H         1 RES1    0.0000
     10 C7         7.4815   11.5611    8.8820 C.2       1 RES1    0.0000
     11 H4         8.1709   11.7379    8.2524 H         1 RES1    0.0000
     12 C8         7.5893   12.1238   10.0818 C.2       1 RES1    0.0000
     13 H5         6.9740   11.8843   10.7639 H         1 RES1    0.0000
     14 C9         8.6449   13.1127   10.3754 C.2       1 RES1    0.0000
     15 O1         8.5138   13.5965   11.6203 O.3       1 RES1    0.0000
     16 C10        9.4075   14.6833   11.9780 C.3       1 RES1    0.0000
     17 H6         9.1637   15.5046   11.4819 H         1 RES1    0.0000
     18 H7        10.3425   14.4458   11.7542 H         1 RES1    0.0000
     19 C11        9.2653   14.9058   13.4584 C.3       1 RES1    0.0000
     20 H8         8.3409   15.1569   13.6633 H         1 RES1    0.0000
     21 H9         9.8699   15.6250   13.7409 H         1 RES1    0.0000
     22 H10        9.4937   14.0805   13.9356 H         1 RES1    0.0000
     23 O2         9.4990   13.4741    9.6025 O.2       1 RES1    0.0000
     24 N1         3.0927    8.3792    7.0954 N.pl3     1 RES1    0.0000
     25 O3         3.2894    7.5095    6.2556 O.2       1 RES1    0.0000
     26 O4         2.0086    8.6014    7.6257 O.2       1 RES1    0.0000
     27 O5         5.0557    9.3527    5.2904 O.3       1 RES1    0.0000
     28 C12        5.8799    8.4426    4.6541 C.ar      1 RES1    0.0000
     29 C13        6.9220    7.7680    5.2788 C.ar      1 RES1    0.0000
     30 H11        7.1097    7.9159    6.1988 H         1 RES1    0.0000
     31 C14        7.6838    6.8761    4.5383 C.ar      1 RES1    0.0000
     32 H12        8.3993    6.4152    4.9606 H         1 RES1    0.0000
     33 C15        7.4231    6.6398    3.1847 C.ar      1 RES1    0.0000
     34 C16        6.3690    7.3421    2.5848 C.ar      1 RES1    0.0000
     35 H13        6.1787    7.2016    1.6642 H         1 RES1    0.0000
     36 C17        5.6008    8.2365    3.3095 C.ar      1 RES1    0.0000
     37 H14        4.8887    8.7054    2.8902 H         1 RES1    0.0000
     38 C18        8.2082    5.7082    2.3714 C.2       1 RES1    0.0000
     39 H15        7.9276    5.5821    1.4725 H         1 RES1    0.0000
     40 C19        9.2784    5.0206    2.7698 C.2       1 RES1    0.0000
     41 H16        9.5946    5.1201    3.6600 H         1 RES1    0.0000
     42 C20        9.9800    4.1064    1.8458 C.2       1 RES1    0.0000
     43 O6        11.1022    3.6486    2.4351 O.3       1 RES1    0.0000
     44 C21       12.0723    2.8023    1.7069 C.3       1 RES1    0.0000
     45 C22       13.1773    2.6310    2.7404 C.3       1 RES1    0.0000
     46 H17       13.4745    3.5119    3.0500 H         1 RES1    0.0000
     47 H18       13.9318    2.1544    2.3350 H         1 RES1    0.0000
     48 H19       12.8361    2.1164    3.5018 H         1 RES1    0.0000
     49 C23       12.6094    3.5500    0.4991 C.3       1 RES1    0.0000
     50 H20       11.9102    3.6104   -0.1856 H         1 RES1    0.0000
     51 H21       13.3819    3.0704    0.1354 H         1 RES1    0.0000
     52 H22       12.8828    4.4517    0.7682 H         1 RES1    0.0000
     53 C24       11.4318    1.4710    1.3526 C.3       1 RES1    0.0000
     54 H23       11.0239    1.0815    2.1540 H         1 RES1    0.0000
     55 H24       12.1167    0.8615    1.0055 H         1 RES1    0.0000
     56 H25       10.7427    1.6111    0.6708 H         1 RES1    0.0000
     57 O7         9.6129    3.8097    0.7311 O.2       1 RES1    0.0000
@<TRIPOS>BOND
     1    1    2 ar
     2    2    3 1
     3    4    2 ar
     4    5    4 1
     5    6    4 ar
     6    7    6 ar
     7    8    1 ar
     8    9    8 1
     9   10    1 1
    10   11   10 1
    11   12   10 2
    12   13   12 1
    13   14   12 1
    14   15   14 1
    15   16   15 1
    16   17   16 1
    17   18   16 1
    18   19   16 1
    19   20   19 1
    20   21   19 1
    21   22   19 1
    22   23   14 2
    23   24    6 1
    24   25   24 2
    25   26   24 2
    26   27    7 1
    27   28   27 1
    28   29   28 ar
    29   30   29 1
    30   31   29 ar
    31   32   31 1
    32   33   31 ar
    33   34   33 ar
    34   35   34 1
    35   36   28 ar
    36   37   36 1
    37   38   33 1
    38   39   38 1
    39   40   38 2
    40   41   40 1
    41   42   40 1
    42   43   42 1
    43   44   43 1
    44   45   44 1
    45   46   45 1
    46   47   45 1
    47   48   45 1
    48   49   44 1
    49   50   49 1
    50   51   49 1
    51   52   49 1
    52   53   44 1
    53   54   53 1
    54   55   53 1
    55   56   53 1
    56   57   42 2
    57    7    8 ar
    58   34   36 ar
@<TRIPOS>SUBSTRUCTURE
     1 RES1 1

@<TRIPOS>CRYSIN
   7.2330   10.4761   15.7002  75.6850  87.1200  80.7130   2 1

