# MOL2 file generated by ConQuest
# Please check atom types

@<TRIPOS>MOLECULE
NETKEE
    31    32     1
SMALL
NO_CHARGES
****
Generated from CSD

@<TRIPOS>ATOM
      1 O1         2.9405    0.8678    7.8293 O.3       1 RES1    0.0000
      2 O2         2.5688   -4.0348   11.7066 O.2       1 RES1    0.0000
      3 O3         2.2049   -2.3989   13.0699 O.2       1 RES1    0.0000
      4 N1         3.5737    0.4041    6.6069 N.2       1 RES1    0.0000
      5 N2         2.4557   -2.8301   11.9470 N.pl3     1 RES1    0.0000
      6 C1         2.5621    0.3582   10.0668 C.ar      1 RES1    0.0000
      7 H1         2.4399    1.2669   10.2187 H         1 RES1    0.0000
      8 C2         2.8763   -0.1003    8.7877 C.ar      1 RES1    0.0000
      9 C3         2.5442    2.4911    5.7075 C.3       1 RES1    0.0000
     10 H2         2.2305    2.6466    6.6125 H         1 RES1    0.0000
     11 H3         1.7689    2.4033    5.1305 H         1 RES1    0.0000
     12 C4         4.0167    0.9292    4.3461 C.3       1 RES1    0.0000
     13 H4         3.3437    0.7350    3.6747 H         1 RES1    0.0000
     14 H5         4.5854    0.1499    4.4379 H         1 RES1    0.0000
     15 C5         3.3481    1.2297    5.6642 C.2       1 RES1    0.0000
     16 C6         3.0663   -1.4590    8.5434 C.ar      1 RES1    0.0000
     17 H6         3.2800   -1.7569    7.6892 H         1 RES1    0.0000
     18 C7         2.6140   -1.8852   10.8495 C.ar      1 RES1    0.0000
     19 C8         2.9342   -2.3575    9.5818 C.ar      1 RES1    0.0000
     20 H7         3.0578   -3.2672    9.4353 H         1 RES1    0.0000
     21 C9         4.0280    3.4137    3.8796 C.3       1 RES1    0.0000
     22 H8         3.3322    3.3381    3.2079 H         1 RES1    0.0000
     23 H9         4.5975    4.1618    3.6384 H         1 RES1    0.0000
     24 C10        2.4334   -0.5345   11.1030 C.ar      1 RES1    0.0000
     25 H10        2.2280   -0.2369   11.9597 H         1 RES1    0.0000
     26 C11        4.8552    2.1304    3.9036 C.3       1 RES1    0.0000
     27 H11        5.6021    2.2421    4.5125 H         1 RES1    0.0000
     28 H12        5.2133    1.9632    3.0174 H         1 RES1    0.0000
     29 C12        3.3912    3.6763    5.2486 C.3       1 RES1    0.0000
     30 H13        4.0893    3.8442    5.9007 H         1 RES1    0.0000
     31 H14        2.8335    4.4680    5.1970 H         1 RES1    0.0000
@<TRIPOS>BOND
     1    1    4 1
     2    2    5 2
     3    3    5 2
     4    4   15 2
     5    5   18 1
     6    6    7 1
     7    8    1 1
     8    9   10 1
     9   11    9 1
    10   12   13 1
    11   14   12 1
    12   15    9 1
    13   16    8 ar
    14   17   16 1
    15   18   19 ar
    16   19   16 ar
    17   20   19 1
    18   21   22 1
    19   23   21 1
    20   24    6 ar
    21   25   24 1
    22   26   12 1
    23   27   26 1
    24   28   26 1
    25   29    9 1
    26   30   29 1
    27   31   29 1
    28    6    8 ar
    29   12   15 1
    30   18   24 ar
    31   21   26 1
    32   21   29 1
@<TRIPOS>SUBSTRUCTURE
     1 RES1 1

@<TRIPOS>CRYSIN
   6.9400   16.1184   10.4188  90.0000 104.6180  90.0000  14 1

