# MOL2 file generated by ConQuest
# Please check atom types

@<TRIPOS>MOLECULE
NETKOO
    50    36     2
SMALL
NO_CHARGES
****
Generated from CSD

@<TRIPOS>ATOM
      1 C1        -1.9860    1.9263    3.7938 C.3       1 RES1    0.0000
      2 H1        -1.6816    0.9971    3.9524 H         1 RES1    0.0000
      3 H2        -2.6023    1.9272    3.0197 H         1 RES1    0.0000
      4 C2        -2.6888    2.4635    5.0236 C.3       1 RES1    0.0000
      5 H3        -3.4327    1.8565    5.2675 H         1 RES1    0.0000
      6 H4        -3.0747    3.3517    4.8175 H         1 RES1    0.0000
      7 C3        -1.7303    2.5910    6.2119 C.3       1 RES1    0.0000
      8 H5        -2.2171    2.9727    6.9861 H         1 RES1    0.0000
      9 H6        -1.4082    1.6907    6.4684 H         1 RES1    0.0000
     10 C4        -0.5570    3.4597    5.8922 C.3       1 RES1    0.0000
     11 H7         0.0486    3.4941    6.6736 H         1 RES1    0.0000
     12 H8        -0.8714    4.3804    5.7082 H         1 RES1    0.0000
     13 C5         0.2059    2.9420    4.6913 C.3       1 RES1    0.0000
     14 H9         0.6056    2.0585    4.8944 H         1 RES1    0.0000
     15 H10        0.9333    3.5686    4.4514 H         1 RES1    0.0000
     16 C6        -0.8083    2.8191    3.5222 C.2       1 RES1    0.0000
     17 C7         1.0748    3.7325    0.8285 C.2       1 RES1    0.0000
     18 C8         2.3838    4.4317    0.6953 C.ar      1 RES1    0.0000
     19 C9         3.0103    4.3916   -0.5480 C.ar      1 RES1    0.0000
     20 H11        2.6099    3.9317   -1.2778 H         1 RES1    0.0000
     21 C10        4.2113    5.0238   -0.6995 C.ar      1 RES1    0.0000
     22 C11        4.8460    5.7044    0.3241 C.ar      1 RES1    0.0000
     23 H12        5.6757    6.1494    0.1959 H         1 RES1    0.0000
     24 C12        4.2019    5.6988    1.5446 C.ar      1 RES1    0.0000
     25 C13        2.9850    5.0843    1.7502 C.ar      1 RES1    0.0000
     26 H13        2.5682    5.1104    2.6023 H         1 RES1    0.0000
     27 N1        -0.5923    3.0305    2.2957 N.2       1 RES1    0.0000
     28 N2         4.9135    4.9456   -2.0056 N.pl3     1 RES1    0.0000
     29 N3         4.8984    6.3347    2.6902 N.pl3     1 RES1    0.0000
     30 O1         0.6965    3.6861    2.1296 O.3       1 RES1    0.0000
     31 O2         0.4603    3.2649   -0.0940 O.2       1 RES1    0.0000
     32 O3         4.4153    4.2429   -2.8707 O.2       1 RES1    0.0000
     33 O4         5.9479    5.5851   -2.1380 O.2       1 RES1    0.0000
     34 O5         5.9599    6.8970    2.4712 O.2       1 RES1    0.0000
     35 O6         4.3831    6.2211    3.7887 O.2       1 RES1    0.0000
     36 C14       -2.3605    2.5473    3.8591 Du        2 SUP2    0.0000
     37 C15       -2.2260    1.4887    4.9551 Du        2 SUP2    0.0000
     38 C16       -1.6355    2.1413    6.2096 Du        2 SUP2    0.0000
     39 C17       -0.2343    2.6748    5.8132 Du        2 SUP2    0.0000
     40 C18       -0.2892    3.7613    4.6916 Du        2 SUP2    0.0000
     41 H14       -2.8101    3.3638    4.1949 Du        2 SUP2    0.0000
     42 H15       -2.8505    2.2000    3.0733 Du        2 SUP2    0.0000
     43 H16       -1.6362    0.7560    4.6449 Du        2 SUP2    0.0000
     44 H17       -3.1145    1.1042    5.1626 Du        2 SUP2    0.0000
     45 H18       -1.5541    1.4747    6.9394 Du        2 SUP2    0.0000
     46 H19       -2.2114    2.8815    6.5197 Du        2 SUP2    0.0000
     47 H20        0.3233    1.9188    5.5007 Du        2 SUP2    0.0000
     48 H21        0.2014    3.0612    6.6153 Du        2 SUP2    0.0000
     49 H22        0.6018    4.1458    4.4980 Du        2 SUP2    0.0000
     50 H23       -0.9302    4.4857    4.9038 Du        2 SUP2    0.0000
@<TRIPOS>BOND
     1    1    2 1
     2    3    1 1
     3    4    1 1
     4    5    4 1
     5    6    4 1
     6    7    4 1
     7    8    7 1
     8    9    7 1
     9   10    7 1
    10   11   10 1
    11   12   10 1
    12   13   10 1
    13   14   13 1
    14   15   13 1
    15   16    1 1
    16   17   18 1
    17   18   19 ar
    18   19   20 1
    19   21   19 ar
    20   22   21 ar
    21   23   22 1
    22   24   22 ar
    23   25   18 ar
    24   26   25 1
    25   27   16 2
    26   28   21 1
    27   29   24 1
    28   30   17 1
    29   31   17 2
    30   32   28 2
    31   33   28 2
    32   34   29 2
    33   35   29 2
    34   13   16 1
    35   24   25 ar
    36   27   30 1
@<TRIPOS>SUBSTRUCTURE
     1 RES1 1
     2 SUP2 36

@<TRIPOS>CRYSIN
   6.3148    9.3102   23.3180  90.0000  90.0000  90.0000  19 1

