# MOL2 file generated by ConQuest
# Please check atom types

@<TRIPOS>MOLECULE
NETLUV
    45    46     1
SMALL
NO_CHARGES
****
Generated from CSD

@<TRIPOS>ATOM
      1 C1         1.1912    9.0278    3.2825 C.2       1 RES1    0.0000
      2 C2         0.3756   10.2806    3.1595 C.3       1 RES1    0.0000
      3 H1         0.6462   10.9237    3.8623 H         1 RES1    0.0000
      4 H2        -0.5824   10.0672    3.2905 H         1 RES1    0.0000
      5 C3         0.5779   10.9113    1.7820 C.3       1 RES1    0.0000
      6 H3         0.0676   11.7586    1.7326 H         1 RES1    0.0000
      7 H4         0.2242   10.3005    1.0875 H         1 RES1    0.0000
      8 C4         2.0552   11.1939    1.5013 C.3       1 RES1    0.0000
      9 H5         2.3824   11.7658    2.2526 H         1 RES1    0.0000
     10 C5         2.8270    9.8765    1.5906 C.3       1 RES1    0.0000
     11 H6         3.7901   10.0565    1.4500 H         1 RES1    0.0000
     12 H7         2.5222    9.2753    0.8652 H         1 RES1    0.0000
     13 C6         2.6427    9.1636    2.9433 C.3       1 RES1    0.0000
     14 H8         3.0576    8.2657    2.9021 H         1 RES1    0.0000
     15 H9         3.1008    9.6797    3.6530 H         1 RES1    0.0000
     16 C7         2.2987   12.0006    0.1966 C.3       1 RES1    0.0000
     17 C8         1.6409   13.3775    0.3092 C.3       1 RES1    0.0000
     18 H10        1.9630   13.8281    1.1177 H         1 RES1    0.0000
     19 H11        0.6681   13.2718    0.3603 H         1 RES1    0.0000
     20 H12        1.8703   13.9142   -0.4768 H         1 RES1    0.0000
     21 C9         1.7330   11.2768   -1.0268 C.3       1 RES1    0.0000
     22 H13        1.9572   11.7802   -1.8362 H         1 RES1    0.0000
     23 H14        0.7583   11.2084   -0.9451 H         1 RES1    0.0000
     24 H15        2.1196   10.3782   -1.0832 H         1 RES1    0.0000
     25 C10        3.7979   12.2195   -0.0205 C.3       1 RES1    0.0000
     26 H16        4.2276   11.3615   -0.2201 H         1 RES1    0.0000
     27 H17        4.1928   12.6020    0.7897 H         1 RES1    0.0000
     28 H18        3.9325   12.8340   -0.7703 H         1 RES1    0.0000
     29 C11        0.7860    5.7140    4.0836 C.2       1 RES1    0.0000
     30 C12        1.7156    4.5442    4.0418 C.ar      1 RES1    0.0000
     31 C13        1.2498    3.3252    4.5165 C.ar      1 RES1    0.0000
     32 H19        0.3588    3.2573    4.8375 H         1 RES1    0.0000
     33 C14        2.0629    2.2105    4.5268 C.ar      1 RES1    0.0000
     34 H20        1.7530    1.3792    4.8656 H         1 RES1    0.0000
     35 C15        3.3424    2.3462    4.0282 C.ar      1 RES1    0.0000
     36 C16        3.8384    3.5392    3.5533 C.ar      1 RES1    0.0000
     37 H21        4.7269    3.5982    3.2214 H         1 RES1    0.0000
     38 C17        3.0202    4.6456    3.5699 C.ar      1 RES1    0.0000
     39 H22        3.3469    5.4810    3.2581 H         1 RES1    0.0000
     40 N1         0.5379    7.9901    3.6376 N.2       1 RES1    0.0000
     41 N2         4.2256    1.1617    3.9915 N.pl3     1 RES1    0.0000
     42 O1         1.4299    6.8415    3.6856 O.3       1 RES1    0.0000
     43 O2        -0.3616    5.6555    4.4118 O.2       1 RES1    0.0000
     44 O3         5.3706    1.3115    3.5876 O.2       1 RES1    0.0000
     45 O4         3.7681    0.0912    4.3633 O.2       1 RES1    0.0000
@<TRIPOS>BOND
     1    1    2 1
     2    2    3 1
     3    4    2 1
     4    5    2 1
     5    6    5 1
     6    7    5 1
     7    8    5 1
     8    9    8 1
     9   10    8 1
    10   11   10 1
    11   12   10 1
    12   13    1 1
    13   14   13 1
    14   15   13 1
    15   16    8 1
    16   17   16 1
    17   18   17 1
    18   19   17 1
    19   20   17 1
    20   21   16 1
    21   22   21 1
    22   23   21 1
    23   24   21 1
    24   25   16 1
    25   26   25 1
    26   27   25 1
    27   28   25 1
    28   29   30 1
    29   30   31 ar
    30   31   32 1
    31   33   31 ar
    32   34   33 1
    33   35   33 ar
    34   36   35 ar
    35   37   36 1
    36   38   30 ar
    37   39   38 1
    38   40    1 2
    39   41   35 1
    40   42   29 1
    41   43   29 2
    42   44   41 2
    43   45   41 2
    44   10   13 1
    45   36   38 ar
    46   40   42 1
@<TRIPOS>SUBSTRUCTURE
     1 RES1 1

@<TRIPOS>CRYSIN
   6.4425   11.9620   21.5769  90.0000  90.0000  90.0000  19 1

