# MOL2 file generated by ConQuest
# Please check atom types

@<TRIPOS>MOLECULE
NETLOP
    43    44     1
SMALL
NO_CHARGES
****
Generated from CSD

@<TRIPOS>ATOM
      1 O1         3.5919    2.2283    2.1539 O.3       1 RES1    0.0000
      2 O2         3.1480   -3.8851    0.8844 O.2       1 RES1    0.0000
      3 O3         1.2630   -3.5090    1.8645 O.2       1 RES1    0.0000
      4 C1         3.3806    0.9074    1.9275 C.ar      1 RES1    0.0000
      5 N1         2.3472   -3.1323    1.4306 N.pl3     1 RES1    0.0000
      6 N2         4.8755    2.6721    1.6613 N.2       1 RES1    0.0000
      7 C2         5.0099    6.7448    1.1814 C.3       1 RES1    0.0000
      8 H1         5.5051    7.0971    1.9748 H         1 RES1    0.0000
      9 C3         5.0265    3.9134    1.9479 C.2       1 RES1    0.0000
     10 C4         2.7090   -1.7316    1.5930 C.ar      1 RES1    0.0000
     11 C5         3.7619    6.0247    1.7183 C.3       1 RES1    0.0000
     12 H2         3.2051    6.6745    2.2151 H         1 RES1    0.0000
     13 H3         3.2284    5.6934    0.9530 H         1 RES1    0.0000
     14 C6         3.9482   -1.2954    1.1602 C.ar      1 RES1    0.0000
     15 H4         4.5555   -1.9006    0.7513 H         1 RES1    0.0000
     16 C7         4.0910    4.8439    2.6426 C.3       1 RES1    0.0000
     17 H5         4.5075    5.1773    3.4761 H         1 RES1    0.0000
     18 H6         3.2587    4.3640    2.8830 H         1 RES1    0.0000
     19 C8         2.1313    0.4464    2.3435 C.ar      1 RES1    0.0000
     20 H7         1.5107    1.0491    2.7369 H         1 RES1    0.0000
     21 C9         6.2819    4.5570    1.4471 C.3       1 RES1    0.0000
     22 H8         6.8296    3.8904    0.9626 H         1 RES1    0.0000
     23 H9         6.8119    4.8970    2.2115 H         1 RES1    0.0000
     24 C10        4.2922    0.0319    1.3304 C.ar      1 RES1    0.0000
     25 H10        5.1408    0.3461    1.0435 H         1 RES1    0.0000
     26 C11        4.6691    7.9656    0.2838 C.3       1 RES1    0.0000
     27 C12        1.7993   -0.8683    2.1867 C.ar      1 RES1    0.0000
     28 H11        0.9552   -1.1892    2.4808 H         1 RES1    0.0000
     29 C13        5.9261    5.7159    0.5074 C.3       1 RES1    0.0000
     30 H12        6.7584    6.1648    0.2138 H         1 RES1    0.0000
     31 H13        5.4741    5.3557   -0.2971 H         1 RES1    0.0000
     32 C14        5.9582    8.6433   -0.1986 C.3       1 RES1    0.0000
     33 H14        5.7351    9.4776   -0.6631 H         1 RES1    0.0000
     34 H15        6.4322    8.0442   -0.8129 H         1 RES1    0.0000
     35 H16        6.5306    8.8427    0.5713 H         1 RES1    0.0000
     36 C15        3.8842    8.9985    1.0979 C.3       1 RES1    0.0000
     37 H17        3.7529    9.8068    0.5592 H         1 RES1    0.0000
     38 H18        4.3854    9.2249    1.9095 H         1 RES1    0.0000
     39 H19        3.0128    8.6261    1.3455 H         1 RES1    0.0000
     40 C16        3.8417    7.5683   -0.9453 C.3       1 RES1    0.0000
     41 H20        3.0159    7.1268   -0.6546 H         1 RES1    0.0000
     42 H21        4.3615    6.9527   -1.5037 H         1 RES1    0.0000
     43 H22        3.6191    8.3712   -1.4626 H         1 RES1    0.0000
@<TRIPOS>BOND
     1    1    4 1
     2    2    5 2
     3    3    5 2
     4    4   19 ar
     5    5   10 1
     6    6    1 1
     7    7    8 1
     8    9    6 2
     9   10   14 ar
    10   11    7 1
    11   12   11 1
    12   13   11 1
    13   14   15 1
    14   16    9 1
    15   17   16 1
    16   18   16 1
    17   19   20 1
    18   21    9 1
    19   22   21 1
    20   23   21 1
    21   24    4 ar
    22   25   24 1
    23   26    7 1
    24   27   10 ar
    25   28   27 1
    26   29    7 1
    27   30   29 1
    28   31   29 1
    29   32   26 1
    30   33   32 1
    31   34   32 1
    32   35   32 1
    33   36   26 1
    34   37   36 1
    35   38   36 1
    36   39   36 1
    37   40   26 1
    38   41   40 1
    39   42   40 1
    40   43   40 1
    41   11   16 1
    42   14   24 ar
    43   19   27 ar
    44   21   29 1
@<TRIPOS>SUBSTRUCTURE
     1 RES1 1

@<TRIPOS>CRYSIN
   5.8943   21.2360   12.0810  90.0000  91.2710  90.0000 231 1

