# MOL2 file generated by ConQuest
# Please check atom types

@<TRIPOS>MOLECULE
NETMAC
    45    46     1
SMALL
NO_CHARGES
****
Generated from CSD

@<TRIPOS>ATOM
      1 O1         5.3309   -0.6384    6.7785 O.3       1 RES1    0.0000
      2 O2         6.6396   -1.9041    5.4159 O.2       1 RES1    0.0000
      3 O3         4.8802   -3.7378    7.0578 O.2       1 RES1    0.0000
      4 N1         4.7354   -0.0778    5.5639 N.2       1 RES1    0.0000
      5 O4         6.0220   -5.4350    7.7670 O.2       1 RES1    0.0000
      6 N2         5.8368   -4.2313    7.6488 N.pl3     1 RES1    0.0000
      7 C1         6.9039   -2.0064    7.7879 C.ar      1 RES1    0.0000
      8 C2         3.4214    1.6921    4.7418 C.3       1 RES1    0.0000
      9 H1         2.4561    1.6912    4.8421 H         1 RES1    0.0000
     10 H2         3.6401    1.2543    3.9043 H         1 RES1    0.0000
     11 C3         4.0514    0.9479    5.8835 C.2       1 RES1    0.0000
     12 C4         6.2714   -1.5529    6.4989 C.2       1 RES1    0.0000
     13 C5         3.9419    3.1371    4.7256 C.3       1 RES1    0.0000
     14 H3         3.4834    3.6335    4.0293 H         1 RES1    0.0000
     15 H4         4.8892    3.1327    4.5141 H         1 RES1    0.0000
     16 C6         6.7973   -3.3109    8.2675 C.ar      1 RES1    0.0000
     17 C7         3.8626    1.5759    7.2321 C.3       1 RES1    0.0000
     18 H5         4.3466    1.0686    7.9030 H         1 RES1    0.0000
     19 H6         2.9220    1.5740    7.4689 H         1 RES1    0.0000
     20 C8         8.3609   -2.8619    9.9974 C.ar      1 RES1    0.0000
     21 H7         8.8646   -3.1433   10.7268 H         1 RES1    0.0000
     22 C9         3.7276    3.8428    6.0742 C.3       1 RES1    0.0000
     23 H8         2.7637    3.8299    6.2481 H         1 RES1    0.0000
     24 C10        4.3875    3.0165    7.1869 C.3       1 RES1    0.0000
     25 H9         5.3473    3.0018    7.0455 H         1 RES1    0.0000
     26 H10        4.2196    3.4432    8.0422 H         1 RES1    0.0000
     27 C11        8.4565   -1.5542    9.5659 C.ar      1 RES1    0.0000
     28 H11        9.0058   -0.9575   10.0203 H         1 RES1    0.0000
     29 C12        7.7370   -1.1228    8.4557 C.ar      1 RES1    0.0000
     30 H12        7.8148   -0.2436    8.1625 H         1 RES1    0.0000
     31 C13        4.1601    5.3377    6.0707 C.3       1 RES1    0.0000
     32 C14        3.7179    5.9979    7.3865 C.3       1 RES1    0.0000
     33 H13        2.7683    5.9031    7.4890 H         1 RES1    0.0000
     34 H14        3.9460    6.9306    7.3687 H         1 RES1    0.0000
     35 H15        4.1637    5.5728    8.1236 H         1 RES1    0.0000
     36 C15        7.5257   -3.7600    9.3567 C.ar      1 RES1    0.0000
     37 H16        7.4559   -4.6397    9.6487 H         1 RES1    0.0000
     38 C16        3.4726    6.0786    4.9258 C.3       1 RES1    0.0000
     39 H17        2.5213    5.9838    5.0096 H         1 RES1    0.0000
     40 H18        3.7592    5.7083    4.0871 H         1 RES1    0.0000
     41 H19        3.7057    7.0097    4.9612 H         1 RES1    0.0000
     42 C17        5.6719    5.4977    5.9343 C.3       1 RES1    0.0000
     43 H20        6.1088    5.0278    6.6491 H         1 RES1    0.0000
     44 H21        5.8996    6.4298    5.9768 H         1 RES1    0.0000
     45 H22        5.9578    5.1359    5.0921 H         1 RES1    0.0000
@<TRIPOS>BOND
     1    1    4 1
     2    2   12 2
     3    3    6 2
     4    4   11 2
     5    5    6 2
     6    6   16 1
     7    7   12 1
     8    8    9 1
     9   10    8 1
    10   11    8 1
    11   12    1 1
    12   13    8 1
    13   14   13 1
    14   15   13 1
    15   16    7 ar
    16   17   11 1
    17   18   17 1
    18   19   17 1
    19   20   21 1
    20   22   13 1
    21   23   22 1
    22   24   17 1
    23   25   24 1
    24   26   24 1
    25   27   20 ar
    26   28   27 1
    27   29    7 ar
    28   30   29 1
    29   31   22 1
    30   32   31 1
    31   33   32 1
    32   34   32 1
    33   35   32 1
    34   36   16 ar
    35   37   36 1
    36   38   31 1
    37   39   38 1
    38   40   38 1
    39   41   38 1
    40   42   31 1
    41   43   42 1
    42   44   42 1
    43   45   42 1
    44   20   36 ar
    45   22   24 1
    46   27   29 ar
@<TRIPOS>SUBSTRUCTURE
     1 RES1 1

@<TRIPOS>CRYSIN
   9.3991   15.2220   12.5030  90.0000 109.3670  90.0000 231 1

