# MOL2 file generated by ConQuest
# Please check atom types

@<TRIPOS>MOLECULE
NETMEG
    25    25     1
SMALL
NO_CHARGES
****
Generated from CSD

@<TRIPOS>ATOM
      1 C1        -1.1821    4.1457    2.7742 C.2       1 RES1    0.0000
      2 C2        -2.1788    3.1762    2.1601 C.3       1 RES1    0.0000
      3 C3        -1.3942    1.9383    1.6736 C.3       1 RES1    0.0000
      4 H1        -1.0689    1.4507    2.4467 H         1 RES1    0.0000
      5 H2        -1.9989    1.3541    1.1899 H         1 RES1    0.0000
      6 C4        -0.2159    2.2731    0.7762 C.3       1 RES1    0.0000
      7 H3        -0.5401    2.6807   -0.0425 H         1 RES1    0.0000
      8 H4         0.2522    1.4578    0.5412 H         1 RES1    0.0000
      9 C5         0.7442    3.2256    1.4663 C.3       1 RES1    0.0000
     10 H5         1.4497    3.4706    0.8485 H         1 RES1    0.0000
     11 H6         1.1524    2.7742    2.2223 H         1 RES1    0.0000
     12 C6         0.0386    4.4956    1.9570 C.3       1 RES1    0.0000
     13 H7         0.6509    5.0189    2.4977 H         1 RES1    0.0000
     14 H8        -0.2253    5.0341    1.1952 H         1 RES1    0.0000
     15 C7        -3.2573    2.7392    3.1492 C.3       1 RES1    0.0000
     16 H9        -3.8603    2.1308    2.7168 H         1 RES1    0.0000
     17 H10       -3.7429    3.5092    3.4537 H         1 RES1    0.0000
     18 H11       -2.8462    2.3036    3.8992 H         1 RES1    0.0000
     19 C8        -2.8781    3.8589    0.9712 C.3       1 RES1    0.0000
     20 H12       -3.5130    3.2531    0.5816 H         1 RES1    0.0000
     21 H13       -2.2241    4.1039    0.3126 H         1 RES1    0.0000
     22 H14       -3.3339    4.6468    1.2770 H         1 RES1    0.0000
     23 N1        -1.4372    4.5880    3.9409 N.2       1 RES1    0.0000
     24 O1        -0.4734    5.5093    4.4185 O.3       1 RES1    0.0000
     25 H15       -0.8148    5.6725    5.2283 H         1 RES1    0.0000
@<TRIPOS>BOND
     1    1    2 1
     2    2    3 1
     3    3    4 1
     4    5    3 1
     5    6    3 1
     6    7    6 1
     7    8    6 1
     8    9    6 1
     9   10    9 1
    10   11    9 1
    11   12    1 1
    12   13   12 1
    13   14   12 1
    14   15    2 1
    15   16   15 1
    16   17   15 1
    17   18   15 1
    18   19    2 1
    19   20   19 1
    20   21   19 1
    21   22   19 1
    22   23    1 2
    23   24   23 1
    24   25   24 1
    25    9   12 1
@<TRIPOS>SUBSTRUCTURE
     1 RES1 1

@<TRIPOS>CRYSIN
   7.7390   10.1658   11.1940  90.0000 108.2130  90.0000 231 1

