# MOL2 file generated by ConQuest
# Please check atom types

@<TRIPOS>MOLECULE
NETNEH
    41    42     1
SMALL
NO_CHARGES
****
Generated from CSD

@<TRIPOS>ATOM
      1 C1         1.6896    2.9907    0.1544 C.2       1 RES1    0.0000
      2 C2         1.4677    4.1332   -0.8232 C.3       1 RES1    0.0000
      3 C3         2.8124    4.3947   -1.5622 C.3       1 RES1    0.0000
      4 H1         2.6610    5.0497   -2.2610 H         1 RES1    0.0000
      5 H2         3.4434    4.7774   -0.9327 H         1 RES1    0.0000
      6 C4         3.4358    3.1496   -2.1862 C.3       1 RES1    0.0000
      7 H3         2.8620    2.8221   -2.8962 H         1 RES1    0.0000
      8 H4         4.2948    3.3787   -2.5744 H         1 RES1    0.0000
      9 C5         3.6263    2.0623   -1.1516 C.3       1 RES1    0.0000
     10 H5         4.2998    2.3444   -0.5136 H         1 RES1    0.0000
     11 H6         3.9502    1.2592   -1.5894 H         1 RES1    0.0000
     12 C6         2.3263    1.7348   -0.4004 C.3       1 RES1    0.0000
     13 H7         1.7052    1.2981   -1.0038 H         1 RES1    0.0000
     14 H8         2.5193    1.1230    0.3274 H         1 RES1    0.0000
     15 C7         0.3838    3.7149   -1.8101 C.3       1 RES1    0.0000
     16 H9         0.2334    4.4239   -2.4397 H         1 RES1    0.0000
     17 H10       -0.4295    3.5333   -1.3340 H         1 RES1    0.0000
     18 H11        0.6639    2.9259   -2.2779 H         1 RES1    0.0000
     19 C8         1.0171    5.4140   -0.1310 C.3       1 RES1    0.0000
     20 H12        0.8886    6.1036   -0.7858 H         1 RES1    0.0000
     21 H13        1.6876    5.6907    0.4977 H         1 RES1    0.0000
     22 H14        0.1915    5.2529    0.3312 H         1 RES1    0.0000
     23 C9         1.4606    2.3087    3.4790 C.2       1 RES1    0.0000
     24 C10        1.6496    1.0863    4.3200 C.ar      1 RES1    0.0000
     25 C11        0.6529    0.5945    5.1778 C.ar      1 RES1    0.0000
     26 C12        0.8828   -0.3675    6.1198 C.ar      1 RES1    0.0000
     27 H15        0.2142   -0.6572    6.6980 H         1 RES1    0.0000
     28 C13        2.1631   -0.8895    6.1675 C.ar      1 RES1    0.0000
     29 C14        3.1883   -0.4648    5.3238 C.ar      1 RES1    0.0000
     30 H16        4.0345   -0.8474    5.3743 H         1 RES1    0.0000
     31 C15        2.9233    0.5339    4.4135 C.ar      1 RES1    0.0000
     32 H17        3.6011    0.8420    3.8560 H         1 RES1    0.0000
     33 N1         1.3045    3.2090    1.3592 N.2       1 RES1    0.0000
     34 N2        -0.7267    1.1144    5.0571 N.pl3     1 RES1    0.0000
     35 N3         2.4389   -1.9066    7.1835 N.pl3     1 RES1    0.0000
     36 O1         1.4952    2.0176    2.1809 O.3       1 RES1    0.0000
     37 O2         1.3683    3.4035    3.9841 O.2       1 RES1    0.0000
     38 O3        -1.0436    1.5575    3.9711 O.2       1 RES1    0.0000
     39 O4        -1.4574    1.0560    6.0375 O.2       1 RES1    0.0000
     40 O5         1.6828   -1.9812    8.1451 O.2       1 RES1    0.0000
     41 O6         3.4223   -2.6233    7.0095 O.2       1 RES1    0.0000
@<TRIPOS>BOND
     1    1    2 1
     2    2    3 1
     3    3    4 1
     4    5    3 1
     5    6    3 1
     6    7    6 1
     7    8    6 1
     8    9    6 1
     9   10    9 1
    10   11    9 1
    11   12    1 1
    12   13   12 1
    13   14   12 1
    14   15    2 1
    15   16   15 1
    16   17   15 1
    17   18   15 1
    18   19    2 1
    19   20   19 1
    20   21   19 1
    21   22   19 1
    22   23   24 1
    23   24   25 ar
    24   25   26 ar
    25   26   27 1
    26   28   26 ar
    27   29   28 ar
    28   30   29 1
    29   31   24 ar
    30   32   31 1
    31   33    1 2
    32   34   25 1
    33   35   28 1
    34   36   23 1
    35   37   23 2
    36   38   34 2
    37   39   34 2
    38   40   35 2
    39   41   35 2
    40    9   12 1
    41   29   31 ar
    42   33   36 1
@<TRIPOS>SUBSTRUCTURE
     1 RES1 1

@<TRIPOS>CRYSIN
   7.7384   10.8085    9.3550  90.0000  90.4650  90.0000   4 1

