# MOL2 file generated by ConQuest
# Please check atom types

@<TRIPOS>MOLECULE
NETPHN10
    24    25     1
SMALL
NO_CHARGES
****
Generated from CSD

@<TRIPOS>ATOM
      1 C1         4.2615   -0.2189    1.7404 C.ar      1 RES1    0.0000
      2 C10        5.5087    0.1095    6.8608 C.ar      1 RES1    0.0000
      3 C11        4.4044   -0.6315    6.2999 C.ar      1 RES1    0.0000
      4 C12        4.3354   -0.8504    4.8903 C.ar      1 RES1    0.0000
      5 C14        4.4357    0.0337    9.1621 C.3       1 RES1    0.0000
      6 C15        4.6075   -1.4567    9.5936 C.3       1 RES1    0.0000
      7 C16        6.7099    1.0946    8.8745 C.3       1 RES1    0.0000
      8 C17        7.8667    0.1010    9.1909 C.3       1 RES1    0.0000
      9 C2         4.2684   -0.4126    0.3164 C.ar      1 RES1    0.0000
     10 C3         3.2245   -0.0000   -0.5466 C.ar      1 RES1    0.0000
     11 C4         2.1514    0.6062    0.0288 C.ar      1 RES1    0.0000
     12 C5         2.0577    0.8588    1.3952 C.ar      1 RES1    0.0000
     13 C6         3.0834    0.4631    2.2438 C.ar      1 RES1    0.0000
     14 C7         5.2850   -0.3621    4.0273 C.ar      1 RES1    0.0000
     15 C8         6.4027    0.3200    4.5883 C.ar      1 RES1    0.0000
     16 C9         6.5159    0.5641    5.9691 C.ar      1 RES1    0.0000
     17 N13        5.5411    0.4210    8.2416 N.3       1 RES1    0.0000
     18 N22        1.0390    0.9851   -0.8774 N.pl3     1 RES1    0.0000
     19 N23        5.4300   -1.0357   -0.3164 N.pl3     1 RES1    0.0000
     20 N24        5.2699   -0.5978    2.6178 N.pl3     1 RES1    0.0000
     21 O18        6.3265   -1.4988    0.3883 O.2       1 RES1    0.0000
     22 O19        5.4227   -1.0441   -1.5822 O.2       1 RES1    0.0000
     23 O20        1.1050    0.6904   -2.0856 O.2       1 RES1    0.0000
     24 O21        0.0852    1.5409   -0.3883 O.2       1 RES1    0.0000
@<TRIPOS>BOND
     1    1    9 ar
     2    2    3 ar
     3    3    4 ar
     4    4   14 ar
     5    5    6 1
     6    7    8 1
     7    9   10 ar
     8   10   11 ar
     9   11   12 ar
    10   12   13 ar
    11   13    1 ar
    12   14   15 ar
    13   15   16 ar
    14   16    2 ar
    15   17    2 1
    16   18   11 1
    17   19    9 1
    18   20    1 1
    19   21   19 2
    20   22   19 2
    21   23   18 2
    22   24   18 2
    23    5   17 1
    24    7   17 1
    25   14   20 1
@<TRIPOS>SUBSTRUCTURE
     1 RES1 1

@<TRIPOS>CRYSIN
  13.4700    8.4200   16.7800  90.0000 121.0000  90.0000  14 1

