# MOL2 file generated by ConQuest
# Please check atom types

@<TRIPOS>MOLECULE
NETYAM
    76    80     2
SMALL
NO_CHARGES
****
Generated from CSD

@<TRIPOS>ATOM
      1 N1         0.2655    2.7036   20.1333 N.am      1 RES1    0.0000
      2 C1         0.2491    1.4455   19.6745 C.2       1 RES1    0.0000
      3 O1        -0.6791    0.6598   19.9641 O.2       1 RES1    0.0000
      4 C2         1.3436    1.0082   18.7080 C.2       1 RES1    0.0000
      5 C3         1.8147    1.9083   17.6797 C.2       1 RES1    0.0000
      6 C4         2.1813    3.1886   17.8164 C.2       1 RES1    0.0000
      7 C5         2.1940    3.9035   19.1343 C.ar      1 RES1    0.0000
      8 C6         3.2041    4.9212   19.3328 C.ar      1 RES1    0.0000
      9 C7         3.2331    5.6519   20.5027 C.ar      1 RES1    0.0000
     10 C8         2.2961    5.4697   21.4870 C.ar      1 RES1    0.0000
     11 C9         2.2669    6.3381   22.7382 C.3       1 RES1    0.0000
     12 C10        1.3266    4.4785   21.3455 C.ar      1 RES1    0.0000
     13 C11        1.3170    3.6843   20.1707 C.ar      1 RES1    0.0000
     14 N2         1.6520   -0.2330   18.8447 N.2       1 RES1    0.0000
     15 O2         2.6023   -0.6079   17.9026 O.3       1 RES1    0.0000
     16 C12        3.0070   -1.9613   18.1434 C.3       1 RES1    0.0000
     17 C13        2.6219    3.9956   16.6237 C.ar      1 RES1    0.0000
     18 C14        3.4817    3.4640   15.6719 C.ar      1 RES1    0.0000
     19 C15        3.8622    4.2148   14.5460 C.ar      1 RES1    0.0000
     20 C16        3.3129    5.4666   14.3898 C.ar      1 RES1    0.0000
     21 C17        2.4738    6.0268   15.3091 C.ar      1 RES1    0.0000
     22 C18        2.1085    5.2834   16.4399 C.ar      1 RES1    0.0000
     23 N3        -0.3678    4.3144   14.2124 N.am      2 RES2    0.0000
     24 C19       -0.3245    3.0510   14.6729 C.2       2 RES2    0.0000
     25 O3         0.4644    2.2154   14.1945 O.2       2 RES2    0.0000
     26 C20       -1.1354    2.7068   15.8769 C.2       2 RES2    0.0000
     27 C21       -1.3071    3.6260   16.9898 C.2       2 RES2    0.0000
     28 C22       -1.5443    4.9529   16.9264 C.2       2 RES2    0.0000
     29 C23       -1.8648    5.6572   15.6394 C.ar      2 RES2    0.0000
     30 C24       -2.7901    6.7342   15.7028 C.ar      2 RES2    0.0000
     31 C25       -3.1286    7.4246   14.5411 C.ar      2 RES2    0.0000
     32 C26       -2.5773    7.1228   13.3273 C.ar      2 RES2    0.0000
     33 C27       -2.9689    7.8493   12.0484 C.3       2 RES2    0.0000
     34 C28       -1.6748    6.0712   13.2752 C.ar      2 RES2    0.0000
     35 C29       -1.3279    5.3352   14.4028 C.ar      2 RES2    0.0000
     36 N4        -1.4844    1.4540   15.8981 N.2       2 RES2    0.0000
     37 O4        -2.1668    1.1289   17.0679 O.3       2 RES2    0.0000
     38 C30       -2.3342   -0.2891   17.1346 C.3       2 RES2    0.0000
     39 C31       -1.5530    5.7493   18.2199 C.ar      2 RES2    0.0000
     40 C32       -0.9213    7.0010   18.2703 C.ar      2 RES2    0.0000
     41 C33       -0.8135    7.6576   19.4971 C.ar      2 RES2    0.0000
     42 C34       -1.3327    7.0974   20.6247 C.ar      2 RES2    0.0000
     43 C35       -1.9859    5.8732   20.5954 C.ar      2 RES2    0.0000
     44 C36       -2.0626    5.2029   19.3751 C.ar      2 RES2    0.0000
     45 H1        -0.4087    2.9557   20.6849 H         1 RES1    0.0000
     46 H2         1.8671    1.5451   16.7929 H         1 RES1    0.0000
     47 H3         3.8513    5.0896   18.6462 H         1 RES1    0.0000
     48 H4         3.9274    6.3021   20.6312 H         1 RES1    0.0000
     49 H5         2.9867    6.9725   22.7041 H         1 RES1    0.0000
     50 H6         2.3646    5.7843   23.5176 H         1 RES1    0.0000
     51 H7         1.4301    6.8073   22.7822 H         1 RES1    0.0000
     52 H8         0.6731    4.3366   22.0354 H         1 RES1    0.0000
     53 H9         3.6637   -2.2197   17.4926 H         1 RES1    0.0000
     54 H10        2.2447   -2.5405   18.0767 H         1 RES1    0.0000
     55 H11        3.3838   -2.0301   19.0237 H         1 RES1    0.0000
     56 H12        3.8194    2.5734   15.7858 H         1 RES1    0.0000
     57 H13        4.4869    3.8654   13.9065 H         1 RES1    0.0000
     58 H14        3.5309    5.9664   13.5990 H         1 RES1    0.0000
     59 H15        2.1361    6.9163   15.1805 H         1 RES1    0.0000
     60 H16        1.5072    5.6582   17.0874 H         1 RES1    0.0000
     61 H17        0.0550    4.3652   13.5876 H         2 RES2    0.0000
     62 H18       -1.2447    3.2458   17.8684 H         2 RES2    0.0000
     63 H19       -3.1784    6.9873   16.5424 H         2 RES2    0.0000
     64 H20       -3.7713    8.1342   14.5948 H         2 RES2    0.0000
     65 H21       -3.5972    8.5451   12.2583 H         2 RES2    0.0000
     66 H22       -3.3720    7.2287   11.4383 H         2 RES2    0.0000
     67 H23       -2.1892    8.2348   11.6449 H         2 RES2    0.0000
     68 H24       -1.2748    5.8425   12.4324 H         2 RES2    0.0000
     69 H25       -2.8051   -0.5168   17.9400 H         2 RES2    0.0000
     70 H26       -1.4736   -0.7148   17.1346 H         2 RES2    0.0000
     71 H27       -2.8388   -0.5888   16.3748 H         2 RES2    0.0000
     72 H28       -0.5703    7.4014   17.4714 H         2 RES2    0.0000
     73 H29       -0.3693    8.5069   19.5476 H         2 RES2    0.0000
     74 H30       -1.2471    7.5613   21.4610 H         2 RES2    0.0000
     75 H31       -2.3758    5.4983   21.3894 H         2 RES2    0.0000
     76 H32       -2.4745    4.3366   19.3409 H         2 RES2    0.0000
@<TRIPOS>BOND
     1    1    2 1
     2    2    3 2
     3    4    2 1
     4    5    4 1
     5    6    5 2
     6    7    6 1
     7    8    7 ar
     8    9    8 ar
     9   10    9 ar
    10   11   10 1
    11   12   10 ar
    12   13    1 1
    13   14    4 2
    14   15   14 1
    15   16   15 1
    16   17    6 1
    17   18   17 ar
    18   19   18 ar
    19   20   19 ar
    20   21   20 ar
    21   22   17 ar
    22   23   24 1
    23   24   25 2
    24   26   24 1
    25   27   26 1
    26   28   27 2
    27   29   28 1
    28   30   29 ar
    29   31   30 ar
    30   32   31 ar
    31   33   32 1
    32   34   32 ar
    33   35   23 1
    34   36   26 2
    35   37   36 1
    36   38   37 1
    37   39   28 1
    38   40   39 ar
    39   41   40 ar
    40   42   41 ar
    41   43   42 ar
    42   44   39 ar
    43   45    1 1
    44   46    5 1
    45   47    8 1
    46   48    9 1
    47   49   11 1
    48   50   11 1
    49   51   11 1
    50   52   12 1
    51   53   16 1
    52   54   16 1
    53   55   16 1
    54   56   18 1
    55   57   19 1
    56   58   20 1
    57   59   21 1
    58   60   22 1
    59   61   23 1
    60   62   27 1
    61   63   30 1
    62   64   31 1
    63   65   33 1
    64   66   33 1
    65   67   33 1
    66   68   34 1
    67   69   38 1
    68   70   38 1
    69   71   38 1
    70   72   40 1
    71   73   41 1
    72   74   42 1
    73   75   43 1
    74   76   44 1
    75    7   13 ar
    76   12   13 ar
    77   21   22 ar
    78   29   35 ar
    79   34   35 ar
    80   43   44 ar
@<TRIPOS>SUBSTRUCTURE
     1 RES1 1
     2 RES2 23

@<TRIPOS>CRYSIN
  18.1940   10.5900   16.7550  90.0000 103.8100  90.0000  14 1

