# MOL2 file generated by ConQuest
# Please check atom types

@<TRIPOS>MOLECULE
NEVKAC
    82    86     2
SMALL
NO_CHARGES
****
Generated from CSD

@<TRIPOS>ATOM
      1 O1         3.4964   -0.0517    7.0452 O.3       1 RES1    0.0000
      2 N1         2.4038    0.3637    7.8472 N.2       1 RES1    0.0000
      3 N2         4.3305    1.7162    5.6182 N.3       1 RES1    0.0000
      4 C1         2.6987    1.4875    8.3927 C.2       1 RES1    0.0000
      5 C2         4.0633    2.0123    8.0490 C.3       1 RES1    0.0000
      6 H1         3.9888    2.9535    7.7182 H         1 RES1    0.0000
      7 C3         4.4297    1.0873    6.8884 C.3       1 RES1    0.0000
      8 H2         5.3666    0.7602    7.0174 H         1 RES1    0.0000
      9 C4         1.7402    2.1575    9.2933 C.ar      1 RES1    0.0000
     10 C5         0.7853    1.4173    9.9906 C.ar      1 RES1    0.0000
     11 H3         0.7664    0.4706    9.9119 H         1 RES1    0.0000
     12 C6        -0.1387    2.0671   10.7993 C.ar      1 RES1    0.0000
     13 H4        -0.7941    1.5630   11.2670 H         1 RES1    0.0000
     14 C7        -0.1097    3.4454   10.9277 C.ar      1 RES1    0.0000
     15 H5        -0.7423    3.8840   11.4850 H         1 RES1    0.0000
     16 C8         0.8426    4.1867   10.2437 C.ar      1 RES1    0.0000
     17 H6         0.8630    5.1319   10.3332 H         1 RES1    0.0000
     18 C9         1.7654    3.5476    9.4285 C.ar      1 RES1    0.0000
     19 H7         2.4165    4.0565    8.9614 H         1 RES1    0.0000
     20 C10        5.0233    1.9619    9.2527 C.3       1 RES1    0.0000
     21 H8         4.6543    2.5755    9.9511 H         1 RES1    0.0000
     22 C11        5.1326    0.5816    9.8808 C.3       1 RES1    0.0000
     23 H9         5.4679   -0.0543    9.2149 H         1 RES1    0.0000
     24 H10        4.2494    0.2939   10.1934 H         1 RES1    0.0000
     25 H11        5.7519    0.6165   10.6388 H         1 RES1    0.0000
     26 C12        6.3877    2.5063    8.8509 C.3       1 RES1    0.0000
     27 H12        6.9575    2.5787    9.6454 H         1 RES1    0.0000
     28 H13        6.2793    3.3911    8.4451 H         1 RES1    0.0000
     29 H14        6.8037    1.8994    8.2047 H         1 RES1    0.0000
     30 C13        3.0244    2.2679    5.2423 C.3       1 RES1    0.0000
     31 H15        2.7832    3.0408    5.8133 H         1 RES1    0.0000
     32 H16        2.3140    1.5821    5.3064 H         1 RES1    0.0000
     33 C14        3.2470    2.6971    3.7978 C.3       1 RES1    0.0000
     34 H17        3.5801    3.6285    3.7538 H         1 RES1    0.0000
     35 H18        2.4076    2.6319    3.2766 H         1 RES1    0.0000
     36 C15        4.2927    1.7199    3.2660 C.3       1 RES1    0.0000
     37 H19        5.0643    2.2082    2.8834 H         1 RES1    0.0000
     38 H20        3.9038    1.1403    2.5647 H         1 RES1    0.0000
     39 C16        4.7263    0.8854    4.4757 C.3       1 RES1    0.0000
     40 H21        4.2601    0.0117    4.4919 H         1 RES1    0.0000
     41 H22        5.7041    0.7304    4.4695 H         1 RES1    0.0000
     42 O2         3.7809    5.2657    7.1234 O.3       2 RES2    0.0000
     43 N3         2.7139    5.6094    6.2618 N.2       2 RES2    0.0000
     44 N4         4.5022    7.0250    8.6166 N.3       2 RES2    0.0000
     45 C17        2.9484    6.7588    5.7427 C.2       2 RES2    0.0000
     46 C18        4.2403    7.3909    6.1895 C.3       2 RES2    0.0000
     47 H23        4.0533    8.2993    6.5626 H         2 RES2    0.0000
     48 C19        4.6425    6.4543    7.3201 C.3       2 RES2    0.0000
     49 H24        5.5967    6.1848    7.1889 H         2 RES2    0.0000
     50 C20        1.9962    7.3505    4.7880 C.ar      2 RES2    0.0000
     51 C21        1.2354    6.5382    3.9448 C.ar      2 RES2    0.0000
     52 H25        1.3534    5.5961    3.9607 H         2 RES2    0.0000
     53 C22        0.3087    7.1073    3.0854 C.ar      2 RES2    0.0000
     54 H26       -0.2067    6.5511    2.5125 H         2 RES2    0.0000
     55 C23        0.1280    8.4819    3.0554 C.ar      2 RES2    0.0000
     56 H27       -0.5140    8.8647    2.4696 H         2 RES2    0.0000
     57 C24        0.8883    9.2976    3.8848 C.ar      2 RES2    0.0000
     58 H28        0.7685   10.2403    3.8638 H         2 RES2    0.0000
     59 C25        1.8217    8.7372    4.7448 C.ar      2 RES2    0.0000
     60 H29        2.3450    9.2980    5.3064 H         2 RES2    0.0000
     61 C26        5.2647    7.5093    5.0397 C.3       2 RES2    0.0000
     62 H30        4.8603    8.1024    4.3428 H         2 RES2    0.0000
     63 C27        5.5651    6.1716    4.3735 C.3       2 RES2    0.0000
     64 H31        6.2128    6.3052    3.6513 H         2 RES2    0.0000
     65 H32        4.7379    5.7962    4.0054 H         2 RES2    0.0000
     66 H33        5.9386    5.5535    5.0361 H         2 RES2    0.0000
     67 C28        6.5380    8.1891    5.5256 C.3       2 RES2    0.0000
     68 H34        6.9704    7.6275    6.2010 H         2 RES2    0.0000
     69 H35        6.3152    9.0585    5.9177 H         2 RES2    0.0000
     70 H36        7.1485    8.3185    4.7696 H         2 RES2    0.0000
     71 C29        3.1665    7.5075    9.0011 C.3       2 RES2    0.0000
     72 H37        2.4711    6.8343    8.7936 H         2 RES2    0.0000
     73 H38        2.9458    8.3536    8.5364 H         2 RES2    0.0000
     74 C30        3.2920    7.7240   10.5179 C.3       2 RES2    0.0000
     75 H39        3.3572    8.6890   10.7264 H         2 RES2    0.0000
     76 H40        2.5060    7.3486   10.9892 H         2 RES2    0.0000
     77 C31        4.5622    7.0001   10.9385 C.3       2 RES2    0.0000
     78 H41        5.2806    7.6445   11.1589 H         2 RES2    0.0000
     79 H42        4.3964    6.4212   11.7236 H         2 RES2    0.0000
     80 C32        4.9324    6.1708    9.7211 C.3       2 RES2    0.0000
     81 H43        5.9071    6.0006    9.6846 H         2 RES2    0.0000
     82 H44        4.4510    5.3065    9.7144 H         2 RES2    0.0000
@<TRIPOS>BOND
     1    1    2 1
     2    2    4 2
     3    3    7 1
     4    4    5 1
     5    5    6 1
     6    7    1 1
     7    8    7 1
     8    9    4 1
     9   10    9 ar
    10   11   10 1
    11   12   10 ar
    12   13   12 1
    13   14   12 ar
    14   15   14 1
    15   16   14 ar
    16   17   16 1
    17   18    9 ar
    18   19   18 1
    19   20    5 1
    20   21   20 1
    21   22   20 1
    22   23   22 1
    23   24   22 1
    24   25   22 1
    25   26   20 1
    26   27   26 1
    27   28   26 1
    28   29   26 1
    29   30    3 1
    30   31   30 1
    31   32   30 1
    32   33   30 1
    33   34   33 1
    34   35   33 1
    35   36   33 1
    36   37   36 1
    37   38   36 1
    38   39    3 1
    39   40   39 1
    40   41   39 1
    41   42   43 1
    42   43   45 2
    43   44   48 1
    44   45   46 1
    45   46   47 1
    46   48   42 1
    47   49   48 1
    48   50   45 1
    49   51   50 ar
    50   52   51 1
    51   53   51 ar
    52   54   53 1
    53   55   53 ar
    54   56   55 1
    55   57   55 ar
    56   58   57 1
    57   59   50 ar
    58   60   59 1
    59   61   46 1
    60   62   61 1
    61   63   61 1
    62   64   63 1
    63   65   63 1
    64   66   63 1
    65   67   61 1
    66   68   67 1
    67   69   67 1
    68   70   67 1
    69   71   44 1
    70   72   71 1
    71   73   71 1
    72   74   71 1
    73   75   74 1
    74   76   74 1
    75   77   74 1
    76   78   77 1
    77   79   77 1
    78   80   44 1
    79   81   80 1
    80   82   80 1
    81    5    7 1
    82   16   18 ar
    83   36   39 1
    84   46   48 1
    85   57   59 ar
    86   77   80 1
@<TRIPOS>SUBSTRUCTURE
     1 RES1 1
     2 RES2 42

@<TRIPOS>CRYSIN
  14.7590   10.6470   18.6450  90.0000  91.5160  90.0000  14 1

