# MOL2 file generated by ConQuest
# Please check atom types

@<TRIPOS>MOLECULE
NEWCIC
    45    46     1
SMALL
NO_CHARGES
****
Generated from CSD

@<TRIPOS>ATOM
      1 O1        -4.7118    0.3848   -1.9290 O.2       1 RES1    0.0000
      2 O2        -3.7110    2.0561   -2.8089 O.2       1 RES1    0.0000
      3 N1        -3.8101    1.2037   -1.9503 N.pl3     1 RES1    0.0000
      4 C1        -2.8114    1.1659   -0.8753 C.ar      1 RES1    0.0000
      5 C2        -2.9741    0.3072    0.1540 C.ar      1 RES1    0.0000
      6 C3        -2.0534    0.2904    1.1757 C.ar      1 RES1    0.0000
      7 C4        -0.9522    1.1198    1.1803 C.ar      1 RES1    0.0000
      8 C5        -0.8267    1.9701    0.1098 C.ar      1 RES1    0.0000
      9 C6        -1.7390    2.0131   -0.9241 C.ar      1 RES1    0.0000
     10 C7         0.0510    1.0883    2.2645 C.ar      1 RES1    0.0000
     11 C8         0.1484    0.0461    3.1474 C.ar      1 RES1    0.0000
     12 C9         1.1286   -0.0021    4.1203 C.ar      1 RES1    0.0000
     13 C10        2.0562    0.9856    4.2621 C.ar      1 RES1    0.0000
     14 C11        1.9402    2.0467    3.4142 C.ar      1 RES1    0.0000
     15 C12        0.9602    2.1085    2.4383 C.ar      1 RES1    0.0000
     16 C13        3.1504    0.8744    5.2960 C.3       1 RES1    0.0000
     17 C14        3.6547    2.1641    5.8678 C.3       1 RES1    0.0000
     18 C15        4.6562    1.9817    6.9962 C.3       1 RES1    0.0000
     19 C16        5.1027    3.2808    7.6336 C.3       1 RES1    0.0000
     20 C17        6.0880    3.1099    8.7804 C.3       1 RES1    0.0000
     21 C18        6.5825    4.4037    9.3568 C.3       1 RES1    0.0000
     22 C19        7.5802    4.2349   10.4806 C.3       1 RES1    0.0000
     23 H1        -3.7770   -0.3355    0.1677 H         1 RES1    0.0000
     24 H2        -2.1949   -0.3565    1.9671 H         1 RES1    0.0000
     25 H3        -0.0169    2.6108    0.0762 H         1 RES1    0.0000
     26 H4        -1.6094    2.6632   -1.7231 H         1 RES1    0.0000
     27 H5        -0.5337   -0.7339    3.0803 H         1 RES1    0.0000
     28 H6         1.1633   -0.8073    4.7577 H         1 RES1    0.0000
     29 H7         2.6087    2.8310    3.4920 H         1 RES1    0.0000
     30 H8         0.9001    2.9463    1.8299 H         1 RES1    0.0000
     31 H9         3.9449    0.3879    4.8644 H         1 RES1    0.0000
     32 H10        2.7868    0.3041    6.0691 H         1 RES1    0.0000
     33 H11        2.8470    2.6946    6.2216 H         1 RES1    0.0000
     34 H12        4.1123    2.6946    5.1084 H         1 RES1    0.0000
     35 H13        5.4890    1.4994    6.6181 H         1 RES1    0.0000
     36 H14        4.2237    1.3945    7.7312 H         1 RES1    0.0000
     37 H15        4.2644    3.7641    7.9905 H         1 RES1    0.0000
     38 H16        5.5480    3.8585    6.9078 H         1 RES1    0.0000
     39 H17        6.9025    2.5793    8.4327 H         1 RES1    0.0000
     40 H18        5.6176    2.5793    9.5306 H         1 RES1    0.0000
     41 H19        5.7693    4.9280    9.7136 H         1 RES1    0.0000
     42 H20        7.0346    4.9489    8.6004 H         1 RES1    0.0000
     43 H21        7.8696    5.1586   10.8268 H         1 RES1    0.0000
     44 H22        7.1434    3.7012   11.2537 H         1 RES1    0.0000
     45 H23        8.3995    3.7222   10.1253 H         1 RES1    0.0000
@<TRIPOS>BOND
     1    1    3 2
     2    2    3 2
     3    3    4 1
     4    4    5 ar
     5    5    6 ar
     6    6    7 ar
     7    7    8 ar
     8    8    9 ar
     9    9    4 ar
    10   10    7 1
    11   11   10 ar
    12   12   11 ar
    13   13   12 ar
    14   14   13 ar
    15   15   10 ar
    16   16   13 1
    17   17   16 1
    18   18   17 1
    19   19   18 1
    20   20   19 1
    21   21   20 1
    22   22   21 1
    23   23    5 1
    24   24    6 1
    25   25    8 1
    26   26    9 1
    27   27   11 1
    28   28   12 1
    29   29   14 1
    30   30   15 1
    31   31   16 1
    32   32   16 1
    33   33   17 1
    34   34   17 1
    35   35   18 1
    36   36   18 1
    37   37   19 1
    38   38   19 1
    39   39   20 1
    40   40   20 1
    41   41   21 1
    42   42   21 1
    43   43   22 1
    44   44   22 1
    45   45   22 1
    46   14   15 ar
@<TRIPOS>SUBSTRUCTURE
     1 RES1 1

@<TRIPOS>CRYSIN
  10.4520   10.4850   15.3040  90.0000  94.8600  90.0000  14 2

