# MOL2 file generated by ConQuest
# Please check atom types

@<TRIPOS>MOLECULE
NEWHAB
    46    46     1
SMALL
NO_CHARGES
****
Generated from CSD

@<TRIPOS>ATOM
      1 O1         4.1854    6.4720    9.8900 O.3       1 RES1    0.0000
      2 O2         4.2247    8.7249   10.1091 O.3       1 RES1    0.0000
      3 O3         3.5454    8.3260   12.2357 O.2       1 RES1    0.0000
      4 O4         5.1710    9.7102   11.8106 O.2       1 RES1    0.0000
      5 O5         2.0863    8.9211    8.2012 O.3       1 RES1    0.0000
      6 O6         3.6599   10.2726    7.3148 O.2       1 RES1    0.0000
      7 O7         2.1737    6.6803    6.3768 O.3       1 RES1    0.0000
      8 O8        -0.0813    6.5759    6.4588 O.2       1 RES1    0.0000
      9 O9         2.0625    4.2624    7.8936 O.3       1 RES1    0.0000
     10 O10        3.6671    2.9761    6.9699 O.2       1 RES1    0.0000
     11 O11        3.5731    2.9501   10.0635 O.3       1 RES1    0.0000
     12 O12        5.4802    1.8046   10.3538 O.2       1 RES1    0.0000
     13 N1         4.3082    8.9246   11.5307 N.pl3     1 RES1    0.0000
     14 C1         3.3983    7.6299    9.7468 C.3       1 RES1    0.0000
     15 H1         2.5852    7.5862   10.3260 H         1 RES1    0.0000
     16 C2         3.0194    7.8368    8.2890 C.3       1 RES1    0.0000
     17 H2         3.8286    8.0127    7.7288 H         1 RES1    0.0000
     18 C3         2.2805    6.5983    7.8090 C.3       1 RES1    0.0000
     19 H3         1.3662    6.5747    8.2131 H         1 RES1    0.0000
     20 C4         3.0167    5.3137    8.1422 C.3       1 RES1    0.0000
     21 H4         3.8176    5.2061    7.5528 H         1 RES1    0.0000
     22 C5         3.4271    5.2839    9.6115 C.3       1 RES1    0.0000
     23 H5         2.6129    5.2561   10.1916 H         1 RES1    0.0000
     24 C6         4.3668    4.1588    9.9875 C.3       1 RES1    0.0000
     25 H6         5.0770    4.0612    9.3043 H         1 RES1    0.0000
     26 H7         4.7938    4.3447   10.8612 H         1 RES1    0.0000
     27 C7         4.2772    1.8146   10.2755 C.2       1 RES1    0.0000
     28 C8         3.3767    0.6432   10.4390 C.3       1 RES1    0.0000
     29 H8         2.5957    0.7475    9.8557 H         1 RES1    0.0000
     30 H9         3.0825    0.5849   11.3732 H         1 RES1    0.0000
     31 H10        3.8579   -0.1751   10.1962 H         1 RES1    0.0000
     32 C9         2.5255   10.0982    7.6795 C.2       1 RES1    0.0000
     33 C10        1.4232   11.0903    7.6482 C.3       1 RES1    0.0000
     34 H11        1.3430   11.5168    8.5258 H         1 RES1    0.0000
     35 H12        0.5824   10.6373    7.4277 H         1 RES1    0.0000
     36 H13        1.6156   11.7711    6.9713 H         1 RES1    0.0000
     37 C11        0.9303    6.6289    5.8191 C.2       1 RES1    0.0000
     38 C12        1.0421    6.6372    4.3373 C.3       1 RES1    0.0000
     39 H14        1.4928    5.8202    4.0382 H         1 RES1    0.0000
     40 H15        1.5609    7.4194    4.0544 H         1 RES1    0.0000
     41 H16        0.1460    6.6803    3.9432 H         1 RES1    0.0000
     42 C13        2.5200    3.1302    7.2942 C.2       1 RES1    0.0000
     43 C14        1.4104    2.1472    7.1707 C.3       1 RES1    0.0000
     44 H17        0.6610    2.5593    6.6909 H         1 RES1    0.0000
     45 H18        1.1162    1.8729    8.0648 H         1 RES1    0.0000
     46 H19        1.7229    1.3616    6.6747 H         1 RES1    0.0000
@<TRIPOS>BOND
     1    1   14 1
     2    2   13 1
     3    3   13 2
     4    4   13 2
     5    5   16 1
     6    6   32 2
     7    7   18 1
     8    8   37 2
     9    9   20 1
    10   10   42 2
    11   11   24 1
    12   12   27 2
    13   14    2 1
    14   15   14 1
    15   16   14 1
    16   17   16 1
    17   18   16 1
    18   19   18 1
    19   20   18 1
    20   21   20 1
    21   22    1 1
    22   23   22 1
    23   24   22 1
    24   25   24 1
    25   26   24 1
    26   27   11 1
    27   28   27 1
    28   29   28 1
    29   30   28 1
    30   31   28 1
    31   32    5 1
    32   33   32 1
    33   34   33 1
    34   35   33 1
    35   36   33 1
    36   37    7 1
    37   38   37 1
    38   39   38 1
    39   40   38 1
    40   41   38 1
    41   42    9 1
    42   43   42 1
    43   44   43 1
    44   45   43 1
    45   46   43 1
    46   20   22 1
@<TRIPOS>SUBSTRUCTURE
     1 RES1 1

@<TRIPOS>CRYSIN
   5.5311   13.8941   23.1680  90.0000  90.0000  90.0000  19 1

