# MOL2 file generated by ConQuest
# Please check atom types

@<TRIPOS>MOLECULE
NEWMEK
    59    63     1
SMALL
NO_CHARGES
****
Generated from CSD

@<TRIPOS>ATOM
      1 O1         9.5825   10.2668    9.2282 O.3       1 RES1    0.0000
      2 O2         9.7542    8.8598    5.4844 O.2       1 RES1    0.0000
      3 O3        10.8384    6.6557   10.0609 O.2       1 RES1    0.0000
      4 O4         9.2820    6.0304    8.5660 O.3       1 RES1    0.0000
      5 N1        11.8497   10.0818    8.6573 N.3       1 RES1    0.0000
      6 N2         8.3949    9.6012    8.7481 N.3       1 RES1    0.0000
      7 N3         8.5309   10.6190    6.2947 N.am      1 RES1    0.0000
      8 H1         8.0900   10.8669    6.9903 H         1 RES1    0.0000
      9 C1        12.5905   10.9563    9.4466 C.ar      1 RES1    0.0000
     10 C2         7.6773    8.9392    9.8124 C.ar      1 RES1    0.0000
     11 C3         9.1169    9.4112    6.3765 C.2       1 RES1    0.0000
     12 C4        10.1542    6.8866    9.0971 C.2       1 RES1    0.0000
     13 C5         8.5426   11.5395    5.2161 C.ar      1 RES1    0.0000
     14 C6        10.2467    8.1750    8.2878 C.3       1 RES1    0.0000
     15 H2        10.8808    8.0453    7.5512 H         1 RES1    0.0000
     16 C7        10.7238    9.3415    9.1581 C.3       1 RES1    0.0000
     17 H3        10.9277    9.0109   10.0579 H         1 RES1    0.0000
     18 C8        13.5386   11.5944    8.6133 C.ar      1 RES1    0.0000
     19 C9         8.9130    8.6927    7.7171 C.3       1 RES1    0.0000
     20 H4         8.2933    7.9434    7.5981 H         1 RES1    0.0000
     21 C10        7.9014   12.7617    5.4231 C.ar      1 RES1    0.0000
     22 H5         7.4877   12.9352    6.2379 H         1 RES1    0.0000
     23 C11       12.2980   10.1986    7.3479 C.2       1 RES1    0.0000
     24 H6        11.9481    9.7369    6.6209 H         1 RES1    0.0000
     25 C12       12.4746   11.2392   10.8066 C.ar      1 RES1    0.0000
     26 H7        11.8352   10.8187   11.3354 H         1 RES1    0.0000
     27 C13        8.1069    8.9558   11.1298 C.ar      1 RES1    0.0000
     28 H8         8.8973    9.3891   11.3601 H         1 RES1    0.0000
     29 C14        7.8784   13.7194    4.4211 C.ar      1 RES1    0.0000
     30 H9         7.4493   14.5316    4.5650 H         1 RES1    0.0000
     31 C15       13.3252   11.0888    7.2873 C.2       1 RES1    0.0000
     32 H10       13.8024   11.3262    6.5257 H         1 RES1    0.0000
     33 C16        6.4761    8.3088    9.4736 C.ar      1 RES1    0.0000
     34 H11        6.1748    8.3194    8.5939 H         1 RES1    0.0000
     35 C17       13.3516   12.1729   11.3390 C.ar      1 RES1    0.0000
     36 H12       13.3017   12.3826   12.2435 H         1 RES1    0.0000
     37 C18       14.4158   12.5305    9.1842 C.ar      1 RES1    0.0000
     38 H13       15.0558   12.9582    8.6619 H         1 RES1    0.0000
     39 C19        8.4951   13.4676    3.2037 C.ar      1 RES1    0.0000
     40 H14        8.4827   14.1091    2.5302 H         1 RES1    0.0000
     41 C20       14.3122   12.8058   10.5356 C.ar      1 RES1    0.0000
     42 H15       14.8916   13.4230   10.9203 H         1 RES1    0.0000
     43 C21        5.7371    7.6681   10.4555 C.ar      1 RES1    0.0000
     44 H16        4.9440    7.2395   10.2297 H         1 RES1    0.0000
     45 C22        6.1720    7.6619   11.7746 C.ar      1 RES1    0.0000
     46 H17        5.6796    7.2208   12.4288 H         1 RES1    0.0000
     47 C23        9.1623   11.2821    3.9946 C.ar      1 RES1    0.0000
     48 H18        9.5923   10.4710    3.8460 H         1 RES1    0.0000
     49 C24        7.3445    8.3182   12.1087 C.ar      1 RES1    0.0000
     50 H19        7.6263    8.3335   12.9946 H         1 RES1    0.0000
     51 C25        9.1285   12.2552    3.0007 C.ar      1 RES1    0.0000
     52 H20        9.5398   12.0872    2.1843 H         1 RES1    0.0000
     53 C26        9.1774    4.7287    9.2438 C.3       1 RES1    0.0000
     54 H21       10.0688    4.3927    9.4291 H         1 RES1    0.0000
     55 H22        8.7368    4.0969    8.6557 H         1 RES1    0.0000
     56 C27        8.4087    4.8269   10.5309 C.3       1 RES1    0.0000
     57 H23        7.5605    5.2454   10.3656 H         1 RES1    0.0000
     58 H24        8.9068    5.3518   11.1624 H         1 RES1    0.0000
     59 H25        8.2675    3.9471   10.8869 H         1 RES1    0.0000
@<TRIPOS>BOND
     1    1    6 1
     2    2   11 2
     3    3   12 2
     4    4   12 1
     5    5    9 1
     6    6   10 1
     7    7    8 1
     8    9   18 ar
     9   10   27 ar
    10   11    7 1
    11   12   14 1
    12   13    7 1
    13   14   15 1
    14   16    1 1
    15   17   16 1
    16   18   31 1
    17   19    6 1
    18   20   19 1
    19   21   13 ar
    20   22   21 1
    21   23    5 1
    22   24   23 1
    23   25    9 ar
    24   26   25 1
    25   27   28 1
    26   29   21 ar
    27   30   29 1
    28   31   23 2
    29   32   31 1
    30   33   10 ar
    31   34   33 1
    32   35   25 ar
    33   36   35 1
    34   37   18 ar
    35   38   37 1
    36   39   29 ar
    37   40   39 1
    38   41   35 ar
    39   42   41 1
    40   43   33 ar
    41   44   43 1
    42   45   43 ar
    43   46   45 1
    44   47   13 ar
    45   48   47 1
    46   49   27 ar
    47   50   49 1
    48   51   39 ar
    49   52   51 1
    50   53    4 1
    51   54   53 1
    52   55   53 1
    53   56   53 1
    54   57   56 1
    55   58   56 1
    56   59   56 1
    57    5   16 1
    58   11   19 1
    59   14   16 1
    60   14   19 1
    61   37   41 ar
    62   45   49 ar
    63   47   51 ar
@<TRIPOS>SUBSTRUCTURE
     1 RES1 1

@<TRIPOS>CRYSIN
   8.2791   11.9516   13.3253  68.0470  81.4370  70.3860   2 1

