# MOL2 file generated by ConQuest
# Please check atom types

@<TRIPOS>MOLECULE
NEWMOS
    24    24     1
SMALL
USER_CHARGES
****
Generated from CSD

@<TRIPOS>ATOM
      1 O1         7.8120   12.3520    1.8322 O.3       1 RES1    0.0000
      2 O2         6.4307   15.3826    0.7600 O.3       1 RES1    0.0000
      3 O3         6.3262   14.7512   -1.3790 O.2       1 RES1    0.0000
      4 O4         9.1339    8.1029    1.4825 O.co2     1 RES1    0.0000
      5 O5        10.3829    9.2214    2.9275 O.co2     1 RES1   -1.0000
      6 N1         8.4485   11.2730    2.4809 N.2       1 RES1    0.0000
      7 N2         5.1818   13.3632    1.7468 N.4       1 RES1    1.0000
      8 C1         8.8173   10.4236    1.6136 C.2       1 RES1    0.0000
      9 C2         8.5026   10.7666    0.1988 C.3       1 RES1    0.0000
     10 C3         7.7747   12.0954    0.3860 C.3       1 RES1    0.0000
     11 C4         6.3250   12.0507   -0.0534 C.3       1 RES1    0.0000
     12 C5         5.4806   13.2766    0.2864 C.3       1 RES1    0.0000
     13 C6         6.1196   14.5611   -0.2043 C.2       1 RES1    0.0000
     14 C7         9.4887    9.1492    2.0315 C.2       1 RES1    0.0000
     15 H1         8.2275   12.8868   -0.0055 H         1 RES1    0.0000
     16 H2         4.4441   13.9963    1.8999 H         1 RES1    0.0000
     17 H3         4.5041   13.2343   -0.1597 H         1 RES1    0.0000
     18 H4         5.8373   11.2559    0.3359 H         1 RES1    0.0000
     19 H5         4.8284   12.6060    2.0706 H         1 RES1    0.0000
     20 H6         5.8974   13.7289    2.2634 H         1 RES1    0.0000
     21 H7         6.9424   16.0282    0.4461 H         1 RES1    0.0000
     22 H8         9.2605   10.8949   -0.3524 H         1 RES1    0.0000
     23 H9         6.3778   11.9376   -1.0133 H         1 RES1    0.0000
     24 H10        8.0474   10.1196   -0.1983 H         1 RES1    0.0000
@<TRIPOS>BOND
     1    1    6 1
     2    2   13 1
     3    3   13 2
     4    4   14 2
     5    5   14 1
     6    6    8 2
     7    7   12 1
     8    8    9 1
     9    9   10 1
    10   10    1 1
    11   11   10 1
    12   12   11 1
    13   13   12 1
    14   14    8 1
    15   15   10 1
    16   16    7 1
    17   17   12 1
    18   18   11 1
    19   19    7 1
    20   20    7 1
    21   21    2 1
    22   22    9 1
    23   23   11 1
    24   24    9 1
@<TRIPOS>SUBSTRUCTURE
     1 RES1 1

@<TRIPOS>CRYSIN
  12.0110   13.3680    5.5070  90.0000  90.0000  90.0000  19 1

