# MOL2 file generated by ConQuest
# Please check atom types

@<TRIPOS>MOLECULE
NEXNAH
    26    27     1
SMALL
NO_CHARGES
****
Generated from CSD

@<TRIPOS>ATOM
      1 O1         6.3266    1.2419    1.3629 O.3       1 RES1    0.0000
      2 H1         6.3804    0.9715    0.5896 H         1 RES1    0.0000
      3 O2         5.8776    0.5796   -2.3620 O.3       1 RES1    0.0000
      4 H2         6.3804   -0.0684   -2.3371 H         1 RES1    0.0000
      5 N1         5.8814    1.2235   -1.1184 N.2       1 RES1    0.0000
      6 C1         5.7385    2.4669    1.3736 C.ar      1 RES1    0.0000
      7 C2         5.2984    3.0771    0.1967 C.ar      1 RES1    0.0000
      8 C3         4.7302    4.3822    0.3075 C.ar      1 RES1    0.0000
      9 H3         4.4480    4.8299   -0.4820 H         1 RES1    0.0000
     10 C4         4.5804    5.0042    1.5116 C.ar      1 RES1    0.0000
     11 H4         4.2103    5.8788    1.5451 H         1 RES1    0.0000
     12 C5         4.9698    4.3609    2.7111 C.ar      1 RES1    0.0000
     13 C6         4.7537    4.9511    3.9900 C.ar      1 RES1    0.0000
     14 H5         4.3543    5.8111    4.0522 H         1 RES1    0.0000
     15 C7         5.1171    4.2860    5.1306 C.ar      1 RES1    0.0000
     16 H6         4.9640    4.6879    5.9783 H         1 RES1    0.0000
     17 C8         5.7168    3.0120    5.0615 C.ar      1 RES1    0.0000
     18 H7         5.9707    2.5643    5.8599 H         1 RES1    0.0000
     19 C9         5.9327    2.4198    3.8516 C.ar      1 RES1    0.0000
     20 H8         6.3343    1.5599    3.8155 H         1 RES1    0.0000
     21 C10        5.5637    3.0771    2.6448 C.ar      1 RES1    0.0000
     22 C11        5.3577    2.4004   -1.1122 C.2       1 RES1    0.0000
     23 C12        4.7992    3.0629   -2.3412 C.3       1 RES1    0.0000
     24 H9         4.9821    2.5049   -3.1247 H         1 RES1    0.0000
     25 H10        5.2199    3.9403   -2.4597 H         1 RES1    0.0000
     26 H11        3.8313    3.1758   -2.2402 H         1 RES1    0.0000
@<TRIPOS>BOND
     1    1    2 1
     2    3    4 1
     3    5    3 1
     4    6    1 1
     5    7    6 ar
     6    8    7 ar
     7    9    8 1
     8   10    8 ar
     9   11   10 1
    10   12   10 ar
    11   13   12 ar
    12   14   13 1
    13   15   13 ar
    14   16   15 1
    15   17   15 ar
    16   18   17 1
    17   19   17 ar
    18   20   19 1
    19   21    6 ar
    20   22    5 2
    21   23   22 1
    22   24   23 1
    23   25   23 1
    24   26   23 1
    25    7   22 1
    26   12   21 ar
    27   19   21 ar
@<TRIPOS>SUBSTRUCTURE
     1 RES1 1

@<TRIPOS>CRYSIN
  13.9830    6.4510   21.5200  90.0000  90.0000  90.0000  61 1

