# MOL2 file generated by ConQuest
# Please check atom types

@<TRIPOS>MOLECULE
NEYGIK
    56    59     1
SMALL
NO_CHARGES
****
Generated from CSD

@<TRIPOS>ATOM
      1 O1        -0.1270    0.4844    6.5308 O.3       1 RES1    0.0000
      2 O2        -2.3699    0.5543    6.4236 O.2       1 RES1    0.0000
      3 O3         0.0276    1.5281    1.9557 O.3       1 RES1    0.0000
      4 O4         1.7636    2.9662    2.0959 O.2       1 RES1    0.0000
      5 O5         1.7811    1.4397    5.5594 O.3       1 RES1    0.0000
      6 O6         0.0657    2.8249    5.0422 O.2       1 RES1    0.0000
      7 O7        -4.4165    6.6688    1.2841 O.2       1 RES1    0.0000
      8 O8        -2.7898    8.0786    1.1323 O.2       1 RES1    0.0000
      9 O9         4.6228    7.9708    4.5284 O.2       1 RES1    0.0000
     10 O10        6.2507    6.5735    4.7510 O.2       1 RES1    0.0000
     11 N1        -3.2250    6.9482    1.3046 N.pl3     1 RES1    0.0000
     12 N2         5.0586    6.8426    4.7387 N.pl3     1 RES1    0.0000
     13 C1         0.9461    0.2541    5.6142 C.3       1 RES1    0.0000
     14 C2         0.2624   -0.0474    4.2917 C.2       1 RES1    0.0000
     15 C3        -1.0556    0.0174    4.4557 C.2       1 RES1    0.0000
     16 C4        -1.3241    0.3891    5.8616 C.2       1 RES1    0.0000
     17 C5         1.8412   -0.8217    6.1731 C.3       1 RES1    0.0000
     18 H1         1.3724   -1.6818    6.1501 H         1 RES1    0.0000
     19 H2         2.0759   -0.6028    7.0988 H         1 RES1    0.0000
     20 H3         2.6575   -0.8802    5.6349 H         1 RES1    0.0000
     21 C6        -2.1697   -0.2395    3.5059 C.3       1 RES1    0.0000
     22 H4        -1.8031   -0.4821    2.6295 H         1 RES1    0.0000
     23 H5        -2.7177    0.5681    3.4192 H         1 RES1    0.0000
     24 H6        -2.7230   -0.9746    3.8429 H         1 RES1    0.0000
     25 C7         1.0116   -0.3665    3.0560 C.ar      1 RES1    0.0000
     26 C8         1.8245   -1.5023    2.9662 C.ar      1 RES1    0.0000
     27 H7         1.8940   -2.0892    3.7092 H         1 RES1    0.0000
     28 C9         2.5293   -1.7798    1.8045 C.ar      1 RES1    0.0000
     29 H8         3.0877   -2.5471    1.7624 H         1 RES1    0.0000
     30 C10        2.4224   -0.9458    0.7079 C.ar      1 RES1    0.0000
     31 H9         2.9109   -1.1396   -0.0845 H         1 RES1    0.0000
     32 C11        1.6052    0.1726    0.7604 C.ar      1 RES1    0.0000
     33 H10        1.5196    0.7455    0.0070 H         1 RES1    0.0000
     34 C12        0.9184    0.4372    1.9269 C.ar      1 RES1    0.0000
     35 C13        0.5805    2.7666    1.9956 C.2       1 RES1    0.0000
     36 C14       -0.4528    3.8357    1.8795 C.ar      1 RES1    0.0000
     37 C15       -1.8139    3.5435    1.8280 C.ar      1 RES1    0.0000
     38 H11       -2.1089    2.6443    1.9130 H         1 RES1    0.0000
     39 C16       -2.7406    4.5618    1.6532 C.ar      1 RES1    0.0000
     40 H12       -3.6723    4.3776    1.6160 H         1 RES1    0.0000
     41 C17       -2.2622    5.8569    1.5343 C.ar      1 RES1    0.0000
     42 C18       -0.9206    6.1813    1.6068 C.ar      1 RES1    0.0000
     43 H13       -0.6313    7.0828    1.5358 H         1 RES1    0.0000
     44 C19       -0.0098    5.1545    1.7867 C.ar      1 RES1    0.0000
     45 H14        0.9182    5.3484    1.8468 H         1 RES1    0.0000
     46 C20        1.2336    2.6406    5.2631 C.2       1 RES1    0.0000
     47 C21        2.2697    3.7236    5.2202 C.ar      1 RES1    0.0000
     48 C22        1.8243    5.0149    4.9851 C.ar      1 RES1    0.0000
     49 H15        0.8937    5.1902    4.9155 H         1 RES1    0.0000
     50 C23        2.7348    6.0508    4.8522 C.ar      1 RES1    0.0000
     51 H16        2.4416    6.9401    4.6889 H         1 RES1    0.0000
     52 C24        4.0840    5.7578    4.9621 C.ar      1 RES1    0.0000
     53 C25        4.5546    4.4894    5.2379 C.ar      1 RES1    0.0000
     54 H17        5.4847    4.3251    5.3336 H         1 RES1    0.0000
     55 C26        3.6297    3.4599    5.3706 C.ar      1 RES1    0.0000
     56 H18        3.9244    2.5776    5.5645 H         1 RES1    0.0000
@<TRIPOS>BOND
     1    1   13 1
     2    2   16 2
     3    3   34 1
     4    4   35 2
     5    5   13 1
     6    6   46 2
     7    7   11 2
     8    8   11 2
     9    9   12 2
    10   10   12 2
    11   11   41 1
    12   12   52 1
    13   13   14 1
    14   14   15 2
    15   15   16 1
    16   16    1 1
    17   17   13 1
    18   18   17 1
    19   19   17 1
    20   20   17 1
    21   21   15 1
    22   22   21 1
    23   23   21 1
    24   24   21 1
    25   25   14 1
    26   26   25 ar
    27   27   26 1
    28   28   26 ar
    29   29   28 1
    30   30   28 ar
    31   31   30 1
    32   32   30 ar
    33   33   32 1
    34   34   25 ar
    35   35    3 1
    36   36   35 1
    37   37   36 ar
    38   38   37 1
    39   39   37 ar
    40   40   39 1
    41   41   39 ar
    42   42   41 ar
    43   43   42 1
    44   44   36 ar
    45   45   44 1
    46   46    5 1
    47   47   46 1
    48   48   47 ar
    49   49   48 1
    50   50   48 ar
    51   51   50 1
    52   52   50 ar
    53   53   52 ar
    54   54   53 1
    55   55   47 ar
    56   56   55 1
    57   32   34 ar
    58   42   44 ar
    59   53   55 ar
@<TRIPOS>SUBSTRUCTURE
     1 RES1 1

@<TRIPOS>CRYSIN
   7.3408   11.2168   14.4712 102.9260  91.5210  98.7530   2 1

