# MOL2 file generated by ConQuest
# Please check atom types

@<TRIPOS>MOLECULE
NEYKOR
    56    59     1
SMALL
NO_CHARGES
****
Generated from CSD

@<TRIPOS>ATOM
      1 O1        -3.5298   -1.2348   -3.3723 O.3       1 RES1    0.0000
      2 O2        -4.3350    0.0550   -5.0033 O.2       1 RES1    0.0000
      3 O3        -3.2171   -3.9243   -4.6929 O.3       1 RES1    0.0000
      4 H1        -3.3903   -4.1911   -5.5903 H         1 RES1    0.0000
      5 O4         2.8199   -4.4658   -7.2699 O.3       1 RES1    0.0000
      6 H2         2.7533   -4.8390   -8.0173 H         1 RES1    0.0000
      7 O5        -0.2140   -1.5016   -7.6783 O.3       1 RES1    0.0000
      8 O6        -0.7708   -1.4125   -9.8536 O.2       1 RES1    0.0000
      9 O7         4.4173    3.1091  -10.6193 O.2       1 RES1    0.0000
     10 O8         4.8732    2.9026   -8.5121 O.2       1 RES1    0.0000
     11 C1         1.0141   -0.0527   -9.0460 C.ar      1 RES1    0.0000
     12 C2         1.2854    0.4908  -10.3067 C.ar      1 RES1    0.0000
     13 H3         0.7565    0.2280  -11.0447 H         1 RES1    0.0000
     14 C3         2.3232    1.3833  -10.4611 C.ar      1 RES1    0.0000
     15 H4         2.6001    1.8155  -11.2868 H         1 RES1    0.0000
     16 C4         3.0746    1.7134   -9.3491 C.ar      1 RES1    0.0000
     17 C5         2.8048    1.2251   -8.0836 C.ar      1 RES1    0.0000
     18 H5         3.3538    1.5298   -7.3185 H         1 RES1    0.0000
     19 C6         1.7692    0.3224   -7.9417 C.ar      1 RES1    0.0000
     20 H6         1.5352   -0.0390   -7.0862 H         1 RES1    0.0000
     21 C7        -0.0816   -1.0407   -8.9277 C.2       1 RES1    0.0000
     22 C8        -0.4781   -4.5625   -4.1886 C.3       1 RES1    0.0000
     23 H7        -0.3221   -4.3455   -3.2301 H         1 RES1    0.0000
     24 H8        -1.2403   -5.1710   -4.2576 H         1 RES1    0.0000
     25 C9         0.7386   -5.2961   -4.7456 C.3       1 RES1    0.0000
     26 H9         1.5323   -4.7871   -4.5588 H         1 RES1    0.0000
     27 H10        0.8689   -6.1654   -4.2321 H         1 RES1    0.0000
     28 C10        0.5089   -5.6562   -6.2007 C.3       1 RES1    0.0000
     29 H11       -0.3672   -6.1899   -6.3186 H         1 RES1    0.0000
     30 H12        1.2324   -6.1740   -6.5213 H         1 RES1    0.0000
     31 C11        0.3128   -4.4322   -7.1181 C.3       1 RES1    0.0000
     32 C12       -0.8696   -3.6019   -6.5144 C.3       1 RES1    0.0000
     33 H13       -1.6325   -4.2214   -6.6315 H         1 RES1    0.0000
     34 C13       -1.3341   -2.4151   -7.3774 C.3       1 RES1    0.0000
     35 H14       -1.6382   -2.7147   -8.2240 H         1 RES1    0.0000
     36 C14       -2.3547   -1.5255   -6.7268 C.2       1 RES1    0.0000
     37 H15       -2.6968   -0.7909   -7.2536 H         1 RES1    0.0000
     38 C15       -2.7390   -1.7235   -5.4810 C.2       1 RES1    0.0000
     39 C16       -2.2723   -2.8493   -4.6122 C.3       1 RES1    0.0000
     40 C17       -0.8195   -3.2844   -4.9795 C.3       1 RES1    0.0000
     41 C18       -2.5100   -2.2716   -3.2095 C.3       1 RES1    0.0000
     42 H16       -2.9415   -2.9398   -2.5924 H         1 RES1    0.0000
     43 H17       -1.7377   -1.8112   -2.7853 H         1 RES1    0.0000
     44 C19       -3.6265   -0.8508   -4.6637 C.2       1 RES1    0.0000
     45 C20        1.6440   -3.6432   -7.2719 C.3       1 RES1    0.0000
     46 H18        1.6275   -3.1548   -8.1334 H         1 RES1    0.0000
     47 H19        1.7735   -3.0423   -6.5154 H         1 RES1    0.0000
     48 C21       -0.1081   -4.9331   -8.5141 C.3       1 RES1    0.0000
     49 H20       -0.1503   -4.1810   -9.2279 H         1 RES1    0.0000
     50 H21       -0.9776   -5.4322   -8.4425 H         1 RES1    0.0000
     51 H22        0.5303   -5.6011   -8.8657 H         1 RES1    0.0000
     52 C22        0.1768   -2.1671   -4.6236 C.3       1 RES1    0.0000
     53 H23        0.0809   -1.3768   -5.1848 H         1 RES1    0.0000
     54 H24        1.0721   -2.5415   -4.7497 H         1 RES1    0.0000
     55 H25        0.0444   -1.8920   -3.7006 H         1 RES1    0.0000
     56 N1         4.1990    2.6415   -9.5066 N.pl3     1 RES1    0.0000
@<TRIPOS>BOND
     1    1   41 1
     2    2   44 2
     3    3    4 1
     4    5    6 1
     5    7   21 1
     6    8   21 2
     7    9   56 2
     8   10   56 2
     9   11   12 ar
    10   12   13 1
    11   14   12 ar
    12   15   14 1
    13   16   14 ar
    14   17   16 ar
    15   18   17 1
    16   19   11 ar
    17   20   19 1
    18   21   11 1
    19   22   23 1
    20   24   22 1
    21   25   22 1
    22   26   25 1
    23   27   25 1
    24   28   25 1
    25   29   28 1
    26   30   28 1
    27   31   28 1
    28   32   31 1
    29   33   32 1
    30   34    7 1
    31   35   34 1
    32   36   34 1
    33   37   36 1
    34   38   36 2
    35   39    3 1
    36   40   22 1
    37   41   39 1
    38   42   41 1
    39   43   41 1
    40   44    1 1
    41   45    5 1
    42   46   45 1
    43   47   45 1
    44   48   31 1
    45   49   48 1
    46   50   48 1
    47   51   48 1
    48   52   40 1
    49   53   52 1
    50   54   52 1
    51   55   52 1
    52   56   16 1
    53   17   19 ar
    54   31   45 1
    55   32   34 1
    56   32   40 1
    57   38   39 1
    58   38   44 1
    59   39   40 1
@<TRIPOS>SUBSTRUCTURE
     1 RES1 1

@<TRIPOS>CRYSIN
   7.1570   14.4320   19.6840  90.0000  90.0000  90.0000  19 1

