# MOL2 file generated by ConQuest
# Please check atom types

@<TRIPOS>MOLECULE
NEYXIB
    44    47     1
SMALL
USER_CHARGES
****
Generated from CSD

@<TRIPOS>ATOM
      1 O1         5.1474    4.4412   10.0390 O.3       1 RES1    0.0000
      2 O2         3.0760    8.6571    8.2139 O.3       1 RES1    0.0000
      3 O3         2.2450    6.5157   10.0459 O.3       1 RES1    0.0000
      4 O4         4.9392    6.8052    8.3119 O.3       1 RES1    0.0000
      5 O5         7.2778    0.7270   10.4952 O.3       1 RES1    0.0000
      6 O6         3.9212    8.7932    6.1426 O.2       1 RES1    0.0000
      7 N1         7.8736    1.1919    9.3444 N.2       1 RES1    0.0000
      8 O7         6.0297    1.6320   12.1752 O.2       1 RES1   -1.0000
      9 N2         6.6348    1.8472   11.1293 N.pl3     1 RES1    1.0000
     10 C1         5.2106    6.8734    9.7077 C.3       1 RES1    0.0000
     11 H1         4.8745    7.7020   10.0833 H         1 RES1    0.0000
     12 H2         6.1647    6.8181    9.8752 H         1 RES1    0.0000
     13 C2         4.4960    5.6904   10.3022 C.3       1 RES1    0.0000
     14 H3         4.3110    5.8141   11.2565 H         1 RES1    0.0000
     15 C3         3.2285    5.6452    9.4800 C.3       1 RES1    0.0000
     16 H4         2.8928    4.7313    9.3701 H         1 RES1    0.0000
     17 C4         3.6322    6.2775    8.1398 C.3       1 RES1    0.0000
     18 H5         3.6194    5.6096    7.4229 H         1 RES1    0.0000
     19 C5         2.5476    7.3560    7.9035 C.3       1 RES1    0.0000
     20 H6         2.1834    7.3160    6.9946 H         1 RES1    0.0000
     21 C6         1.5119    7.0248    8.9381 C.3       1 RES1    0.0000
     22 H7         1.0140    7.8184    9.1916 H         1 RES1    0.0000
     23 H8         0.8908    6.3602    8.6021 H         1 RES1    0.0000
     24 C7         3.8243    9.2289    7.2481 C.2       1 RES1    0.0000
     25 C8         4.5002   10.4562    7.7639 C.3       1 RES1    0.0000
     26 H9         5.3752   10.2288    8.0863 H         1 RES1    0.0000
     27 H10        3.9821   10.8295    8.4810 H         1 RES1    0.0000
     28 H11        4.5774   11.1007    7.0563 H         1 RES1    0.0000
     29 C9         6.3474    4.2319   10.7647 C.3       1 RES1    0.0000
     30 H12        6.1720    4.2603   11.7182 H         1 RES1    0.0000
     31 H13        6.9937    4.9231   10.5501 H         1 RES1    0.0000
     32 C10        6.8708    2.9089   10.3818 C.2       1 RES1    0.0000
     33 C11        7.6377    2.4706    9.2819 C.2       1 RES1    0.0000
     34 C12        8.1298    3.2676    8.1483 C.ar      1 RES1    0.0000
     35 C13        9.3855    3.0125    7.6238 C.ar      1 RES1    0.0000
     36 H14        9.9364    2.3729    8.0145 H         1 RES1    0.0000
     37 C14        9.8136    3.7174    6.5139 C.ar      1 RES1    0.0000
     38 H15       10.6526    3.5473    6.1500 H         1 RES1    0.0000
     39 C15        8.9987    4.6693    5.9479 C.ar      1 RES1    0.0000
     40 H16        9.2921    5.1467    5.2054 H         1 RES1    0.0000
     41 C16        7.7641    4.9191    6.4672 C.ar      1 RES1    0.0000
     42 H17        7.2170    5.5595    6.0722 H         1 RES1    0.0000
     43 C17        7.3208    4.2301    7.5731 C.ar      1 RES1    0.0000
     44 H18        6.4821    4.4104    7.9315 H         1 RES1    0.0000
@<TRIPOS>BOND
     1    1   13 1
     2    2   19 1
     3    3   15 1
     4    4   10 1
     5    5    7 1
     6    6   24 2
     7    7   33 2
     8    8    9 1
     9    9    5 1
    10   10   11 1
    11   12   10 1
    12   13   10 1
    13   14   13 1
    14   15   13 1
    15   16   15 1
    16   17    4 1
    17   18   17 1
    18   19   17 1
    19   20   19 1
    20   21    3 1
    21   22   21 1
    22   23   21 1
    23   24    2 1
    24   25   24 1
    25   26   25 1
    26   27   25 1
    27   28   25 1
    28   29    1 1
    29   30   29 1
    30   31   29 1
    31   32    9 2
    32   33   32 1
    33   34   33 1
    34   35   34 ar
    35   36   35 1
    36   37   35 ar
    37   38   37 1
    38   39   37 ar
    39   40   39 1
    40   41   39 ar
    41   42   41 1
    42   43   34 ar
    43   44   43 1
    44   15   17 1
    45   19   21 1
    46   29   32 1
    47   41   43 ar
@<TRIPOS>SUBSTRUCTURE
     1 RES1 1

@<TRIPOS>CRYSIN
   8.4273    8.8552   23.0068  90.0000  90.0000  90.0000  19 1

