# MOL2 file generated by ConQuest
# Please check atom types

@<TRIPOS>MOLECULE
NEYXEX
    58    63     1
SMALL
USER_CHARGES
****
Generated from CSD

@<TRIPOS>ATOM
      1 O1         5.5165    2.0073    8.5448 O.3       1 RES1    0.0000
      2 O2         5.3197    4.2483   11.3173 O.3       1 RES1    0.0000
      3 O3         6.4401    3.8497    6.5490 O.3       1 RES1    0.0000
      4 O4         2.9719    4.3238   15.0198 O.3       1 RES1    0.0000
      5 O5         9.2132    3.7728    3.0119 O.3       1 RES1    0.0000
      6 O6         7.2088    4.9012    8.9134 O.3       1 RES1    0.0000
      7 O7         9.9932    4.3287    5.1024 O.2       1 RES1   -1.0000
      8 O8         2.0924    3.9502   12.9464 O.2       1 RES1   -1.0000
      9 N1         3.1350    3.9675   13.6387 N.pl3     1 RES1    1.0000
     10 N2         7.9693    3.6709    2.4074 N.2       1 RES1    0.0000
     11 N3         4.2449    4.2801   15.5829 N.2       1 RES1    0.0000
     12 N4         8.9930    4.1658    4.3637 N.pl3     1 RES1    1.0000
     13 C1         5.8191    5.1854    9.1631 C.3       1 RES1    0.0000
     14 H1         5.3356    5.2875    8.3287 H         1 RES1    0.0000
     15 H2         5.7245    6.0005    9.6806 H         1 RES1    0.0000
     16 C2         5.2986    4.0043    9.9363 C.3       1 RES1    0.0000
     17 H3         4.3737    3.8331    9.6615 H         1 RES1    0.0000
     18 C3         6.1650    2.8384    9.4834 C.3       1 RES1    0.0000
     19 H4         6.4714    2.3160   10.2546 H         1 RES1    0.0000
     20 C4         7.3511    3.4969    8.7704 C.3       1 RES1    0.0000
     21 H5         8.1933    3.2020    9.1766 H         1 RES1    0.0000
     22 C5         7.2544    2.9812    7.3273 C.3       1 RES1    0.0000
     23 H6         8.1318    2.8186    6.9220 H         1 RES1    0.0000
     24 C6         6.4520    1.7086    7.5219 C.3       1 RES1    0.0000
     25 H7         5.9962    1.4622    6.7023 H         1 RES1    0.0000
     26 H8         7.0302    0.9771    7.7900 H         1 RES1    0.0000
     27 C7         4.8065    3.1857   12.1112 C.3       1 RES1    0.0000
     28 H9         5.4827    2.4967   12.2080 H         1 RES1    0.0000
     29 H10        4.0367    2.7933   11.6715 H         1 RES1    0.0000
     30 C8         4.4186    3.6778   13.4303 C.2       1 RES1    0.0000
     31 C9         5.0531    3.9093   14.6323 C.2       1 RES1    0.0000
     32 C10        6.5061    3.7367   14.9216 C.ar      1 RES1    0.0000
     33 C11        7.4191    4.0202   13.9418 C.ar      1 RES1    0.0000
     34 H11        7.1360    4.2967   13.0993 H         1 RES1    0.0000
     35 C12        8.7775    3.8878   14.2225 C.ar      1 RES1    0.0000
     36 H12        9.4114    4.0691   13.5662 H         1 RES1    0.0000
     37 C13        9.1625    3.4969   15.4417 C.ar      1 RES1    0.0000
     38 H13       10.0736    3.4263   15.6156 H         1 RES1    0.0000
     39 C14        8.2966    3.2009   16.4353 C.ar      1 RES1    0.0000
     40 H14        8.6027    2.9224   17.2690 H         1 RES1    0.0000
     41 C15        6.9105    3.3250   16.1753 C.ar      1 RES1    0.0000
     42 H15        6.2852    3.1333   16.8358 H         1 RES1    0.0000
     43 C16        7.1466    4.8700    5.8188 C.3       1 RES1    0.0000
     44 H16        7.8806    5.2042    6.3578 H         1 RES1    0.0000
     45 H17        6.5474    5.6105    5.6355 H         1 RES1    0.0000
     46 C17        7.6785    4.3363    4.5359 C.2       1 RES1    0.0000
     47 C18        7.0967    4.0126    3.2995 C.2       1 RES1    0.0000
     48 C19        5.6389    4.0549    2.9430 C.ar      1 RES1    0.0000
     49 C20        4.6777    3.7235    3.8850 C.ar      1 RES1    0.0000
     50 H18        4.9259    3.5068    4.7541 H         1 RES1    0.0000
     51 C21        3.3263    3.7208    3.5095 C.ar      1 RES1    0.0000
     52 H19        2.6674    3.5239    4.1352 H         1 RES1    0.0000
     53 C22        2.9869    4.0043    2.2335 C.ar      1 RES1    0.0000
     54 H20        2.0935    3.9510    1.9815 H         1 RES1    0.0000
     55 C23        3.9271    4.3696    1.2967 C.ar      1 RES1    0.0000
     56 H21        3.6639    4.6226    0.4404 H         1 RES1    0.0000
     57 C24        5.2816    4.3557    1.6446 C.ar      1 RES1    0.0000
     58 H22        5.9328    4.5472    1.0098 H         1 RES1    0.0000
@<TRIPOS>BOND
     1    1   18 1
     2    2   16 1
     3    3   22 1
     4    4    9 1
     5    5   10 1
     6    6   13 1
     7    7   12 1
     8    8    9 1
     9    9   30 2
    10   10   47 2
    11   11    4 1
    12   12    5 1
    13   13   14 1
    14   15   13 1
    15   16   13 1
    16   17   16 1
    17   18   16 1
    18   19   18 1
    19   20    6 1
    20   21   20 1
    21   22   20 1
    22   23   22 1
    23   24    1 1
    24   25   24 1
    25   26   24 1
    26   27    2 1
    27   28   27 1
    28   29   27 1
    29   30   27 1
    30   31   11 2
    31   32   31 1
    32   33   32 ar
    33   34   33 1
    34   35   33 ar
    35   36   35 1
    36   37   35 ar
    37   38   37 1
    38   39   37 ar
    39   40   39 1
    40   41   32 ar
    41   42   41 1
    42   43    3 1
    43   44   43 1
    44   45   43 1
    45   46   12 2
    46   47   46 1
    47   48   47 1
    48   49   48 ar
    49   50   49 1
    50   51   49 ar
    51   52   51 1
    52   53   51 ar
    53   54   53 1
    54   55   53 ar
    55   56   55 1
    56   57   48 ar
    57   58   57 1
    58   18   20 1
    59   22   24 1
    60   30   31 1
    61   39   41 ar
    62   43   46 1
    63   55   57 ar
@<TRIPOS>SUBSTRUCTURE
     1 RES1 1

@<TRIPOS>CRYSIN
   9.7477    6.9314   17.3360  90.0000  96.6160  90.0000   4 1

