# MOL2 file generated by ConQuest
# Please check atom types

@<TRIPOS>MOLECULE
NEYXOG
    86    90     2
SMALL
NO_CHARGES
****
Generated from CSD

@<TRIPOS>ATOM
      1 N1         8.8830    4.6782    2.4453 N.3       1 RES1    0.0000
      2 H1         9.4368    4.7670    1.7937 H         1 RES1    0.0000
      3 N2        10.0466   10.6623    0.5101 N.pl3     1 RES1    0.0000
      4 O1        11.1911   10.6933    0.0817 O.2       1 RES1    0.0000
      5 O2         9.2719   11.5903    0.3867 O.2       1 RES1    0.0000
      6 C1         8.6818    7.1054    2.3381 C.ar      1 RES1    0.0000
      7 C2         9.5778    9.4418    1.1686 C.ar      1 RES1    0.0000
      8 C3        10.0260    7.2802    2.0139 C.ar      1 RES1    0.0000
      9 H2        10.6309    6.5983    2.1988 H         1 RES1    0.0000
     10 C4        10.4744    8.4367    1.4285 C.ar      1 RES1    0.0000
     11 H3        11.3734    8.5377    1.2110 H         1 RES1    0.0000
     12 C5         7.8070    8.1344    2.0534 C.ar      1 RES1    0.0000
     13 H4         6.9045    8.0332    2.2557 H         1 RES1    0.0000
     14 C6         8.2407    9.3086    1.4756 C.ar      1 RES1    0.0000
     15 H5         7.6428    9.9976    1.2963 H         1 RES1    0.0000
     16 C7         8.6582    3.4250    3.0062 C.ar      1 RES1    0.0000
     17 C8         8.1748    5.8364    2.9681 C.3       1 RES1    0.0000
     18 H6         7.2309    5.7419    2.7233 H         1 RES1    0.0000
     19 C9         8.1158    3.3067    4.2866 C.ar      1 RES1    0.0000
     20 C10        9.0299    2.2737    2.3192 C.ar      1 RES1    0.0000
     21 H7         9.3782    2.3427    1.4597 H         1 RES1    0.0000
     22 C11        8.8888    1.0365    2.8996 C.ar      1 RES1    0.0000
     23 H8         9.1539    0.2827    2.4234 H         1 RES1    0.0000
     24 C12        8.2575    5.8445    4.5136 C.3       1 RES1    0.0000
     25 H9         7.6689    6.5637    4.8226 H         1 RES1    0.0000
     26 C13        7.9909    2.0315    4.8354 C.ar      1 RES1    0.0000
     27 H10        7.6375    1.9519    5.6925 H         1 RES1    0.0000
     28 C14        8.3655    0.8783    4.1674 C.ar      1 RES1    0.0000
     29 C15        7.6558    4.5291    5.0313 C.3       1 RES1    0.0000
     30 H11        7.8877    4.4288    5.9682 H         1 RES1    0.0000
     31 H12        6.6890    4.5840    4.9719 H         1 RES1    0.0000
     32 C16        9.6342    6.1500    5.0502 C.2       1 RES1    0.0000
     33 C17       10.6205    5.1333    5.1268 C.3       1 RES1    0.0000
     34 H13       10.8814    4.8726    4.2399 H         1 RES1    0.0000
     35 H14       10.2622    4.3739    5.5916 H         1 RES1    0.0000
     36 H15       11.3864    5.4657    5.6001 H         1 RES1    0.0000
     37 C18        9.9132    7.4552    5.4793 C.2       1 RES1    0.0000
     38 H16       10.7533    7.6636    5.8204 H         1 RES1    0.0000
     39 H17        9.2580    8.1127    5.4239 H         1 RES1    0.0000
     40 C19        8.2388   -0.4826    4.8155 C.3       1 RES1    0.0000
     41 H18        9.1117   -0.8123    5.0401 H         1 RES1    0.0000
     42 H19        7.8152   -1.0907    4.2043 H         1 RES1    0.0000
     43 H20        7.7092   -0.4103    5.6129 H         1 RES1    0.0000
     44 N3         2.7466   -0.0702    2.9074 N.3       2 RES2    0.0000
     45 H21        2.1891    0.2719    2.3495 H         2 RES2    0.0000
     46 N4         4.0694    5.8617    0.9314 N.pl3     2 RES2    0.0000
     47 O3         3.0112    6.4243    0.6854 O.2       2 RES2    0.0000
     48 O4         5.1475    6.3653    0.6545 O.2       2 RES2    0.0000
     49 C20        4.0387    4.5428    1.5434 C.ar      2 RES2    0.0000
     50 C21        2.4800   -1.3014    3.4962 C.ar      2 RES2    0.0000
     51 C22        3.9732    2.0193    2.6384 C.ar      2 RES2    0.0000
     52 C23        5.1734    2.5727    2.1991 C.ar      2 RES2    0.0000
     53 H22        5.9591    2.0814    2.2756 H         2 RES2    0.0000
     54 C24        5.2125    3.8327    1.6547 C.ar      2 RES2    0.0000
     55 H23        6.0171    4.1997    1.3673 H         2 RES2    0.0000
     56 C25        3.9738    0.6354    3.2397 C.3       2 RES2    0.0000
     57 H24        4.7190    0.1399    2.8413 H         2 RES2    0.0000
     58 C26        2.8325    4.0159    1.9589 C.ar      2 RES2    0.0000
     59 H25        2.0455    4.5034    1.8677 H         2 RES2    0.0000
     60 C27        3.1263   -1.6810    4.6663 C.ar      2 RES2    0.0000
     61 C28        2.8145    2.7618    2.5065 C.ar      2 RES2    0.0000
     62 H26        2.0071    2.4018    2.7958 H         2 RES2    0.0000
     63 C29        1.5191   -2.1465    2.9449 C.ar      2 RES2    0.0000
     64 H27        1.0744   -1.8973    2.1661 H         2 RES2    0.0000
     65 C30        2.8019   -2.8984    5.2389 C.ar      2 RES2    0.0000
     66 H28        3.2385   -3.1511    6.0208 H         2 RES2    0.0000
     67 C31        4.1821    0.6444    4.7699 C.3       2 RES2    0.0000
     68 H29        5.0851    0.9940    4.9221 H         2 RES2    0.0000
     69 C32        1.8537   -3.7632    4.7032 C.ar      2 RES2    0.0000
     70 C33        4.1955   -0.7998    5.2667 C.3       2 RES2    0.0000
     71 H30        5.0619   -1.1877    5.0700 H         2 RES2    0.0000
     72 H31        4.0882   -0.7968    6.2312 H         2 RES2    0.0000
     73 C34        1.2226   -3.3552    3.5520 C.ar      2 RES2    0.0000
     74 H32        0.5773   -3.9065    3.1696 H         2 RES2    0.0000
     75 C35        3.2424    1.5542    5.5296 C.2       2 RES2    0.0000
     76 C36        1.8500    1.2240    5.6627 C.3       2 RES2    0.0000
     77 H33        1.4481    1.7945    6.3222 H         2 RES2    0.0000
     78 H34        1.7636    0.3080    5.9370 H         2 RES2    0.0000
     79 H35        1.4100    1.3494    4.8198 H         2 RES2    0.0000
     80 C37        1.5343   -5.0865    5.3571 C.3       2 RES2    0.0000
     81 H36        0.7611   -4.9872    5.9171 H         2 RES2    0.0000
     82 H37        2.2816   -5.3672    5.8915 H         2 RES2    0.0000
     83 H38        1.3592   -5.7437    4.6805 H         2 RES2    0.0000
     84 C38        3.7605    2.6941    6.1033 C.2       2 RES2    0.0000
     85 H39        3.2068    3.2647    6.5865 H         2 RES2    0.0000
     86 H40        4.6632    2.8942    6.0080 H         2 RES2    0.0000
@<TRIPOS>BOND
     1    1    2 1
     2    3    4 2
     3    5    3 2
     4    6    8 ar
     5    7    3 1
     6    8    9 1
     7   10    7 ar
     8   11   10 1
     9   12    6 ar
    10   13   12 1
    11   14    7 ar
    12   15   14 1
    13   16    1 1
    14   17    1 1
    15   18   17 1
    16   19   16 ar
    17   20   16 ar
    18   21   20 1
    19   22   20 ar
    20   23   22 1
    21   24   17 1
    22   25   24 1
    23   26   19 ar
    24   27   26 1
    25   28   22 ar
    26   29   19 1
    27   30   29 1
    28   31   29 1
    29   32   24 1
    30   33   32 1
    31   34   33 1
    32   35   33 1
    33   36   33 1
    34   37   32 2
    35   38   37 1
    36   39   37 1
    37   40   28 1
    38   41   40 1
    39   42   40 1
    40   43   40 1
    41   44   45 1
    42   46   47 2
    43   48   46 2
    44   49   46 1
    45   50   44 1
    46   51   52 ar
    47   52   53 1
    48   54   49 ar
    49   55   54 1
    50   56   44 1
    51   57   56 1
    52   58   49 ar
    53   59   58 1
    54   60   50 ar
    55   61   51 ar
    56   62   61 1
    57   63   50 ar
    58   64   63 1
    59   65   60 ar
    60   66   65 1
    61   67   56 1
    62   68   67 1
    63   69   65 ar
    64   70   60 1
    65   71   70 1
    66   72   70 1
    67   73   63 ar
    68   74   73 1
    69   75   67 1
    70   76   75 1
    71   77   76 1
    72   78   76 1
    73   79   76 1
    74   80   69 1
    75   81   80 1
    76   82   80 1
    77   83   80 1
    78   84   75 2
    79   85   84 1
    80   86   84 1
    81    6   17 1
    82    8   10 ar
    83   12   14 ar
    84   24   29 1
    85   26   28 ar
    86   51   56 1
    87   52   54 ar
    88   58   61 ar
    89   67   70 1
    90   69   73 ar
@<TRIPOS>SUBSTRUCTURE
     1 RES1 1
     2 RES2 44

@<TRIPOS>CRYSIN
   9.9116   12.0140   14.6057  85.8770  76.7350  76.3660   2 1

