# MOL2 file generated by ConQuest
# Please check atom types

@<TRIPOS>MOLECULE
NEZBID
    26    28     1
SMALL
NO_CHARGES
****
Generated from CSD

@<TRIPOS>ATOM
      1 C1         1.2861   -2.4540    2.9237 C.2       1 RES1    0.0000
      2 C2         1.3883   -3.8863    3.1466 C.ar      1 RES1    0.0000
      3 C3         2.4998   -4.4353    3.7801 C.ar      1 RES1    0.0000
      4 C4         2.5848   -5.7955    3.9944 C.ar      1 RES1    0.0000
      5 C5         1.5766   -6.6352    3.5868 C.ar      1 RES1    0.0000
      6 C6         0.4869   -6.1101    2.9533 C.ar      1 RES1    0.0000
      7 C7         0.3824   -4.7476    2.7359 C.ar      1 RES1    0.0000
      8 C8         1.6616   -0.2110    3.0188 C.ar      1 RES1    0.0000
      9 C9         2.1588    1.0432    3.2962 C.ar      1 RES1    0.0000
     10 C10        1.4710    2.0982    2.7094 C.ar      1 RES1    0.0000
     11 C11        0.3652    1.8971    1.9006 C.ar      1 RES1    0.0000
     12 C12       -0.1229    0.6290    1.6302 C.ar      1 RES1    0.0000
     13 C13        0.5673   -0.4107    2.2138 C.ar      1 RES1    0.0000
     14 O1         3.0912   -1.6535    4.2274 O.2       1 RES1    0.0000
     15 O2        -0.5948   -2.3284    1.4774 O.2       1 RES1    0.0000
     16 N1         2.0945   -1.4867    3.4442 N.pl3     1 RES1    0.0000
     17 N2         0.3479   -1.8056    2.1585 N.pl3     1 RES1    0.0000
     18 H1         3.1808   -3.8321    4.0287 H         1 RES1    0.0000
     19 H2         3.3645   -6.1503    4.4261 H         1 RES1    0.0000
     20 H3         1.6536   -7.5696    3.7481 H         1 RES1    0.0000
     21 H4        -0.2526   -6.6707    2.6650 H         1 RES1    0.0000
     22 H5        -0.3789   -4.3762    2.3455 H         1 RES1    0.0000
     23 H6         2.9396    1.1828    3.8339 H         1 RES1    0.0000
     24 H7         1.8258    2.9805    2.8131 H         1 RES1    0.0000
     25 H8        -0.1148    2.6494    1.4961 H         1 RES1    0.0000
     26 H9        -0.8842    0.4731    1.0831 H         1 RES1    0.0000
@<TRIPOS>BOND
     1    1    2 1
     2    2    3 ar
     3    3    4 ar
     4    4    5 ar
     5    5    6 ar
     6    6    7 ar
     7    7    2 ar
     8    8    9 ar
     9    9   10 ar
    10   10   11 ar
    11   11   12 ar
    12   12   13 ar
    13   13    8 ar
    14   14   16 1
    15   15   17 1
    16   16    1 2
    17   17    1 1
    18   18    3 1
    19   19    4 1
    20   20    5 1
    21   21    6 1
    22   22    7 1
    23   23    9 1
    24   24   10 1
    25   25   11 1
    26   26   12 1
    27    8   16 1
    28   13   17 1
@<TRIPOS>SUBSTRUCTURE
     1 RES1 1

@<TRIPOS>CRYSIN
  11.4830   23.6550    7.7924  90.0000  90.0000  90.0000  61 3

