# MOL2 file generated by ConQuest
# Please check atom types

@<TRIPOS>MOLECULE
NEZNAH
    12    12     1
SMALL
NO_CHARGES
****
Generated from CSD

@<TRIPOS>ATOM
      1 O1         1.8394   -2.3714   -0.2700 O.3       1 RES1    0.0000
      2 N1         1.0090   -1.2524   -0.0122 N.2       1 RES1    0.0000
      3 C1         1.3133   -0.8715    1.2060 C.2       1 RES1    0.0000
      4 O2         0.7272    0.1632    1.8024 O.3       1 RES1    0.0000
      5 C2         2.3176   -1.6883    1.7833 C.2       1 RES1    0.0000
      6 C3         2.6003   -2.5953    0.8344 C.2       1 RES1    0.0000
      7 C4         3.5192   -3.7557    0.7713 C.3       1 RES1    0.0000
      8 H1         0.1519    0.5776    1.2128 H         1 RES1    0.0000
      9 H2         2.6928   -1.6012    2.6584 H         1 RES1    0.0000
     10 H3         3.0143   -4.5806    0.9217 H         1 RES1    0.0000
     11 H4         3.9210   -3.8205   -0.0776 H         1 RES1    0.0000
     12 H5         4.1956   -3.6888    1.4747 H         1 RES1    0.0000
@<TRIPOS>BOND
     1    1    2 1
     2    2    3 2
     3    3    4 1
     4    4    8 1
     5    5    3 1
     6    6    1 1
     7    7    6 1
     8    9    5 1
     9   10    7 1
    10   11    7 1
    11   12    7 1
    12    5    6 2
@<TRIPOS>SUBSTRUCTURE
     1 RES1 1

@<TRIPOS>CRYSIN
   4.6400   10.1340    9.7210  90.0000  93.5600  90.0000 231 1

