# MOL2 file generated by ConQuest
# Please check atom types

@<TRIPOS>MOLECULE
NFMLEA
    27    28     1
SMALL
NO_CHARGES
****
Generated from CSD

@<TRIPOS>ATOM
      1 O1         5.6150    0.8615    5.2329 O.3       1 RES1    0.0000
      2 O2         3.4992    3.6222    4.9902 O.2       1 RES1    0.0000
      3 O3         4.8163    2.9400    6.6384 O.2       1 RES1    0.0000
      4 O4         8.6932   -4.9587    7.2917 O.3       1 RES1    0.0000
      5 N1         4.3410    2.8249    5.4888 N.pl3     1 RES1    0.0000
      6 N2         7.8902   -2.4760    6.2133 N.3       1 RES1    0.0000
      7 C1         6.6689   -1.1971    4.5562 C.2       1 RES1    0.0000
      8 C2         7.1793   -1.4019    5.8060 C.2       1 RES1    0.0000
      9 C3         5.8231   -0.1052    4.2635 C.2       1 RES1    0.0000
     10 C4         5.0788    0.2337    3.1373 C.2       1 RES1    0.0000
     11 C5         4.3997    1.4196    3.4099 C.2       1 RES1    0.0000
     12 C6         4.7266    1.7585    4.6831 C.2       1 RES1    0.0000
     13 C7         8.2971   -3.5624    5.3174 C.3       1 RES1    0.0000
     14 C8         8.0525   -4.9034    6.0308 C.3       1 RES1    0.0000
     15 C9         8.1503   -3.9510    8.1553 C.3       1 RES1    0.0000
     16 C10        8.4288   -2.5502    7.5878 C.3       1 RES1    0.0000
     17 H1         6.7382   -1.9379    3.5279 H         1 RES1    0.0000
     18 H2         6.9717   -0.8194    6.7998 H         1 RES1    0.0000
     19 H3         5.0891   -0.0775    2.5263 H         1 RES1    0.0000
     20 H4         3.7466    1.6943    2.9714 H         1 RES1    0.0000
     21 H5         7.5125   -3.7207    4.3626 H         1 RES1    0.0000
     22 H6         7.2046   -5.0274    6.2322 H         1 RES1    0.0000
     23 H7         8.1110   -5.6807    5.2974 H         1 RES1    0.0000
     24 H8         8.5705   -3.9090    9.0145 H         1 RES1    0.0000
     25 H9         7.1784   -4.2301    8.2355 H         1 RES1    0.0000
     26 H10        7.9534   -1.9046    8.2466 H         1 RES1    0.0000
     27 H11        9.5175   -2.3587    7.6790 H         1 RES1    0.0000
@<TRIPOS>BOND
     1    1    9 1
     2    2    5 2
     3    3    5 2
     4    4   14 1
     5    5   12 1
     6    6    8 1
     7    7    8 2
     8    8   18 1
     9    9    7 1
    10   10    9 2
    11   11   10 1
    12   12    1 1
    13   13    6 1
    14   14   13 1
    15   15    4 1
    16   16    6 1
    17   17    7 1
    18   19   10 1
    19   20   11 1
    20   21   13 1
    21   22   14 1
    22   23   14 1
    23   24   15 1
    24   25   15 1
    25   26   16 1
    26   27   16 1
    27   11   12 2
    28   15   16 1
@<TRIPOS>SUBSTRUCTURE
     1 RES1 1

