# MOL2 file generated by ConQuest
# Please check atom types

@<TRIPOS>MOLECULE
NHANTQ
    30    32     1
SMALL
NO_CHARGES
****
Generated from CSD

@<TRIPOS>ATOM
      1 C1         1.7311    1.3606   -1.7448 C.ar      1 RES1    0.0000
      2 C2         1.8023    2.7400   -1.7832 C.ar      1 RES1    0.0000
      3 C3         1.0137    3.4827   -0.9767 C.ar      1 RES1    0.0000
      4 C4         0.1390    2.8428   -0.0977 C.ar      1 RES1    0.0000
      5 C5         0.0675    1.4602   -0.0552 C.ar      1 RES1    0.0000
      6 C6         0.8940    0.6808   -0.9036 C.ar      1 RES1    0.0000
      7 C7        -0.8352    0.7878    0.8688 C.2       1 RES1    0.0000
      8 H1        -1.2907    3.1260    1.3635 H         1 RES1    0.0000
      9 H2         2.4900    3.2257   -2.4601 H         1 RES1    0.0000
     10 H3         1.0582    4.5621   -1.0115 H         1 RES1    0.0000
     11 N1         2.6385    0.6766   -2.6892 N.pl3     1 RES1    0.0000
     12 O1        -0.6139    3.6222    0.6829 O.3       1 RES1    0.0000
     13 O2        -1.5325    1.4392    1.6267 O.2       1 RES1    0.0000
     14 O3         2.2424    0.4553   -3.7780 O.2       1 RES1    0.0000
     15 O4         3.7122    0.3713   -2.2922 O.2       1 RES1    0.0000
     16 C7B        0.8352   -0.7878   -0.8688 C.2       1 RES1    0.0000
     17 C6B       -0.8940   -0.6808    0.9036 C.ar      1 RES1    0.0000
     18 C5B       -0.0675   -1.4602    0.0552 C.ar      1 RES1    0.0000
     19 O2B        1.5325   -1.4392   -1.6267 O.2       1 RES1    0.0000
     20 C1B       -1.7311   -1.3606    1.7448 C.ar      1 RES1    0.0000
     21 C4B       -0.1390   -2.8428    0.0977 C.ar      1 RES1    0.0000
     22 C2B       -1.8023   -2.7400    1.7832 C.ar      1 RES1    0.0000
     23 N1B       -2.6385   -0.6766    2.6892 N.pl3     1 RES1    0.0000
     24 C3B       -1.0137   -3.4827    0.9767 C.ar      1 RES1    0.0000
     25 O1B        0.6139   -3.6222   -0.6829 O.3       1 RES1    0.0000
     26 H2B       -2.4900   -3.2257    2.4601 H         1 RES1    0.0000
     27 O3B       -2.2424   -0.4553    3.7780 O.2       1 RES1    0.0000
     28 O4B       -3.7122   -0.3713    2.2922 O.2       1 RES1    0.0000
     29 H3B       -1.0582   -4.5621    1.0115 H         1 RES1    0.0000
     30 H1B        1.2907   -3.1260   -1.3635 H         1 RES1    0.0000
@<TRIPOS>BOND
     1    1    2 ar
     2    2    3 ar
     3    3    4 ar
     4    4    5 ar
     5    5    6 ar
     6    6    1 ar
     7    7    5 1
     8    8   12 1
     9    9    2 1
    10   10    3 1
    11   11    1 1
    12   12    4 1
    13   13    7 2
    14   14   11 2
    15   15   11 2
    16   16    6 1
    17   17    7 1
    18   18   16 1
    19   19   16 2
    20   20   17 ar
    21   21   18 ar
    22   22   20 ar
    23   23   20 1
    24   24   21 ar
    25   25   21 1
    26   26   22 1
    27   27   23 2
    28   28   23 2
    29   29   24 1
    30   30   25 1
    31   17   18 ar
    32   22   24 ar
@<TRIPOS>SUBSTRUCTURE
     1 RES1 1

@<TRIPOS>CRYSIN
  10.1700   10.4900    6.0150  90.0000  94.5700  90.0000  14 2

