# MOL2 file generated by ConQuest
# Please check atom types

@<TRIPOS>MOLECULE
NHPBZO
    21    23     1
SMALL
NO_CHARGES
****
Generated from CSD

@<TRIPOS>ATOM
      1 C1         1.8812    3.5380    0.8912 C.ar      1 RES1    0.0000
      2 C2         2.7898    3.3095   -0.1162 C.ar      1 RES1    0.0000
      3 C3         3.9792    3.9869   -0.0755 C.ar      1 RES1    0.0000
      4 C4         4.2558    4.8846    0.9586 C.ar      1 RES1    0.0000
      5 C5         3.3119    5.1420    1.9591 C.ar      1 RES1    0.0000
      6 C6         2.0999    4.4390    1.8975 C.ar      1 RES1    0.0000
      7 C7         3.5203    6.1602    3.0130 C.2       1 RES1    0.0000
      8 C8         5.7752    5.5438    3.2779 C.3       1 RES1    0.0000
      9 C9         6.2798    5.9209    1.9184 C.2       1 RES1    0.0000
     10 C10        2.3746    7.0233    3.3999 C.ar      1 RES1    0.0000
     11 C11        1.4271    7.4399    2.4680 C.ar      1 RES1    0.0000
     12 C12        0.4005    8.2881    2.8445 C.ar      1 RES1    0.0000
     13 C13        0.2929    8.7213    4.1436 C.ar      1 RES1    0.0000
     14 C14        1.2120    8.2956    5.0767 C.ar      1 RES1    0.0000
     15 C15        2.2426    7.4705    4.7141 C.ar      1 RES1    0.0000
     16 N1         0.5890    2.8276    0.8564 N.pl3     1 RES1    0.0000
     17 N2         5.4818    5.5719    0.8726 N.am      1 RES1    0.0000
     18 N3         4.6325    6.3871    3.6207 N.2       1 RES1    0.0000
     19 O1         0.4395    1.9555    0.0198 O.2       1 RES1    0.0000
     20 O2        -0.2642    3.1370    1.6674 O.2       1 RES1    0.0000
     21 O3         7.3256    6.5340    1.7337 O.2       1 RES1    0.0000
@<TRIPOS>BOND
     1    1    2 ar
     2    2    3 ar
     3    3    4 ar
     4    4    5 ar
     5    5    6 ar
     6    6    1 ar
     7    7    5 1
     8    8    9 1
     9    9   17 1
    10   10    7 1
    11   11   10 ar
    12   12   11 ar
    13   13   12 ar
    14   14   13 ar
    15   15   10 ar
    16   16    1 1
    17   17    4 1
    18   18    7 2
    19   19   16 2
    20   20   16 2
    21   21    9 2
    22    8   18 1
    23   14   15 ar
@<TRIPOS>SUBSTRUCTURE
     1 RES1 1

@<TRIPOS>CRYSIN
  27.7520    8.2510   13.0330  90.0000 116.9300  90.0000  15 1

