# MOL2 file generated by ConQuest
# Please check atom types

@<TRIPOS>MOLECULE
NIAMBP
    26    27     1
SMALL
NO_CHARGES
****
Generated from CSD

@<TRIPOS>ATOM
      1 C1         0.1570   -6.5581    4.2172 C.ar      1 RES1    0.0000
      2 C2         0.2070   -7.6558    3.2353 C.ar      1 RES1    0.0000
      3 C3        -0.9617   -6.3117    4.9931 C.ar      1 RES1    0.0000
      4 C4        -0.7025   -7.8280    2.1846 C.ar      1 RES1    0.0000
      5 C5        -0.9783   -5.3198    5.9491 C.ar      1 RES1    0.0000
      6 C6        -0.7105   -8.9321    1.3569 C.ar      1 RES1    0.0000
      7 C7         0.1231   -4.4937    6.1451 C.ar      1 RES1    0.0000
      8 C8         0.2476   -9.8908    1.5202 C.ar      1 RES1    0.0000
      9 C9         1.2575   -4.7401    5.3669 C.ar      1 RES1    0.0000
     10 C10        1.1953   -9.7518    2.5123 C.ar      1 RES1    0.0000
     11 C11        1.2660   -5.7589    4.4447 C.ar      1 RES1    0.0000
     12 C12        1.1402   -8.6588    3.3512 C.ar      1 RES1    0.0000
     13 H1         0.8849   -2.9221    7.2070 H         1 RES1    0.0000
     14 H2        -0.6682   -3.3327    7.6124 H         1 RES1    0.0000
     15 H3        -1.7536   -6.9024    4.9435 H         1 RES1    0.0000
     16 H4        -1.7222   -5.1492    6.5088 H         1 RES1    0.0000
     17 H5        -1.3067   -8.9242    0.6644 H         1 RES1    0.0000
     18 H6         1.9856   -4.2173    5.5066 H         1 RES1    0.0000
     19 H7         1.9120  -10.4405    2.6238 H         1 RES1    0.0000
     20 H8         1.9730   -5.9073    3.9638 H         1 RES1    0.0000
     21 H9         1.8380   -8.5293    3.9976 H         1 RES1    0.0000
     22 N1        -1.6891   -6.7808    1.8873 N.pl3     1 RES1    0.0000
     23 N2         0.1124   -3.4875    7.0763 N.pl3     1 RES1    0.0000
     24 O1        -1.4115   -5.6104    2.0382 O.2       1 RES1    0.0000
     25 O2        -2.7750   -7.1283    1.4436 O.2       1 RES1    0.0000
     26 H10        0.2616  -10.6599    0.9458 H         1 RES1    0.0000
@<TRIPOS>BOND
     1    1    2 1
     2    2    4 ar
     3    3    1 ar
     4    4    6 ar
     5    5    3 ar
     6    6    8 ar
     7    7    5 ar
     8    8   10 ar
     9    9    7 ar
    10   10   12 ar
    11   11    1 ar
    12   12    2 ar
    13   13   23 1
    14   14   23 1
    15   15    3 1
    16   16    5 1
    17   17    6 1
    18   18    9 1
    19   19   10 1
    20   20   11 1
    21   21   12 1
    22   22    4 1
    23   23    7 1
    24   24   22 2
    25   25   22 2
    26   26    8 1
    27    9   11 ar
@<TRIPOS>SUBSTRUCTURE
     1 RES1 1

@<TRIPOS>CRYSIN
   6.0430   15.7950   11.5770  90.0000 103.4200  90.0000  14 1

