# MOL2 file generated by ConQuest
# Please check atom types

@<TRIPOS>MOLECULE
NIBFOU
    49    46     2
SMALL
NO_CHARGES
****
Generated from CSD

@<TRIPOS>ATOM
      1 O1         6.2888    1.7803    2.5730 O.2       1 RES1    0.0000
      2 O2         6.8568    1.5961    0.5584 O.2       1 RES1    0.0000
      3 O3        -0.9799    3.6429    2.8200 O.2       1 RES1    0.0000
      4 O4         1.5514    1.6994    3.7804 O.3       1 RES1    0.0000
      5 O5        -0.8518   -0.2902    2.7739 O.2       1 RES1    0.0000
      6 O6        -2.4741    1.7119    8.5606 O.2       1 RES1    0.0000
      7 O7        -1.1778    1.6994   10.2556 O.2       1 RES1    0.0000
      8 N1         6.0120    1.7105    1.4067 N.pl3     1 RES1    0.0000
      9 N2        -1.3698    1.6910    9.0564 N.pl3     1 RES1    0.0000
     10 C1         3.6574    1.8584    1.9701 C.ar      1 RES1    0.0000
     11 H1         3.8877    1.8863    2.8711 H         1 RES1    0.0000
     12 C2         4.6166    1.7412    0.9949 C.ar      1 RES1    0.0000
     13 C3         4.3114    1.7007   -0.3410 C.ar      1 RES1    0.0000
     14 H2         4.9847    1.6491   -0.9784 H         1 RES1    0.0000
     15 C4         3.0038    1.7356   -0.7165 C.ar      1 RES1    0.0000
     16 H3         2.7816    1.6784   -1.6176 H         1 RES1    0.0000
     17 C5         2.0077    1.8570    0.2273 C.ar      1 RES1    0.0000
     18 H4         1.1185    1.8877   -0.0395 H         1 RES1    0.0000
     19 C6         2.3267    1.9324    1.5649 C.ar      1 RES1    0.0000
     20 O8         1.1892    3.6638    2.7377 O.3       1 RES1    0.0000
     21 C7         1.2141    2.2588    2.5746 C.3       1 RES1    0.0000
     22 H5         0.3160    1.6882    2.3061 H         1 RES1    0.0000
     23 O9         1.1836   -0.1660    3.0968 Du        2 SUP2    0.0000
     24 C8         1.2961    1.4371    2.5993 Du        2 SUP2    0.0000
     25 C9        -0.0169    4.2777    2.9502 C.2       1 RES1    0.0000
     26 C10        0.0610    5.7301    3.1347 C.3       1 RES1    0.0000
     27 H6         0.3915    6.1375    2.3308 H         1 RES1    0.0000
     28 H7         0.6555    5.9296    3.8611 H         1 RES1    0.0000
     29 H8        -0.8132    6.0747    3.3307 H         1 RES1    0.0000
     30 O10        0.5553   -0.3042    4.4837 O.3       1 RES1    0.0000
     31 C11        0.5183    1.1134    4.5315 C.3       1 RES1    0.0000
     32 H9        -0.3801    1.5487    4.2465 H         1 RES1    0.0000
     33 O11        0.3090    3.8759    4.4310 Du        2 SUP2    0.0000
     34 C12        0.4270    2.2463    4.6402 Du        2 SUP2    0.0000
     35 C13       -0.1344   -0.8832    3.4789 C.2       1 RES1    0.0000
     36 C14        0.0115   -2.3370    3.5975 C.3       1 RES1    0.0000
     37 H10       -0.6685   -2.6802    4.1806 H         1 RES1    0.0000
     38 H11        0.8777   -2.5421    3.9583 H         1 RES1    0.0000
     39 H12       -0.0770   -2.7388    2.7311 H         1 RES1    0.0000
     40 C15        0.7117    1.5431    5.9959 C.ar      1 RES1    0.0000
     41 C16        1.9644    1.7259    6.5329 C.ar      1 RES1    0.0000
     42 H13        2.7062    1.7398    5.9728 H         1 RES1    0.0000
     43 C17        2.1281    1.8863    7.8885 C.ar      1 RES1    0.0000
     44 H14        2.9795    2.0161    8.2394 H         1 RES1    0.0000
     45 C18        1.0340    1.8570    8.7319 C.ar      1 RES1    0.0000
     46 H15        1.1349    1.9198    9.6544 H         1 RES1    0.0000
     47 C19       -0.2008    1.7342    8.1636 C.ar      1 RES1    0.0000
     48 C20       -0.3957    1.5501    6.8228 C.ar      1 RES1    0.0000
     49 H16       -1.2510    1.4329    6.4769 H         1 RES1    0.0000
@<TRIPOS>BOND
     1    1    8 2
     2    2    8 2
     3    3   25 2
     4    4   21 1
     5    5   35 2
     6    6    9 2
     7    7    9 2
     8    8   12 1
     9    9   47 1
    10   10   11 1
    11   12   10 ar
    12   13   12 ar
    13   14   13 1
    14   15   13 ar
    15   16   15 1
    16   17   15 ar
    17   18   17 1
    18   19   10 ar
    19   20   21 1
    20   21   19 1
    21   22   21 1
    22   25   20 1
    23   26   25 1
    24   27   26 1
    25   28   26 1
    26   29   26 1
    27   30   31 1
    28   31    4 1
    29   32   31 1
    30   35   30 1
    31   36   35 1
    32   37   36 1
    33   38   36 1
    34   39   36 1
    35   40   31 1
    36   41   40 ar
    37   42   41 1
    38   43   41 ar
    39   44   43 1
    40   45   43 ar
    41   46   45 1
    42   47   45 ar
    43   48   40 ar
    44   49   48 1
    45   17   19 ar
    46   47   48 ar
@<TRIPOS>SUBSTRUCTURE
     1 RES1 1
     2 SUP2 23

@<TRIPOS>CRYSIN
  16.1280   13.9520   18.1960  90.0000 115.1410  90.0000  15 1

