# MOL2 file generated by ConQuest
# Please check atom types

@<TRIPOS>MOLECULE
NIBHIR
   101   109     1
SMALL
NO_CHARGES
****
Generated from CSD

@<TRIPOS>ATOM
      1 C1         2.5592    2.5592    0.0000 C.3       1 RES1    0.0000
      2 C2         1.8320    1.9074    1.1766 C.ar      1 RES1    0.0000
      3 C3         1.9671    2.2142    2.5747 C.ar      1 RES1    0.0000
      4 C4         2.7049    3.3214    3.0617 C.ar      1 RES1    0.0000
      5 H1         3.2039    3.8405    2.4578 H         1 RES1    0.0000
      6 C5         2.7093    3.6547    4.3942 C.ar      1 RES1    0.0000
      7 H2         3.2200    4.3870    4.6878 H         1 RES1    0.0000
      8 C6         1.9583    2.9125    5.3218 C.ar      1 RES1    0.0000
      9 C7         1.2626    1.8007    4.8683 C.ar      1 RES1    0.0000
     10 H3         0.7674    1.2929    5.4862 H         1 RES1    0.0000
     11 C8         1.2729    1.4080    3.5177 C.ar      1 RES1    0.0000
     12 C9         0.6301    0.1768    3.0660 C.ar      1 RES1    0.0000
     13 C10        0.2370   -0.8339    3.9710 C.ar      1 RES1    0.0000
     14 H4         0.3294   -0.6822    4.8931 H         1 RES1    0.0000
     15 C11       -0.2761   -2.0319    3.5398 C.ar      1 RES1    0.0000
     16 H5        -0.5416   -2.6821    4.1647 H         1 RES1    0.0000
     17 C12       -0.4029   -2.2849    2.1747 C.ar      1 RES1    0.0000
     18 H6        -0.7452   -3.1089    1.8796 H         1 RES1    0.0000
     19 C13       -0.0269   -1.3282    1.2607 C.ar      1 RES1    0.0000
     20 H7        -0.1024   -1.5150    0.3429 H         1 RES1    0.0000
     21 C14        0.4708   -0.0693    1.6699 C.ar      1 RES1    0.0000
     22 C15        0.9844    0.9155    0.7408 C.ar      1 RES1    0.0000
     23 C16        1.9526    3.2779    6.7669 C.ar      1 RES1    0.0000
     24 C17        3.1171    3.7460    7.3759 C.ar      1 RES1    0.0000
     25 H8         3.8923    3.8714    6.8578 H         1 RES1    0.0000
     26 C18        3.1478    4.0303    8.7387 C.ar      1 RES1    0.0000
     27 H9         3.9306    4.3550    9.1454 H         1 RES1    0.0000
     28 C19        2.0024    3.8240    9.4750 C.ar      1 RES1    0.0000
     29 C20        0.8278    3.3951    8.9071 C.ar      1 RES1    0.0000
     30 H10        0.0568    3.2804    9.4332 H         1 RES1    0.0000
     31 C21        0.7992    3.1317    7.5381 C.ar      1 RES1    0.0000
     32 H11       -0.0025    2.8535    7.1331 H         1 RES1    0.0000
     33 C22        2.2883    4.0831   -0.1359 C.3       1 RES1    0.0000
     34 H12        2.8276    4.5561    0.5331 H         1 RES1    0.0000
     35 H13        2.5908    4.3759   -1.0212 H         1 RES1    0.0000
     36 C23        0.8330    4.4907    0.0385 C.3       1 RES1    0.0000
     37 H14        0.2850    3.9861   -0.5982 H         1 RES1    0.0000
     38 H15        0.5416    4.2464    0.9411 H         1 RES1    0.0000
     39 C24        0.5861    5.9780   -0.1724 C.3       1 RES1    0.0000
     40 H16        0.8661    6.2154   -1.0812 H         1 RES1    0.0000
     41 H17       -0.3775    6.1463   -0.1076 H         1 RES1    0.0000
     42 C25        1.3038    6.8907    0.8079 C.3       1 RES1    0.0000
     43 H18        2.2700    6.7508    0.7183 H         1 RES1    0.0000
     44 H19        1.1140    7.8217    0.5681 H         1 RES1    0.0000
     45 C26        0.9117    6.6717    2.2548 C.3       1 RES1    0.0000
     46 H20       -0.0518    6.7459    2.3427 H         1 RES1    0.0000
     47 H21        1.3398    7.3405    2.8107 H         1 RES1    0.0000
     48 H22        1.1955    5.7873    2.5354 H         1 RES1    0.0000
     49 N1         2.0491    4.0300   10.9347 N.pl3     1 RES1    0.0000
     50 O1         3.0766    4.5277   11.4029 O.2       1 RES1    0.0000
     51 O2         1.0781    3.6804   11.5982 O.2       1 RES1    0.0000
     52 C2E        1.9074    1.8320   -1.1766 C.ar      1 RES1    0.0000
     53 C3E        2.2142    1.9671   -2.5747 C.ar      1 RES1    0.0000
     54 C4E        3.3214    2.7049   -3.0617 C.ar      1 RES1    0.0000
     55 H1E        3.8405    3.2039   -2.4578 H         1 RES1    0.0000
     56 C5E        3.6547    2.7093   -4.3942 C.ar      1 RES1    0.0000
     57 H2E        4.3870    3.2200   -4.6878 H         1 RES1    0.0000
     58 C6E        2.9125    1.9583   -5.3218 C.ar      1 RES1    0.0000
     59 C7E        1.8007    1.2626   -4.8683 C.ar      1 RES1    0.0000
     60 H3E        1.2929    0.7674   -5.4862 H         1 RES1    0.0000
     61 C8E        1.4080    1.2729   -3.5177 C.ar      1 RES1    0.0000
     62 C9E        0.1768    0.6301   -3.0660 C.ar      1 RES1    0.0000
     63 C10E      -0.8339    0.2370   -3.9710 C.ar      1 RES1    0.0000
     64 H4E       -0.6822    0.3294   -4.8931 H         1 RES1    0.0000
     65 C11E      -2.0319   -0.2761   -3.5398 C.ar      1 RES1    0.0000
     66 H5E       -2.6821   -0.5416   -4.1647 H         1 RES1    0.0000
     67 C12E      -2.2849   -0.4029   -2.1747 C.ar      1 RES1    0.0000
     68 H6E       -3.1089   -0.7452   -1.8796 H         1 RES1    0.0000
     69 C13E      -1.3282   -0.0269   -1.2607 C.ar      1 RES1    0.0000
     70 H7E       -1.5150   -0.1024   -0.3429 H         1 RES1    0.0000
     71 C14E      -0.0693    0.4708   -1.6699 C.ar      1 RES1    0.0000
     72 C15E       0.9155    0.9844   -0.7408 C.ar      1 RES1    0.0000
     73 C16E       3.2779    1.9526   -6.7669 C.ar      1 RES1    0.0000
     74 C17E       3.7460    3.1171   -7.3759 C.ar      1 RES1    0.0000
     75 H8E        3.8714    3.8923   -6.8578 H         1 RES1    0.0000
     76 C18E       4.0303    3.1478   -8.7387 C.ar      1 RES1    0.0000
     77 H9E        4.3550    3.9306   -9.1454 H         1 RES1    0.0000
     78 C19E       3.8240    2.0024   -9.4750 C.ar      1 RES1    0.0000
     79 C20E       3.3951    0.8278   -8.9071 C.ar      1 RES1    0.0000
     80 H10E       3.2804    0.0568   -9.4332 H         1 RES1    0.0000
     81 C21E       3.1317    0.7992   -7.5381 C.ar      1 RES1    0.0000
     82 H11E       2.8535   -0.0025   -7.1331 H         1 RES1    0.0000
     83 C22E       4.0831    2.2883    0.1359 C.3       1 RES1    0.0000
     84 H12E       4.5561    2.8276   -0.5331 H         1 RES1    0.0000
     85 H13E       4.3759    2.5908    1.0212 H         1 RES1    0.0000
     86 C23E       4.4907    0.8330   -0.0385 C.3       1 RES1    0.0000
     87 H14E       3.9861    0.2850    0.5982 H         1 RES1    0.0000
     88 H15E       4.2464    0.5416   -0.9411 H         1 RES1    0.0000
     89 C24E       5.9780    0.5861    0.1724 C.3       1 RES1    0.0000
     90 H16E       6.2154    0.8661    1.0812 H         1 RES1    0.0000
     91 H17E       6.1463   -0.3775    0.1076 H         1 RES1    0.0000
     92 C25E       6.8907    1.3038   -0.8079 C.3       1 RES1    0.0000
     93 H18E       6.7508    2.2700   -0.7183 H         1 RES1    0.0000
     94 H19E       7.8217    1.1140   -0.5681 H         1 RES1    0.0000
     95 C26E       6.6717    0.9117   -2.2548 C.3       1 RES1    0.0000
     96 H20E       6.7459   -0.0518   -2.3427 H         1 RES1    0.0000
     97 H21E       7.3405    1.3398   -2.8107 H         1 RES1    0.0000
     98 H22E       5.7873    1.1955   -2.5354 H         1 RES1    0.0000
     99 N1E        4.0300    2.0491  -10.9347 N.pl3     1 RES1    0.0000
    100 O1E        4.5277    3.0766  -11.4029 O.2       1 RES1    0.0000
    101 O2E        3.6804    1.0781  -11.5982 O.2       1 RES1    0.0000
@<TRIPOS>BOND
     1    1    2 1
     2    2    3 ar
     3    3    4 ar
     4    4    5 1
     5    6    4 ar
     6    7    6 1
     7    8    6 ar
     8    9    8 ar
     9   10    9 1
    10   11    3 ar
    11   12   11 ar
    12   13   12 ar
    13   14   13 1
    14   15   13 ar
    15   16   15 1
    16   17   15 ar
    17   18   17 1
    18   19   17 ar
    19   20   19 1
    20   21   12 ar
    21   22    2 ar
    22   23    8 1
    23   24   23 ar
    24   25   24 1
    25   26   24 ar
    26   27   26 1
    27   28   26 ar
    28   29   28 ar
    29   30   29 1
    30   31   23 ar
    31   32   31 1
    32   33    1 1
    33   34   33 1
    34   35   33 1
    35   36   33 1
    36   37   36 1
    37   38   36 1
    38   39   36 1
    39   40   39 1
    40   41   39 1
    41   42   39 1
    42   43   42 1
    43   44   42 1
    44   45   42 1
    45   46   45 1
    46   47   45 1
    47   48   45 1
    48   49   28 1
    49   50   49 2
    50   51   49 2
    51   52    1 1
    52   53   52 ar
    53   54   53 ar
    54   55   54 1
    55   56   54 ar
    56   57   56 1
    57   58   56 ar
    58   59   58 ar
    59   60   59 1
    60   61   53 ar
    61   62   61 ar
    62   63   62 ar
    63   64   63 1
    64   65   63 ar
    65   66   65 1
    66   67   65 ar
    67   68   67 1
    68   69   67 ar
    69   70   69 1
    70   71   62 ar
    71   72   22 1
    72   73   58 1
    73   74   73 ar
    74   75   74 1
    75   76   74 ar
    76   77   76 1
    77   78   76 ar
    78   79   78 ar
    79   80   79 1
    80   81   73 ar
    81   82   81 1
    82   83    1 1
    83   84   83 1
    84   85   83 1
    85   86   83 1
    86   87   86 1
    87   88   86 1
    88   89   86 1
    89   90   89 1
    90   91   89 1
    91   92   89 1
    92   93   92 1
    93   94   92 1
    94   95   92 1
    95   96   95 1
    96   97   95 1
    97   98   95 1
    98   99   78 1
    99  100   99 2
   100  101   99 2
   101    9   11 ar
   102   19   21 ar
   103   21   22 ar
   104   29   31 ar
   105   52   72 ar
   106   59   61 ar
   107   69   71 ar
   108   71   72 ar
   109   79   81 ar
@<TRIPOS>SUBSTRUCTURE
     1 RES1 1

@<TRIPOS>CRYSIN
  12.3370   12.3370   25.0284  90.0000  90.0000  90.0000  92 1

