# MOL2 file generated by ConQuest
# Please check atom types

@<TRIPOS>MOLECULE
NIBZAL
    15    15     1
SMALL
NO_CHARGES
****
Generated from CSD

@<TRIPOS>ATOM
      1 C1         3.5754   -2.7680    1.9636 C.ar      1 RES1    0.0000
      2 C2         2.6166   -2.6690    0.9727 C.ar      1 RES1    0.0000
      3 C3         1.3490   -3.1165    1.2725 C.ar      1 RES1    0.0000
      4 C4         1.0506   -3.6392    2.5253 C.ar      1 RES1    0.0000
      5 C5         2.0220   -3.7224    3.4860 C.ar      1 RES1    0.0000
      6 C6         3.3076   -3.2710    3.2203 C.ar      1 RES1    0.0000
      7 C7         2.8814   -2.2453   -0.4307 C.2       1 RES1    0.0000
      8 H1         0.8511   -3.1680    0.5375 H         1 RES1    0.0000
      9 H2         0.2074   -4.1580    2.7403 H         1 RES1    0.0000
     10 H3         4.1719   -3.1680    3.8910 H         1 RES1    0.0000
     11 H4         3.6524   -2.8908   -0.8403 H         1 RES1    0.0000
     12 N1         4.9246   -2.2453    1.7214 N.pl3     1 RES1    0.0000
     13 O1         5.0591   -1.3504    0.8925 O.2       1 RES1    0.0000
     14 O2         5.8447   -2.7601    2.3611 O.2       1 RES1    0.0000
     15 O3         2.0421   -1.7226   -1.1098 O.2       1 RES1    0.0000
@<TRIPOS>BOND
     1    1    2 ar
     2    2    3 ar
     3    3    4 ar
     4    4    5 ar
     5    5    6 ar
     6    6    1 ar
     7    7    2 1
     8    8    3 1
     9    9    4 1
    10   10    6 1
    11   11    7 1
    12   12    1 1
    13   13   12 2
    14   14   12 2
    15   15    7 2
@<TRIPOS>SUBSTRUCTURE
     1 RES1 1

@<TRIPOS>CRYSIN
  11.3700    3.9600    7.5700  90.0000  90.1800  90.0000   4 1

