# MOL2 file generated by ConQuest
# Please check atom types

@<TRIPOS>MOLECULE
NIDMOF
    64    59     2
SMALL
NO_CHARGES
****
Generated from CSD

@<TRIPOS>ATOM
      1 O1         6.8739    1.0728    1.6605 O.3       1 RES1    0.0000
      2 O2         4.1451    1.7893    0.7246 O.2       1 RES1    0.0000
      3 O3         5.2086    4.5838    4.1636 O.2       1 RES1    0.0000
      4 N1         7.5812    2.3325    1.3879 N.3       1 RES1    0.0000
      5 N2         4.3733    3.3417    2.4204 N.am      1 RES1    0.0000
      6 N3         8.5364    6.5622    2.9737 N.pl3     1 RES1    0.0000
      7 C1         7.6918    3.0003    2.7122 C.3       1 RES1    0.0000
      8 H1         8.4673    2.6157    3.2133 H         1 RES1    0.0000
      9 C2         6.3665    2.5817    3.4118 C.3       1 RES1    0.0000
     10 H2         6.5381    2.2233    4.3301 H         1 RES1    0.0000
     11 C3         5.8202    1.4998    2.4913 C.3       1 RES1    0.0000
     12 H3         5.4669    0.7317    3.0271 H         1 RES1    0.0000
     13 C4         4.6880    2.1809    1.7256 C.2       1 RES1    0.0000
     14 C5         5.2908    3.6400    3.4294 C.2       1 RES1    0.0000
     15 C6         8.6073    5.2572    3.4016 C.2       1 RES1    0.0000
     16 H4         9.0836    4.9521    4.1647 H         1 RES1    0.0000
     17 C7         7.8848    4.4778    2.5548 C.2       1 RES1    0.0000
     18 C8         7.3452    5.3222    1.5549 C.2       1 RES1    0.0000
     19 H5         6.7989    5.0546    0.8244 H         1 RES1    0.0000
     20 C9         7.7561    6.5880    1.8382 C.2       1 RES1    0.0000
     21 H6         7.5405    7.3628    1.3350 H         1 RES1    0.0000
     22 C10        8.7992    1.9695    0.7374 C.ar      1 RES1    0.0000
     23 C11        9.9381    2.7468    0.8772 C.ar      1 RES1    0.0000
     24 H7         9.9415    3.4852    1.4743 H         1 RES1    0.0000
     25 C12       11.0794    2.4411    0.1393 C.ar      1 RES1    0.0000
     26 H8        11.8605    2.9727    0.2385 H         1 RES1    0.0000
     27 C13       11.0861    1.3708   -0.7380 C.ar      1 RES1    0.0000
     28 H9        11.8605    1.1771   -1.2529 H         1 RES1    0.0000
     29 C14        9.9596    0.5935   -0.8548 C.ar      1 RES1    0.0000
     30 H10        9.9664   -0.1520   -1.4450 H         1 RES1    0.0000
     31 C15        8.8150    0.8745   -0.1281 C.ar      1 RES1    0.0000
     32 H11        8.0451    0.3252   -0.2177 H         1 RES1    0.0000
     33 C16        3.1821    4.1225    2.2091 C.ar      1 RES1    0.0000
     34 C17        3.0997    5.0150    1.1712 C.ar      1 RES1    0.0000
     35 H12        3.8199    5.1112    0.5592 H         1 RES1    0.0000
     36 C18        1.9506    5.7757    1.0293 C.ar      1 RES1    0.0000
     37 H13        1.8840    6.4013    0.3164 H         1 RES1    0.0000
     38 C19        0.9110    5.6371    1.9033 C.ar      1 RES1    0.0000
     39 H14        0.1287    6.1645    1.8025 H         1 RES1    0.0000
     40 C20        1.0046    4.7333    2.9251 C.ar      1 RES1    0.0000
     41 H15        0.2788    4.6305    3.5286 H         1 RES1    0.0000
     42 C21        2.1402    3.9705    3.0895 C.ar      1 RES1    0.0000
     43 H16        2.2012    3.3474    3.8034 H         1 RES1    0.0000
     44 C22        9.2236    7.6699    3.5308 C.ar      1 RES1    0.0000
     45 C23        8.7709    8.9718    3.2704 C.ar      1 RES1    0.0000
     46 H17        7.9762    9.1125    2.7699 H         1 RES1    0.0000
     47 C24        9.4956   10.0499    3.7517 C.ar      1 RES1    0.0000
     48 H18        9.2078   10.9364    3.5622 H         1 RES1    0.0000
     49 C25       10.6335    9.8441    4.5088 C.ar      1 RES1    0.0000
     50 H19       11.1821   10.5723    4.7708 H         1 RES1    0.0000
     51 C26       10.9597    8.5610    4.8663 C.ar      1 RES1    0.0000
     52 H20       11.6754    8.4161    5.4752 H         1 RES1    0.0000
     53 C27       10.2734    7.4759    4.3690 C.ar      1 RES1    0.0000
     54 H21       10.5319    6.5922    4.6113 H         1 RES1    0.0000
     55 C28        9.4889    8.8226    2.7699 Du        2 SUP2    0.0000
     56 H22        9.1863    8.8792    1.8713 Du        2 SUP2    0.0000
     57 C29       10.1932    9.8724    3.3349 Du        2 SUP2    0.0000
     58 H23       10.3569   10.6536    2.8179 Du        2 SUP2    0.0000
     59 C30       10.6561    9.8088    4.6316 Du        2 SUP2    0.0000
     60 H24       11.0760   10.5652    5.0259 Du        2 SUP2    0.0000
     61 C31       10.5217    8.6423    5.3519 Du        2 SUP2    0.0000
     62 H25       10.9100    8.5575    6.2131 Du        2 SUP2    0.0000
     63 C32        9.7982    7.5925    4.7863 Du        2 SUP2    0.0000
     64 H26        9.6954    6.7902    5.2852 Du        2 SUP2    0.0000
@<TRIPOS>BOND
     1    1    4 1
     2    2   13 2
     3    3   14 2
     4    4    7 1
     5    5   13 1
     6    6   15 1
     7    7    8 1
     8    9    7 1
     9   10    9 1
    10   11    1 1
    11   12   11 1
    12   13   11 1
    13   14    5 1
    14   15   16 1
    15   17    7 1
    16   18   17 1
    17   19   18 1
    18   20    6 1
    19   21   20 1
    20   22    4 1
    21   23   22 ar
    22   24   23 1
    23   25   23 ar
    24   26   25 1
    25   27   25 ar
    26   28   27 1
    27   29   27 ar
    28   30   29 1
    29   31   22 ar
    30   32   31 1
    31   33    5 1
    32   34   33 ar
    33   35   34 1
    34   36   34 ar
    35   37   36 1
    36   38   36 ar
    37   39   38 1
    38   40   38 ar
    39   41   40 1
    40   42   33 ar
    41   43   42 1
    42   44    6 1
    43   45   44 ar
    44   46   45 1
    45   47   45 ar
    46   48   47 1
    47   49   47 ar
    48   50   49 1
    49   51   49 ar
    50   52   51 1
    51   53   44 ar
    52   54   53 1
    53    9   11 1
    54    9   14 1
    55   15   17 2
    56   18   20 2
    57   29   31 ar
    58   40   42 ar
    59   51   53 ar
@<TRIPOS>SUBSTRUCTURE
     1 RES1 1
     2 SUP2 55

@<TRIPOS>CRYSIN
  11.2882   35.3470    5.3359  90.0000  90.0000  90.0000  33 1

