# MOL2 file generated by ConQuest
# Please check atom types

@<TRIPOS>MOLECULE
NIDMIZ
    52    54     1
SMALL
USER_CHARGES
****
Generated from CSD

@<TRIPOS>ATOM
      1 O1        -2.6584   12.4766    6.5356 O.3       1 RES1    0.0000
      2 O2        -1.5142   10.6477    7.1335 O.2       1 RES1    0.0000
      3 O3         3.8829   12.8904    3.5053 O.2       1 RES1   -1.0000
      4 O4        11.8573   15.9504   -1.3232 O.2       1 RES1    0.0000
      5 O5        11.8893   13.9812   -0.2461 O.3       1 RES1    0.0000
      6 N1         2.8597   13.6900    3.5432 N.pl3     1 RES1    1.0000
      7 N2         6.0120   15.7591    1.3632 N.pl3     1 RES1    0.0000
      8 C1        -3.7882   12.0070    7.3264 C.3       1 RES1    0.0000
      9 H1        -3.5568   11.9961    8.2892 H         1 RES1    0.0000
     10 H2        -4.0459   11.0914    7.0521 H         1 RES1    0.0000
     11 C2        -4.9090   12.9651    7.0695 C.3       1 RES1    0.0000
     12 H3        -5.1201   12.9718    6.1122 H         1 RES1    0.0000
     13 H4        -4.6421   13.8654    7.3502 H         1 RES1    0.0000
     14 H5        -5.6988   12.6857    7.5769 H         1 RES1    0.0000
     15 C3        13.2535   13.7689   -0.6857 C.3       1 RES1    0.0000
     16 H6        13.8452   14.4818   -0.3374 H         1 RES1    0.0000
     17 H7        13.3040   13.7701   -1.6741 H         1 RES1    0.0000
     18 C4        13.6619   12.4330   -0.1390 C.3       1 RES1    0.0000
     19 H8        13.0740   11.7389   -0.5038 H         1 RES1    0.0000
     20 H9        13.5900   12.4418    0.8384 H         1 RES1    0.0000
     21 H10       14.5882   12.2445   -0.3959 H         1 RES1    0.0000
     22 C5        -1.5871   11.6873    6.5254 C.2       1 RES1    0.0000
     23 C6        -0.4836   12.2345    5.6937 C.ar      1 RES1    0.0000
     24 C7        -0.5538   13.4876    5.0879 C.ar      1 RES1    0.0000
     25 H11       -1.3462   14.0051    5.1641 H         1 RES1    0.0000
     26 C8         0.5215   13.9783    4.3784 C.ar      1 RES1    0.0000
     27 H12        0.4718   14.8322    3.9672 H         1 RES1    0.0000
     28 C9         1.6798   13.2159    4.2676 C.ar      1 RES1    0.0000
     29 C10        1.7614   11.9702    4.8595 C.ar      1 RES1    0.0000
     30 H13        2.5525   11.4507    4.7791 H         1 RES1    0.0000
     31 C11        0.6810   11.4906    5.5672 C.ar      1 RES1    0.0000
     32 H14        0.7345   10.6347    5.9760 H         1 RES1    0.0000
     33 C12        2.8857   14.8643    2.9830 C.2       1 RES1    0.0000
     34 H15        2.0995   15.3976    3.0227 H         1 RES1    0.0000
     35 C13        5.2624   14.8313    2.0392 C.2       1 RES1    0.0000
     36 H16        5.5393   13.9541    2.2785 H         1 RES1    0.0000
     37 C14        4.0290   15.3994    2.3112 C.2       1 RES1    0.0000
     38 C15        4.0484   16.7216    1.7939 C.2       1 RES1    0.0000
     39 H17        3.3410   17.3534    1.8378 H         1 RES1    0.0000
     40 C16        5.2600   16.9152    1.2252 C.2       1 RES1    0.0000
     41 H18        5.5494   17.7148    0.8000 H         1 RES1    0.0000
     42 C17        7.3405   15.5830    0.8867 C.ar      1 RES1    0.0000
     43 C18        7.8844   16.5032   -0.0005 C.ar      1 RES1    0.0000
     44 H19        7.3674   17.2469   -0.2871 H         1 RES1    0.0000
     45 C19        9.1687   16.3418   -0.4658 C.ar      1 RES1    0.0000
     46 H20        9.5321   16.9808   -1.0670 H         1 RES1    0.0000
     47 C20        9.9431   15.2579   -0.0703 C.ar      1 RES1    0.0000
     48 C21        9.3969   14.3406    0.8196 C.ar      1 RES1    0.0000
     49 H21        9.9133   13.5949    1.1027 H         1 RES1    0.0000
     50 C22        8.1078   14.5020    1.2977 C.ar      1 RES1    0.0000
     51 H22        7.7474   13.8698    1.9091 H         1 RES1    0.0000
     52 C23       11.3152   15.1244   -0.6195 C.2       1 RES1    0.0000
@<TRIPOS>BOND
     1    1    8 1
     2    2   22 2
     3    3    6 1
     4    4   52 2
     5    5   15 1
     6    6   28 1
     7    7   35 1
     8    8    9 1
     9   10    8 1
    10   11    8 1
    11   12   11 1
    12   13   11 1
    13   14   11 1
    14   15   16 1
    15   17   15 1
    16   18   15 1
    17   19   18 1
    18   20   18 1
    19   21   18 1
    20   22    1 1
    21   23   22 1
    22   24   23 ar
    23   25   24 1
    24   26   24 ar
    25   27   26 1
    26   28   26 ar
    27   29   28 ar
    28   30   29 1
    29   31   23 ar
    30   32   31 1
    31   33    6 2
    32   34   33 1
    33   35   36 1
    34   37   33 1
    35   38   37 1
    36   39   38 1
    37   40    7 1
    38   41   40 1
    39   42    7 1
    40   43   42 ar
    41   44   43 1
    42   45   43 ar
    43   46   45 1
    44   47   45 ar
    45   48   47 ar
    46   49   48 1
    47   50   42 ar
    48   51   50 1
    49   52    5 1
    50   29   31 ar
    51   35   37 2
    52   38   40 2
    53   47   52 1
    54   48   50 ar
@<TRIPOS>SUBSTRUCTURE
     1 RES1 1

@<TRIPOS>CRYSIN
   9.8676   22.1740    9.4684  90.0000 105.0612  90.0000  14 1

