# MOL2 file generated by ConQuest
# Please check atom types

@<TRIPOS>MOLECULE
NIEQIN
    37    38     1
SMALL
NO_CHARGES
****
Generated from CSD

@<TRIPOS>ATOM
      1 N1         1.5620   -1.0643    1.8235 N.3       1 RES1    0.0000
      2 C1         1.0658   -2.1607    2.6304 C.3       1 RES1    0.0000
      3 C2         2.1093   -2.5848    3.6185 C.2       1 RES1    0.0000
      4 C3         3.2862   -2.0093    3.8017 C.2       1 RES1    0.0000
      5 C4         4.8013   -0.1480    3.1900 C.ar      1 RES1    0.0000
      6 C5         5.1687    0.9390    2.4373 C.ar      1 RES1    0.0000
      7 C6         4.3598    1.3699    1.4462 C.ar      1 RES1    0.0000
      8 C7         3.1267    0.7038    1.2246 C.ar      1 RES1    0.0000
      9 C8         2.7293   -0.3992    1.9831 C.ar      1 RES1    0.0000
     10 C9         3.6392   -0.8396    2.9998 C.ar      1 RES1    0.0000
     11 C10        0.7170   -3.3048    1.7102 C.3       1 RES1    0.0000
     12 C11       -0.1792   -1.7147    3.3722 C.3       1 RES1    0.0000
     13 C12        4.2677   -2.5291    4.8184 C.3       1 RES1    0.0000
     14 O1         6.3764    1.5112    2.7831 O.3       1 RES1    0.0000
     15 C13        6.8586    2.5487    1.9644 C.3       1 RES1    0.0000
     16 C14        8.2452    2.9035    2.4560 C.3       1 RES1    0.0000
     17 N2         2.3187    1.2373    0.1665 N.pl3     1 RES1    0.0000
     18 O2         2.7074    2.2069   -0.4719 O.2       1 RES1    0.0000
     19 O3         1.2273    0.7095   -0.0778 O.2       1 RES1    0.0000
     20 H1         1.0692   -0.7544    1.2423 H         1 RES1    0.0000
     21 H2         1.8652   -3.3612    4.1938 H         1 RES1    0.0000
     22 H3         5.3749   -0.4799    3.7663 H         1 RES1    0.0000
     23 H4         4.5198    2.0972    0.9093 H         1 RES1    0.0000
     24 H5         0.4000   -4.0224    2.1703 H         1 RES1    0.0000
     25 H6         0.0806   -3.0279    1.0305 H         1 RES1    0.0000
     26 H7         1.5055   -3.5249    1.1684 H         1 RES1    0.0000
     27 H8        -0.7532   -1.3693    2.6964 H         1 RES1    0.0000
     28 H9        -0.5076   -2.3935    4.0273 H         1 RES1    0.0000
     29 H10        0.0360   -0.8642    3.8815 H         1 RES1    0.0000
     30 H11        5.0769   -2.8036    4.3229 H         1 RES1    0.0000
     31 H12        4.4373   -1.8794    5.4558 H         1 RES1    0.0000
     32 H13        4.0349   -3.4264    5.1898 H         1 RES1    0.0000
     33 H14        6.3028    3.2880    1.9181 H         1 RES1    0.0000
     34 H15        6.8821    2.1472    1.0620 H         1 RES1    0.0000
     35 H16        8.6558    3.3903    1.8403 H         1 RES1    0.0000
     36 H17        8.1674    3.2846    3.4165 H         1 RES1    0.0000
     37 H18        8.7545    2.0613    2.5595 H         1 RES1    0.0000
@<TRIPOS>BOND
     1    1    2 1
     2    2    3 1
     3    3    4 2
     4    4   10 1
     5    5    6 ar
     6    6    7 ar
     7    7    8 ar
     8    8    9 ar
     9    9    1 1
    10   10    5 ar
    11   11    2 1
    12   12    2 1
    13   13    4 1
    14   14    6 1
    15   15   14 1
    16   16   15 1
    17   17    8 1
    18   18   17 2
    19   19   17 2
    20   20    1 1
    21   21    3 1
    22   22    5 1
    23   23    7 1
    24   24   11 1
    25   25   11 1
    26   26   11 1
    27   27   12 1
    28   28   12 1
    29   29   12 1
    30   30   13 1
    31   31   13 1
    32   32   13 1
    33   33   15 1
    34   34   15 1
    35   35   16 1
    36   36   16 1
    37   37   16 1
    38    9   10 ar
@<TRIPOS>SUBSTRUCTURE
     1 RES1 1

@<TRIPOS>CRYSIN
   8.4100    8.6120   10.0000  95.4400  99.4400  73.6000   2 1

