# MOL2 file generated by ConQuest
# Please check atom types

@<TRIPOS>MOLECULE
NIFBUA
    38    40     1
SMALL
NO_CHARGES
****
Generated from CSD

@<TRIPOS>ATOM
      1 O1         1.2265    6.8235    8.6213 O.2       1 RES1    0.0000
      2 O2        -1.1221    6.2580   12.4378 O.2       1 RES1    0.0000
      3 O3         2.8457   10.3420    3.5390 O.2       1 RES1    0.0000
      4 O4         4.4850    8.9421    3.6495 O.2       1 RES1    0.0000
      5 N1         2.2245    9.3746   12.5313 N.ar      1 RES1    0.0000
      6 N2        -0.0647    6.6846   10.4770 N.am      1 RES1    0.0000
      7 N3         0.5559    7.7953   12.4727 N.am      1 RES1    0.0000
      8 N4         5.3865   11.2830    9.4907 N.1       1 RES1    0.0000
      9 N5         3.9309   10.8920   12.6934 N.3       1 RES1    0.0000
     10 N6         3.5623    9.5626    4.1622 N.pl3     1 RES1    0.0000
     11 C1         1.5233    8.5163   11.7963 C.ar      1 RES1    0.0000
     12 C2         1.7037    8.3014   10.4160 C.ar      1 RES1    0.0000
     13 C3         2.6770    9.0739    9.7708 C.ar      1 RES1    0.0000
     14 C4         3.4479    9.9414   10.5327 C.ar      1 RES1    0.0000
     15 C5         3.2046   10.0663   11.9318 C.ar      1 RES1    0.0000
     16 C6         0.9679    7.2408    9.7456 C.2       1 RES1    0.0000
     17 C7        -0.2620    6.8800   11.8423 C.2       1 RES1    0.0000
     18 C8         2.8709    9.0894    8.2885 C.ar      1 RES1    0.0000
     19 C9         2.0248    9.8942    7.5304 C.ar      1 RES1    0.0000
     20 H1         1.2950   10.3391    7.9444 H         1 RES1    0.0000
     21 C10        2.2477   10.0473    6.1689 C.ar      1 RES1    0.0000
     22 H2         1.6830   10.6025    5.6438 H         1 RES1    0.0000
     23 C11        3.3051    9.3766    5.5969 C.ar      1 RES1    0.0000
     24 C12        4.1481    8.5566    6.3231 C.ar      1 RES1    0.0000
     25 H3         4.8582    8.0915    5.8957 H         1 RES1    0.0000
     26 C13        3.9367    8.4261    7.6847 C.ar      1 RES1    0.0000
     27 H4         4.5172    7.8854    8.2061 H         1 RES1    0.0000
     28 C14        4.5112   10.6944    9.9329 C.1       1 RES1    0.0000
     29 C15       -0.9172    5.6821    9.8251 C.3       1 RES1    0.0000
     30 H5        -0.8910    5.8122    8.8547 H         1 RES1    0.0000
     31 H6        -1.8396    5.7806   10.1435 H         1 RES1    0.0000
     32 H7        -0.5911    4.7844   10.0433 H         1 RES1    0.0000
     33 C16        0.4511    7.9357   13.9377 C.3       1 RES1    0.0000
     34 H8        -0.2825    7.3762   14.2674 H         1 RES1    0.0000
     35 H9         0.2742    8.8723   14.1644 H         1 RES1    0.0000
     36 H10        1.2922    7.6525   14.3537 H         1 RES1    0.0000
     37 H11        3.8313   10.8390   13.5256 H         1 RES1    0.0000
     38 H12        4.6792   11.3798   12.3398 H         1 RES1    0.0000
@<TRIPOS>BOND
     1    1   16 2
     2    2   17 2
     3    3   10 2
     4    4   10 2
     5    5   11 ar
     6    6   16 1
     7    7   11 1
     8    8   28 3
     9    9   15 1
    10   10   23 1
    11   11   12 ar
    12   12   13 ar
    13   13   14 ar
    14   14   15 ar
    15   15    5 ar
    16   16   12 1
    17   17    6 1
    18   18   13 1
    19   19   18 ar
    20   20   19 1
    21   21   19 ar
    22   22   21 1
    23   23   21 ar
    24   24   23 ar
    25   25   24 1
    26   26   18 ar
    27   27   26 1
    28   28   14 1
    29   29    6 1
    30   30   29 1
    31   31   29 1
    32   32   29 1
    33   33    7 1
    34   34   33 1
    35   35   33 1
    36   36   33 1
    37   37    9 1
    38   38    9 1
    39    7   17 1
    40   24   26 ar
@<TRIPOS>SUBSTRUCTURE
     1 RES1 1

@<TRIPOS>CRYSIN
   9.6209   11.7064   14.5493  90.0000 106.9390  90.0000 231 1

