# MOL2 file generated by ConQuest
# Please check atom types

@<TRIPOS>MOLECULE
NIFDOW
    38    39     1
SMALL
NO_CHARGES
****
Generated from CSD

@<TRIPOS>ATOM
      1 O1        -0.5407    1.0564    9.5031 O.2       1 RES1    0.0000
      2 O2        -0.4443    2.3876   14.1048 O.2       1 RES1    0.0000
      3 O3         1.3747    3.1182   15.0134 O.2       1 RES1    0.0000
      4 N1         2.4276   -1.3711    1.9827 N.3       1 RES1    0.0000
      5 N2         0.7533    2.6560   14.0642 N.pl3     1 RES1    0.0000
      6 C1         0.8051    1.8802   11.7431 C.ar      1 RES1    0.0000
      7 H1        -0.0914    1.6469   11.8256 H         1 RES1    0.0000
      8 C2         1.4853    2.4311   12.8061 C.ar      1 RES1    0.0000
      9 C3         2.8178    2.7898   12.7377 C.ar      1 RES1    0.0000
     10 H2         3.2531    3.1618   13.4708 H         1 RES1    0.0000
     11 C4         3.4824    2.5771   11.5464 C.ar      1 RES1    0.0000
     12 H3         4.3811    2.8065   11.4741 H         1 RES1    0.0000
     13 C5         2.8256    2.0253   10.4553 C.ar      1 RES1    0.0000
     14 H4         3.2903    1.8869    9.6613 H         1 RES1    0.0000
     15 C6         1.4834    1.6776   10.5345 C.ar      1 RES1    0.0000
     16 C7         0.6788    1.1248    9.3920 C.2       1 RES1    0.0000
     17 C8         1.3757    0.6980    8.1684 C.2       1 RES1    0.0000
     18 H5         2.2953    0.8165    8.0926 H         1 RES1    0.0000
     19 C9         0.6893    0.1398    7.1631 C.2       1 RES1    0.0000
     20 H6        -0.2162   -0.0034    7.3180 H         1 RES1    0.0000
     21 C10        1.1872   -0.2692    5.8607 C.ar      1 RES1    0.0000
     22 C11        2.5073   -0.0648    5.4321 C.ar      1 RES1    0.0000
     23 H7         3.1223    0.3129    6.0194 H         1 RES1    0.0000
     24 C12        2.9149   -0.4112    4.1622 C.ar      1 RES1    0.0000
     25 H8         3.7966   -0.2580    3.9072 H         1 RES1    0.0000
     26 C13        2.0163   -0.9956    3.2372 C.ar      1 RES1    0.0000
     27 C14        0.6963   -1.1985    3.6707 C.ar      1 RES1    0.0000
     28 H9         0.0778   -1.5761    3.0886 H         1 RES1    0.0000
     29 C15        0.3005   -0.8471    4.9452 C.ar      1 RES1    0.0000
     30 H10       -0.5802   -0.9986    5.2025 H         1 RES1    0.0000
     31 C16        1.4461   -1.7791    0.9959 C.3       1 RES1    0.0000
     32 H11        0.9527   -2.5331    1.3279 H         1 RES1    0.0000
     33 H12        1.8930   -2.0225    0.1823 H         1 RES1    0.0000
     34 H13        0.8426   -1.0524    0.8250 H         1 RES1    0.0000
     35 C17        3.7472   -1.0129    1.5168 C.3       1 RES1    0.0000
     36 H14        4.4073   -1.4092    2.0895 H         1 RES1    0.0000
     37 H15        3.8434   -0.0581    1.5313 H         1 RES1    0.0000
     38 H16        3.8676   -1.3336    0.6200 H         1 RES1    0.0000
@<TRIPOS>BOND
     1    1   16 2
     2    2    5 2
     3    3    5 2
     4    4   26 1
     5    5    8 1
     6    6    7 1
     7    8    6 ar
     8    9    8 ar
     9   10    9 1
    10   11    9 ar
    11   12   11 1
    12   13   11 ar
    13   14   13 1
    14   15    6 ar
    15   16   15 1
    16   17   16 1
    17   18   17 1
    18   19   17 2
    19   20   19 1
    20   21   19 1
    21   22   21 ar
    22   23   22 1
    23   24   22 ar
    24   25   24 1
    25   26   24 ar
    26   27   26 ar
    27   28   27 1
    28   29   21 ar
    29   30   29 1
    30   31    4 1
    31   32   31 1
    32   33   31 1
    33   34   31 1
    34   35    4 1
    35   36   35 1
    36   37   35 1
    37   38   35 1
    38   13   15 ar
    39   27   29 ar
@<TRIPOS>SUBSTRUCTURE
     1 RES1 1

@<TRIPOS>CRYSIN
   6.4326    7.1724   16.5000  93.9890  96.9730 107.8440   2 1

