# MOL2 file generated by ConQuest
# Please check atom types

@<TRIPOS>MOLECULE
NIFDUC
    27    28     1
SMALL
NO_CHARGES
****
Generated from CSD

@<TRIPOS>ATOM
      1 O1        -1.7454   -4.1161    5.5044 O.3       1 RES1    0.0000
      2 O2         1.6489   -0.3922    4.8859 O.2       1 RES1    0.0000
      3 O3         1.6711    4.1930    3.2349 O.2       1 RES1    0.0000
      4 O4         0.0032    5.4871    3.7075 O.2       1 RES1    0.0000
      5 N1         0.5375    4.3812    3.6569 N.pl3     1 RES1    0.0000
      6 C1        -2.1112   -5.3752    5.8727 C.2       1 RES1    0.0000
      7 H1        -2.9728   -5.7188    5.7961 H         1 RES1    0.0000
      8 C2        -1.0639   -6.0550    6.3608 C.2       1 RES1    0.0000
      9 H2        -1.0675   -6.9256    6.6850 H         1 RES1    0.0000
     10 C3         0.0632   -5.1720    6.2836 C.2       1 RES1    0.0000
     11 H3         0.9369   -5.3611    6.5383 H         1 RES1    0.0000
     12 C4        -0.3989   -3.9984    5.7628 C.2       1 RES1    0.0000
     13 C5         0.2514   -2.7481    5.4993 C.2       1 RES1    0.0000
     14 H4         1.1712   -2.7072    5.6323 H         1 RES1    0.0000
     15 C6        -0.3596   -1.6297    5.0756 C.2       1 RES1    0.0000
     16 H5        -1.2752   -1.6339    4.9117 H         1 RES1    0.0000
     17 C7         0.4229   -0.3970    4.8712 C.2       1 RES1    0.0000
     18 C8        -0.3145    0.8976    4.6903 C.ar      1 RES1    0.0000
     19 C9         0.3968    1.9896    4.1834 C.ar      1 RES1    0.0000
     20 H6         1.2708    1.8876    3.8820 H         1 RES1    0.0000
     21 C10       -0.2292    3.2244    4.1402 C.ar      1 RES1    0.0000
     22 C11       -1.5369    3.4198    4.5646 C.ar      1 RES1    0.0000
     23 H7        -1.9296    4.2611    4.5318 H         1 RES1    0.0000
     24 C12       -2.2393    2.3257    5.0382 C.ar      1 RES1    0.0000
     25 H8        -3.1198    2.4296    5.3185 H         1 RES1    0.0000
     26 C13       -1.6387    1.0690    5.0984 C.ar      1 RES1    0.0000
     27 H9        -2.1232    0.3391    5.4122 H         1 RES1    0.0000
@<TRIPOS>BOND
     1    1    6 1
     2    2   17 2
     3    3    5 2
     4    4    5 2
     5    5   21 1
     6    6    7 1
     7    8    6 2
     8    9    8 1
     9   10    8 1
    10   11   10 1
    11   12    1 1
    12   13   12 1
    13   14   13 1
    14   15   13 2
    15   16   15 1
    16   17   15 1
    17   18   17 1
    18   19   18 ar
    19   20   19 1
    20   21   19 ar
    21   22   21 ar
    22   23   22 1
    23   24   22 ar
    24   25   24 1
    25   26   18 ar
    26   27   26 1
    27   10   12 2
    28   24   26 ar
@<TRIPOS>SUBSTRUCTURE
     1 RES1 1

@<TRIPOS>CRYSIN
   6.2162   26.6985    7.0467  90.0000 111.6250  90.0000  14 1

