# MOL2 file generated by ConQuest
# Please check atom types

@<TRIPOS>MOLECULE
NIGQOK
    40    41     2
SMALL
NO_CHARGES
****
Generated from CSD

@<TRIPOS>ATOM
      1 N1        -0.0180   -0.3790    2.3529 N.ar      1 RES1    0.0000
      2 N2        -2.0138   -0.3029    1.0406 N.ar      1 RES1    0.0000
      3 C1        -1.7117    0.9646    0.6317 C.ar      1 RES1    0.0000
      4 N3        -0.3418    2.9622    0.8074 N.pl3     1 RES1    0.0000
      5 N4        -2.6079    1.5191   -0.1818 N.3       1 RES1    0.0000
      6 C2        -1.1399   -0.8574    1.8648 C.ar      1 RES1    0.0000
      7 C3        -0.5566    1.5797    1.1362 C.ar      1 RES1    0.0000
      8 C4         2.3657    0.9444    3.4577 C.2       1 RES1    0.0000
      9 C5         0.3209    0.8885    1.9991 C.ar      1 RES1    0.0000
     10 C6         2.1025   -0.2905    4.2295 C.ar      1 RES1    0.0000
     11 N5         3.4941    1.6248    3.8238 N.3       1 RES1    0.0000
     12 O1         0.1262    3.7264    1.6712 O.2       1 RES1    0.0000
     13 C7         1.5617    1.4337    2.4663 C.2       1 RES1    0.0000
     14 O2        -0.7059    3.4064   -0.2389 O.2       1 RES1    0.0000
     15 C8         1.2885   -0.2454    5.3281 C.ar      1 RES1    0.0000
     16 C9         2.6829   -1.5052    3.8779 C.ar      1 RES1    0.0000
     17 C10        3.8647    2.9389    3.2875 C.3       1 RES1    0.0000
     18 C11        2.4327   -2.6313    4.6195 C.ar      1 RES1    0.0000
     19 C12        1.0412   -1.3716    6.0861 C.ar      1 RES1    0.0000
     20 C13        4.4227    1.2287    4.8667 C.3       1 RES1    0.0000
     21 C14        1.6158   -2.5754    5.7153 C.ar      1 RES1    0.0000
     22 C15        4.9671    3.3955    4.1718 C.3       1 RES1    0.0000
     23 C16        5.3716    2.3331    4.9490 C.3       1 RES1    0.0000
     24 H1         1.7377    2.2057    2.1971 H         1 RES1    0.0000
     25 H2        -3.7998    1.0407   -0.4944 H         1 RES1    0.0000
     26 H3        -1.3771   -1.7242    2.1971 H         1 RES1    0.0000
     27 H4         0.8727    0.5877    5.5637 H         1 RES1    0.0000
     28 H5         0.4744   -1.3037    6.8566 H         1 RES1    0.0000
     29 H6         1.4473   -3.3614    6.2411 H         1 RES1    0.0000
     30 H7         2.8320   -3.4694    4.3747 H         1 RES1    0.0000
     31 H8         3.2013   -1.5222    3.0211 H         1 RES1    0.0000
     32 H9         3.9800    1.0563    5.5203 H         1 RES1    0.0000
     33 H10        4.7948    0.2951    4.6964 H         1 RES1    0.0000
     34 H11        4.1674    2.8348    2.3824 H         1 RES1    0.0000
     35 H12        3.0888    3.5040    3.3025 H         1 RES1    0.0000
     36 H13        5.7970    2.4387    5.9048 H         1 RES1    0.0000
     37 H14        5.9052    2.1902    5.2731 Du        2 SUP2    0.0000
     38 H15        5.4221    4.1318    4.0372 H         1 RES1    0.0000
     39 H16        4.7227    3.8988    4.9161 H         1 RES1    0.0000
     40 H17       -2.4327    2.3905   -0.2770 H         1 RES1    0.0000
@<TRIPOS>BOND
     1    1    6 ar
     2    2    3 ar
     3    3    5 1
     4    4    7 1
     5    5   25 1
     6    6    2 ar
     7    7    3 ar
     8    8   10 1
     9    9    1 ar
    10   10   15 ar
    11   11    8 1
    12   12    4 2
    13   13    8 2
    14   14    4 2
    15   15   19 ar
    16   16   10 ar
    17   17   11 1
    18   18   16 ar
    19   19   21 ar
    20   20   11 1
    21   21   18 ar
    22   22   17 1
    23   23   20 1
    24   24   13 1
    25   26    6 1
    26   27   15 1
    27   28   19 1
    28   29   21 1
    29   30   18 1
    30   31   16 1
    31   32   20 1
    32   33   20 1
    33   34   17 1
    34   35   17 1
    35   36   23 1
    36   38   22 1
    37   39   22 1
    38   40    5 1
    39    7    9 ar
    40    9   13 1
    41   22   23 1
@<TRIPOS>SUBSTRUCTURE
     1 RES1 1
     2 SUP2 37

@<TRIPOS>CRYSIN
   7.2102   15.5331   27.4642  90.0000  90.0000  90.0000  61 1

