# MOL2 file generated by ConQuest
# Please check atom types

@<TRIPOS>MOLECULE
NIGRON
    38    41     1
SMALL
NO_CHARGES
****
Generated from CSD

@<TRIPOS>ATOM
      1 O1         2.6591    6.3036   11.8015 O.3       1 RES1    0.0000
      2 O2         3.8741    3.8474    8.7821 O.2       1 RES1    0.0000
      3 O3         4.7289    8.2999   11.6462 O.2       1 RES1    0.0000
      4 O4         1.2172    8.4152   10.8930 O.2       1 RES1    0.0000
      5 O5         2.7828    8.9119    9.3541 O.3       1 RES1    0.0000
      6 N1         1.6691    5.3427   11.4301 N.2       1 RES1    0.0000
      7 C1        -1.1707    2.8160    8.1117 C.ar      1 RES1    0.0000
      8 H1        -1.8365    2.3236    7.6468 H         1 RES1    0.0000
      9 C2        -1.1766    2.8487    9.5006 C.ar      1 RES1    0.0000
     10 H2        -1.8381    2.3678    9.9842 H         1 RES1    0.0000
     11 C3        -0.2174    3.5821   10.1827 C.ar      1 RES1    0.0000
     12 H3        -0.2301    3.6148   11.1321 H         1 RES1    0.0000
     13 C4         0.7707    4.2749    9.4707 C.ar      1 RES1    0.0000
     14 C5         1.7427    5.1319   10.1637 C.2       1 RES1    0.0000
     15 C6         2.8836    5.8929    9.5028 C.3       1 RES1    0.0000
     16 H4         2.5717    6.3283    8.6579 H         1 RES1    0.0000
     17 C7         4.0682    4.9604    9.2216 C.2       1 RES1    0.0000
     18 C8         5.4401    5.4806    9.4730 C.ar      1 RES1    0.0000
     19 C9         5.6712    6.6213   10.2572 C.ar      1 RES1    0.0000
     20 C10        6.9819    7.0556   10.4839 C.ar      1 RES1    0.0000
     21 H5         7.1436    7.8112   11.0369 H         1 RES1    0.0000
     22 C11        8.0424    6.3813    9.9005 C.ar      1 RES1    0.0000
     23 H6         8.9308    6.6914   10.0335 H         1 RES1    0.0000
     24 C12       -0.1956    3.5002    7.4020 C.ar      1 RES1    0.0000
     25 H7        -0.1971    3.4784    6.4519 H         1 RES1    0.0000
     26 C13        0.7818    4.2168    8.0760 C.ar      1 RES1    0.0000
     27 H8         1.4600    4.6692    7.5877 H         1 RES1    0.0000
     28 C14        3.1241    6.9416   10.5881 C.3       1 RES1    0.0000
     29 C15        7.8141    5.2505    9.1193 C.ar      1 RES1    0.0000
     30 H9         8.5470    4.7946    8.7214 H         1 RES1    0.0000
     31 C16        6.5206    4.7883    8.9206 C.ar      1 RES1    0.0000
     32 H10        6.3701    4.0019    8.4095 H         1 RES1    0.0000
     33 C17        4.5612    7.3672   10.8822 C.2       1 RES1    0.0000
     34 C18        2.2506    8.1832   10.3284 C.2       1 RES1    0.0000
     35 C19        2.0378   10.1067    8.9810 C.3       1 RES1    0.0000
     36 H11        1.1620    9.8482    8.6251 H         1 RES1    0.0000
     37 H12        2.5354   10.6012    8.2968 H         1 RES1    0.0000
     38 H13        1.9148   10.6749    9.7697 H         1 RES1    0.0000
@<TRIPOS>BOND
     1    1    6 1
     2    2   17 2
     3    3   33 2
     4    4   34 2
     5    5   34 1
     6    6   14 2
     7    7    8 1
     8    9    7 ar
     9   10    9 1
    10   11    9 ar
    11   12   11 1
    12   13   11 ar
    13   14   13 1
    14   15   14 1
    15   16   15 1
    16   17   15 1
    17   18   17 1
    18   19   18 ar
    19   20   19 ar
    20   21   20 1
    21   22   20 ar
    22   23   22 1
    23   24    7 ar
    24   25   24 1
    25   26   13 ar
    26   27   26 1
    27   28    1 1
    28   29   22 ar
    29   30   29 1
    30   31   18 ar
    31   32   31 1
    32   33   19 1
    33   34   28 1
    34   35    5 1
    35   36   35 1
    36   37   35 1
    37   38   35 1
    38   15   28 1
    39   24   26 ar
    40   28   33 1
    41   29   31 ar
@<TRIPOS>SUBSTRUCTURE
     1 RES1 1

@<TRIPOS>CRYSIN
  15.3338    9.2168   11.0275  90.0000  97.1060  90.0000  14 1

