# MOL2 file generated by ConQuest
# Please check atom types

@<TRIPOS>MOLECULE
NIGWAD
    62    64     2
SMALL
NO_CHARGES
****
Generated from CSD

@<TRIPOS>ATOM
      1 N1        -0.1689   11.7305    1.9169 N.3       1 RES1    0.0000
      2 H1        -0.0408   12.6961    2.2791 H         1 RES1    0.0000
      3 O1         0.5480    9.5445    4.6959 O.3       1 RES1    0.0000
      4 H2         0.9948    9.9904    5.3281 H         1 RES1    0.0000
      5 O2         2.5875    9.6163    2.7801 O.2       1 RES1    0.0000
      6 C1        -0.6577   10.9336    3.0425 C.3       1 RES1    0.0000
      7 N2         0.6125   10.4549    3.6414 N.am      1 RES1    0.0000
      8 C2         1.5722   10.2908    2.6910 C.2       1 RES1    0.0000
      9 C3         1.1344   11.1443    1.5107 C.3       1 RES1    0.0000
     10 H3         0.9972   10.5570    0.7125 H         1 RES1    0.0000
     11 C4        -1.4798    9.7359    2.5495 C.3       1 RES1    0.0000
     12 H4        -0.9660    9.2443    1.8616 H         1 RES1    0.0000
     13 H5        -1.6494    9.1191    3.3056 H         1 RES1    0.0000
     14 C5        -1.4954   11.7379    4.0148 C.3       1 RES1    0.0000
     15 H6        -1.0022   12.5553    4.2766 H         1 RES1    0.0000
     16 H7        -1.6551   11.2029    4.8320 H         1 RES1    0.0000
     17 C6        -2.8329   12.1298    3.3960 C.3       1 RES1    0.0000
     18 H8        -3.3683   12.6283    4.0621 H         1 RES1    0.0000
     19 H9        -2.6738   12.7285    2.6238 H         1 RES1    0.0000
     20 C7        -2.8057   10.1940    1.9615 C.3       1 RES1    0.0000
     21 H10       -2.6348   10.7657    1.1721 H         1 RES1    0.0000
     22 H11       -3.3230    9.4050    1.6624 H         1 RES1    0.0000
     23 N3        -3.5916   10.9455    2.9471 N.3       1 RES1    0.0000
     24 C8        -4.8538   11.3646    2.3222 C.3       1 RES1    0.0000
     25 H12       -5.3748   10.5726    2.0742 H         1 RES1    0.0000
     26 H13       -4.6617   11.8937    1.5207 H         1 RES1    0.0000
     27 H14       -5.3677   11.9073    2.9551 H         1 RES1    0.0000
     28 C9         2.1548   12.2104    1.1765 C.3       1 RES1    0.0000
     29 H15        1.8000   12.7932    0.4731 H         1 RES1    0.0000
     30 H16        2.9799   11.7852    0.8638 H         1 RES1    0.0000
     31 H17        2.3454   12.7431    1.9765 H         1 RES1    0.0000
     32 N4         3.2169    6.5578    1.7704 N.3       2 RES2    0.0000
     33 H18        3.0231    7.4119    2.2255 H         2 RES2    0.0000
     34 O3         2.4447    4.3051    4.4888 O.3       2 RES2    0.0000
     35 H19        2.0513    4.7875    5.1423 H         2 RES2    0.0000
     36 O4         0.4255    4.4564    2.5487 O.2       2 RES2    0.0000
     37 C10        3.6895    5.7304    2.8822 C.3       2 RES2    0.0000
     38 N5         2.4063    5.2380    3.4491 N.am      2 RES2    0.0000
     39 C11        1.4582    5.1088    2.4854 C.2       2 RES2    0.0000
     40 C12        1.9529    5.9443    1.3067 C.3       2 RES2    0.0000
     41 H20        2.1620    5.3270    0.5497 H         2 RES2    0.0000
     42 C13        4.5230    4.5512    2.3745 C.3       2 RES2    0.0000
     43 H21        4.6834    3.9162    3.1160 H         2 RES2    0.0000
     44 H22        4.0225    4.0738    1.6662 H         2 RES2    0.0000
     45 C14        4.5022    6.5118    3.8972 C.3       2 RES2    0.0000
     46 H23        4.6505    5.9531    4.7018 H         2 RES2    0.0000
     47 H24        3.9983    7.3180    4.1732 H         2 RES2    0.0000
     48 C15        5.8468    6.9281    3.3123 C.3       2 RES2    0.0000
     49 H25        5.6952    7.5486    2.5568 H         2 RES2    0.0000
     50 H26        6.3683    7.4098    4.0028 H         2 RES2    0.0000
     51 C16        5.8586    5.0323    1.8189 C.3       2 RES2    0.0000
     52 H27        6.3849    4.2543    1.5073 H         2 RES2    0.0000
     53 H28        5.6974    5.6244    1.0419 H         2 RES2    0.0000
     54 N6         6.6242    5.7631    2.8395 N.3       2 RES2    0.0000
     55 C17        7.8952    6.2140    2.2586 C.3       2 RES2    0.0000
     56 H29        8.4354    5.4345    2.0110 H         2 RES2    0.0000
     57 H30        8.3816    6.7524    2.9168 H         2 RES2    0.0000
     58 H31        7.7157    6.7545    1.4613 H         2 RES2    0.0000
     59 C18        0.9458    6.9632    0.8256 C.3       2 RES2    0.0000
     60 H32        1.3385    7.4933    0.0996 H         2 RES2    0.0000
     61 H33        0.7005    7.5549    1.5666 H         2 RES2    0.0000
     62 H34        0.1455    6.5020    0.4980 H         2 RES2    0.0000
@<TRIPOS>BOND
     1    1    2 1
     2    3    4 1
     3    5    8 2
     4    6    1 1
     5    7    3 1
     6    8    7 1
     7    9    1 1
     8   10    9 1
     9   11    6 1
    10   12   11 1
    11   13   11 1
    12   14    6 1
    13   15   14 1
    14   16   14 1
    15   17   14 1
    16   18   17 1
    17   19   17 1
    18   20   11 1
    19   21   20 1
    20   22   20 1
    21   23   17 1
    22   24   23 1
    23   25   24 1
    24   26   24 1
    25   27   24 1
    26   28    9 1
    27   29   28 1
    28   30   28 1
    29   31   28 1
    30   32   33 1
    31   34   35 1
    32   36   39 2
    33   37   32 1
    34   38   34 1
    35   39   38 1
    36   40   32 1
    37   41   40 1
    38   42   37 1
    39   43   42 1
    40   44   42 1
    41   45   37 1
    42   46   45 1
    43   47   45 1
    44   48   45 1
    45   49   48 1
    46   50   48 1
    47   51   42 1
    48   52   51 1
    49   53   51 1
    50   54   48 1
    51   55   54 1
    52   56   55 1
    53   57   55 1
    54   58   55 1
    55   59   40 1
    56   60   59 1
    57   61   59 1
    58   62   59 1
    59    6    7 1
    60    8    9 1
    61   20   23 1
    62   37   38 1
    63   39   40 1
    64   51   54 1
@<TRIPOS>SUBSTRUCTURE
     1 RES1 1
     2 RES2 32

@<TRIPOS>CRYSIN
  10.2875   10.4349   19.5939  90.0000 102.1920  90.0000  14 1

