# MOL2 file generated by ConQuest
# Please check atom types

@<TRIPOS>MOLECULE
NIGWEH01
    25    25     1
SMALL
USER_CHARGES
****
Generated from CSD

@<TRIPOS>ATOM
      1 O1         7.4811   -0.4819    3.7955 O.2       1 RES1    0.0000
      2 N1         6.5797    0.2396    4.3005 N.pl3     1 RES1    0.0000
      3 C1         6.7793    1.0479    5.5427 C.3       1 RES1    0.0000
      4 C2         6.7487    0.0619    6.7114 C.3       1 RES1    0.0000
      5 H1         7.5597   -0.4704    6.7059 H         1 RES1    0.0000
      6 H2         5.9793   -0.5216    6.6224 H         1 RES1    0.0000
      7 H3         6.6891    0.5519    7.5465 H         1 RES1    0.0000
      8 C3         8.1036    1.7835    5.4840 C.3       1 RES1    0.0000
      9 H4         8.8307    1.1441    5.5423 H         1 RES1    0.0000
     10 H5         8.1616    2.4053    6.2257 H         1 RES1    0.0000
     11 H6         8.1662    2.2707    4.6479 H         1 RES1    0.0000
     12 C4         5.5234    1.9652    5.4768 C.3       1 RES1    0.0000
     13 C5         5.7704    3.2728    4.7204 C.3       1 RES1    0.0000
     14 H7         4.9533    3.7944    4.7017 H         1 RES1    0.0000
     15 H8         6.0489    3.0736    3.8128 H         1 RES1    0.0000
     16 H9         6.4667    3.7782    5.1687 H         1 RES1    0.0000
     17 C6         4.8653    2.2330    6.8136 C.3       1 RES1    0.0000
     18 H10        4.7108    1.3924    7.2729 H         1 RES1    0.0000
     19 H11        4.0193    2.6853    6.6729 H         1 RES1    0.0000
     20 H12        5.4456    2.7943    7.3520 H         1 RES1    0.0000
     21 N2         4.6181    1.1354    4.6167 N.pl3     1 RES1    1.0000
     22 O2         3.3799    1.3628    4.5100 O.2       1 RES1   -1.0000
     23 C7         5.2669    0.1965    3.8322 C.2       1 RES1    0.0000
     24 N3         4.7458   -0.5007    2.9019 N.3       1 RES1    0.0000
     25 H13        5.3534   -0.9893    2.6371 H         1 RES1    0.0000
@<TRIPOS>BOND
     1    1    2 1
     2    2    3 1
     3    3    4 1
     4    4    5 1
     5    6    4 1
     6    7    4 1
     7    8    3 1
     8    9    8 1
     9   10    8 1
    10   11    8 1
    11   12    3 1
    12   13   12 1
    13   14   13 1
    14   15   13 1
    15   16   13 1
    16   17   12 1
    17   18   17 1
    18   19   17 1
    19   20   17 1
    20   21   12 1
    21   22   21 1
    22   23    2 1
    23   24   23 1
    24   25   24 1
    25   21   23 2
@<TRIPOS>SUBSTRUCTURE
     1 RES1 1

@<TRIPOS>CRYSIN
  11.9750    6.7300   12.2370  90.0000 116.1140  90.0000 231 1

