# MOL2 file generated by ConQuest
# Please check atom types

@<TRIPOS>MOLECULE
NIGWEH
    52    52     2
SMALL
USER_CHARGES
****
Generated from CSD

@<TRIPOS>ATOM
      1 C1        -0.6940    2.3946    4.0876 C.2       1 RES1    0.0000
      2 N1        -1.5867    1.8588    4.9131 N.3       1 RES1    0.0000
      3 H1        -2.1283    2.4097    5.3739 H         1 RES1    0.0000
      4 H2        -1.3610    1.0882    5.2850 H         1 RES1    0.0000
      5 N2         0.4010    1.7500    3.6124 N.3       1 RES1    0.0000
      6 O1         0.7034    0.5392    3.9207 O.2       1 RES1    0.0000
      7 C2         1.0723    2.5309    2.5327 C.3       1 RES1    0.0000
      8 C3         2.5752    2.3860    2.6409 C.3       1 RES1    0.0000
      9 H3         2.8360    1.4679    2.4619 H         1 RES1    0.0000
     10 H4         2.9053    2.6613    3.5069 H         1 RES1    0.0000
     11 H5         3.0388    2.9803    1.9845 H         1 RES1    0.0000
     12 C4         0.5814    1.9475    1.2051 C.3       1 RES1    0.0000
     13 H6         0.7915    0.9953    1.2118 H         1 RES1    0.0000
     14 H7         1.0431    2.4651    0.4478 H         1 RES1    0.0000
     15 H8        -0.4161    2.0855    1.1262 H         1 RES1    0.0000
     16 C5         0.5087    3.9581    2.8164 C.3       1 RES1    0.0000
     17 C6         1.3686    4.7785    3.7703 C.3       1 RES1    0.0000
     18 H9         0.8866    5.5476    4.0809 H         1 RES1    0.0000
     19 H10        2.1899    5.0832    3.3433 H         1 RES1    0.0000
     20 H11        1.6685    4.2011    4.5540 H         1 RES1    0.0000
     21 C7         0.1786    4.7744    1.5756 C.3       1 RES1    0.0000
     22 H12       -0.1795    5.6887    1.8253 H         1 RES1    0.0000
     23 H13       -0.5248    4.3782    1.0614 H         1 RES1    0.0000
     24 H14        0.9706    4.8832    1.0812 H         1 RES1    0.0000
     25 N3        -0.7414    3.6093    3.5610 N.pl3     1 RES1    1.0000
     26 O2        -1.6573    4.5019    3.8602 O.2       1 RES1   -1.0000
     27 C8        -0.9814    0.1230    8.8687 C.2       2 RES2    0.0000
     28 N4        -1.6680    1.2296    9.1334 N.3       2 RES2    0.0000
     29 H15       -1.4259    1.6928    9.8182 H         2 RES2    0.0000
     30 H16       -2.1444    1.6393    8.4769 H         2 RES2    0.0000
     31 N5        -0.1071   -0.4717    9.6822 N.3       2 RES2    0.0000
     32 O3         0.2410   -0.0091   10.8508 O.2       2 RES2    0.0000
     33 C9         0.5876   -1.6252    9.0260 C.3       2 RES2    0.0000
     34 C10        0.7100   -2.7611   10.0256 C.3       2 RES2    0.0000
     35 H17        1.2648   -2.4896   10.7522 H         2 RES2    0.0000
     36 H18        1.1693   -3.4798    9.5668 H         2 RES2    0.0000
     37 H19       -0.2145   -3.1058   10.3395 H         2 RES2    0.0000
     38 C11        1.9598   -1.1381    8.5976 C.3       2 RES2    0.0000
     39 H20        2.4637   -0.8271    9.3868 H         2 RES2    0.0000
     40 H21        1.8777   -0.4207    7.9193 H         2 RES2    0.0000
     41 H22        2.4381   -1.9006    8.2639 H         2 RES2    0.0000
     42 C12       -0.3836   -1.9072    7.8307 C.3       2 RES2    0.0000
     43 C13       -1.4512   -2.9556    8.1375 C.3       2 RES2    0.0000
     44 H23       -2.1026   -2.9495    7.4561 H         2 RES2    0.0000
     45 H24       -1.9413   -2.7772    9.0180 H         2 RES2    0.0000
     46 H25       -1.0391   -3.8220    8.2299 H         2 RES2    0.0000
     47 C14        0.2968   -2.2275    6.5093 C.3       2 RES2    0.0000
     48 H26       -0.3833   -2.4247    5.8382 H         2 RES2    0.0000
     49 H27        0.8894   -3.0002    6.6109 H         2 RES2    0.0000
     50 H28        0.8244   -1.4517    6.1894 H         2 RES2    0.0000
     51 N6        -1.0909   -0.5996    7.7377 N.pl3     2 RES2    1.0000
     52 O4        -1.8994   -0.2926    6.7783 O.2       2 RES2   -1.0000
@<TRIPOS>BOND
     1    1    2 1
     2    2    3 1
     3    4    2 1
     4    5    1 1
     5    6    5 1
     6    7    5 1
     7    8    7 1
     8    9    8 1
     9   10    8 1
    10   11    8 1
    11   12    7 1
    12   13   12 1
    13   14   12 1
    14   15   12 1
    15   16    7 1
    16   17   16 1
    17   18   17 1
    18   19   17 1
    19   20   17 1
    20   21   16 1
    21   22   21 1
    22   23   21 1
    23   24   21 1
    24   25    1 2
    25   26   25 1
    26   27   28 1
    27   28   29 1
    28   30   28 1
    29   31   27 1
    30   32   31 1
    31   33   31 1
    32   34   33 1
    33   35   34 1
    34   36   34 1
    35   37   34 1
    36   38   33 1
    37   39   38 1
    38   40   38 1
    39   41   38 1
    40   42   33 1
    41   43   42 1
    42   44   43 1
    43   45   43 1
    44   46   43 1
    45   47   42 1
    46   48   47 1
    47   49   47 1
    48   50   47 1
    49   51   27 2
    50   52   51 1
    51   16   25 1
    52   42   51 1
@<TRIPOS>SUBSTRUCTURE
     1 RES1 1
     2 RES2 27

@<TRIPOS>CRYSIN
   6.9875   11.8660   12.2636 108.5320 106.3080  95.5370   2 1

