# MOL2 file generated by ConQuest
# Please check atom types

@<TRIPOS>MOLECULE
NIHBOX
    38    39     1
SMALL
USER_CHARGES
****
Generated from CSD

@<TRIPOS>ATOM
      1 O1         2.7574    1.8788    8.9260 O.2       1 RES1   -1.0000
      2 O2        -0.4966   -1.3810    9.6304 O.2       1 RES1    0.0000
      3 O3         4.9350   -0.6351   14.9390 O.2       1 RES1    0.0000
      4 O4         3.3787   -2.0792   15.3235 O.2       1 RES1    0.0000
      5 N1         1.7414    1.1111    8.8874 N.pl3     1 RES1    1.0000
      6 N2        -0.2246    0.3010    8.1025 N.am      1 RES1    0.0000
      7 N3         3.8921   -1.2058   14.6339 N.pl3     1 RES1    0.0000
      8 C1         0.7453    1.3227    7.7758 C.3       1 RES1    0.0000
      9 C2         0.1094   -0.4140    9.2084 C.2       1 RES1    0.0000
     10 C3         1.3588    0.1765    9.7359 C.2       1 RES1    0.0000
     11 C4         0.2265    2.7735    7.9346 C.3       1 RES1    0.0000
     12 C5        -0.2874    3.0479    9.3355 C.3       1 RES1    0.0000
     13 C6        -0.8556    3.1438    6.9171 C.3       1 RES1    0.0000
     14 C7         1.4437    1.0701    6.4543 C.3       1 RES1    0.0000
     15 C8        -1.2778   -0.1614    7.2143 C.3       1 RES1    0.0000
     16 C9         2.0489   -0.1819   10.9757 C.ar      1 RES1    0.0000
     17 C10        3.2939    0.3593   11.3228 C.ar      1 RES1    0.0000
     18 C11        3.8956    0.0243   12.5161 C.ar      1 RES1    0.0000
     19 C12        3.2460   -0.8486   13.3657 C.ar      1 RES1    0.0000
     20 C13        2.0257   -1.4003   13.0606 C.ar      1 RES1    0.0000
     21 C14        1.4194   -1.0664   11.8627 C.ar      1 RES1    0.0000
     22 H1         0.9631    3.3542    7.7860 H         1 RES1    0.0000
     23 H2         0.4218    2.9433    9.9593 H         1 RES1    0.0000
     24 H3        -0.6222    3.9359    9.3820 H         1 RES1    0.0000
     25 H4        -0.9836    2.4352    9.5430 H         1 RES1    0.0000
     26 H5        -1.1297    4.0421    7.0600 H         1 RES1    0.0000
     27 H6        -0.5080    3.0553    6.0380 H         1 RES1    0.0000
     28 H7        -1.6014    2.5645    7.0237 H         1 RES1    0.0000
     29 H8         2.1882    1.6553    6.3726 H         1 RES1    0.0000
     30 H9         0.8374    1.2278    5.7408 H         1 RES1    0.0000
     31 H10        1.7441    0.1704    6.4214 H         1 RES1    0.0000
     32 H11       -1.2403    0.3259    6.3987 H         1 RES1    0.0000
     33 H12       -1.1584   -1.0866    7.0362 H         1 RES1    0.0000
     34 H13       -2.1227   -0.0243    7.6272 H         1 RES1    0.0000
     35 H14        3.7274    0.9623   10.7295 H         1 RES1    0.0000
     36 H15        4.7418    0.3876   12.7498 H         1 RES1    0.0000
     37 H16        1.6047   -2.0032   13.6629 H         1 RES1    0.0000
     38 H17        0.5742   -1.4380   11.6404 H         1 RES1    0.0000
@<TRIPOS>BOND
     1    1    5 1
     2    2    9 2
     3    3    7 2
     4    4    7 2
     5    5    8 1
     6    6    8 1
     7    7   19 1
     8    8   11 1
     9    9    6 1
    10   10    5 2
    11   11   12 1
    12   12   23 1
    13   13   11 1
    14   14    8 1
    15   15    6 1
    16   16   10 1
    17   17   16 ar
    18   18   17 ar
    19   19   18 ar
    20   20   19 ar
    21   21   16 ar
    22   22   11 1
    23   24   12 1
    24   25   12 1
    25   26   13 1
    26   27   13 1
    27   28   13 1
    28   29   14 1
    29   30   14 1
    30   31   14 1
    31   32   15 1
    32   33   15 1
    33   34   15 1
    34   35   17 1
    35   36   18 1
    36   37   20 1
    37   38   21 1
    38    9   10 1
    39   20   21 ar
@<TRIPOS>SUBSTRUCTURE
     1 RES1 1

@<TRIPOS>CRYSIN
   6.3318   10.1320   11.5890 101.7800  92.8900  80.5100   2 1

