# MOL2 file generated by ConQuest
# Please check atom types

@<TRIPOS>MOLECULE
NIHBEN
    39    41     1
SMALL
USER_CHARGES
****
Generated from CSD

@<TRIPOS>ATOM
      1 N1         1.2225    0.0839    3.1387 N.pl3     1 RES1    1.0000
      2 O1         1.2053   -0.5528    4.2578 O.2       1 RES1   -1.0000
      3 C1         2.0207    0.5337    0.9028 C.ar      1 RES1    0.0000
      4 C2         2.0200   -0.2562    2.1369 C.2       1 RES1    0.0000
      5 C3         0.9290    2.0987   -0.5672 C.ar      1 RES1    0.0000
      6 H1         0.2096    2.6560   -0.7597 H         1 RES1    0.0000
      7 C4         2.9573   -2.3748    1.2364 C.ar      1 RES1    0.0000
      8 H2         2.4364   -2.2445    0.4783 H         1 RES1    0.0000
      9 C5         2.8986   -1.4413    2.2715 C.ar      1 RES1    0.0000
     10 C6         0.9418    1.3942    0.6233 C.ar      1 RES1    0.0000
     11 C7         0.3170    1.3044    3.0613 C.3       1 RES1    0.0000
     12 C8         3.0710    0.4527   -0.0187 C.ar      1 RES1    0.0000
     13 H3         3.7991   -0.0964    0.1653 H         1 RES1    0.0000
     14 C9        -0.1666    1.4436    1.6222 C.3       1 RES1    0.0000
     15 H4        -0.7953    0.7295    1.4309 H         1 RES1    0.0000
     16 H5        -0.6384    2.2857    1.5273 H         1 RES1    0.0000
     17 C10        3.7694   -3.4856    1.3122 C.ar      1 RES1    0.0000
     18 H6         3.7793   -4.0936    0.6082 H         1 RES1    0.0000
     19 C11        4.5329   -2.7804    3.4494 C.ar      1 RES1    0.0000
     20 H7         5.0696   -2.9062    4.1981 H         1 RES1    0.0000
     21 C12        4.5755   -3.7130    2.4250 C.ar      1 RES1    0.0000
     22 C13        3.0448    1.1756   -1.1969 C.ar      1 RES1    0.0000
     23 H8         3.7525    1.1116   -1.7970 H         1 RES1    0.0000
     24 C14       -0.8720    1.0814    3.9824 C.3       1 RES1    0.0000
     25 H9        -1.3383    0.2849    3.7159 H         1 RES1    0.0000
     26 H10       -1.4664    1.8337    3.9265 H         1 RES1    0.0000
     27 H11       -0.5632    0.9842    4.8850 H         1 RES1    0.0000
     28 C15        3.7129   -1.6644    3.3880 C.ar      1 RES1    0.0000
     29 H12        3.7036   -1.0593    4.0938 H         1 RES1    0.0000
     30 C16        5.4459   -4.9350    2.5199 C.3       1 RES1    0.0000
     31 H13        4.8958   -5.7109    2.6511 H         1 RES1    0.0000
     32 H14        6.0489   -4.8415    3.2613 H         1 RES1    0.0000
     33 H15        5.9492   -5.0329    1.7084 H         1 RES1    0.0000
     34 C17        1.9690    1.9920   -1.4822 C.ar      1 RES1    0.0000
     35 H16        1.9405    2.4668   -2.2811 H         1 RES1    0.0000
     36 C18        1.1457    2.4970    3.5221 C.3       1 RES1    0.0000
     37 H17        1.4235    2.3615    4.4304 H         1 RES1    0.0000
     38 H18        0.6177    3.2964    3.4640 H         1 RES1    0.0000
     39 H19        1.9208    2.5838    2.9601 H         1 RES1    0.0000
@<TRIPOS>BOND
     1    1    2 1
     2    3    4 1
     3    4    1 2
     4    5    6 1
     5    7    8 1
     6    9    4 1
     7   10    3 ar
     8   11    1 1
     9   12    3 ar
    10   13   12 1
    11   14   10 1
    12   15   14 1
    13   16   14 1
    14   17    7 ar
    15   18   17 1
    16   19   20 1
    17   21   17 ar
    18   22   12 ar
    19   23   22 1
    20   24   11 1
    21   25   24 1
    22   26   24 1
    23   27   24 1
    24   28    9 ar
    25   29   28 1
    26   30   21 1
    27   31   30 1
    28   32   30 1
    29   33   30 1
    30   34    5 ar
    31   35   34 1
    32   36   11 1
    33   37   36 1
    34   38   36 1
    35   39   36 1
    36    5   10 ar
    37    7    9 ar
    38   11   14 1
    39   19   21 ar
    40   19   28 ar
    41   22   34 ar
@<TRIPOS>SUBSTRUCTURE
     1 RES1 1

@<TRIPOS>CRYSIN
   9.9880    7.3613   20.0550  90.0000 101.0700  90.0000  14 1

