# MOL2 file generated by ConQuest
# Please check atom types

@<TRIPOS>MOLECULE
NIHKOF
    48    51     1
SMALL
NO_CHARGES
****
Generated from CSD

@<TRIPOS>ATOM
      1 N1         9.8055    2.6357   -1.1583 N.pl3     1 RES1    0.0000
      2 O1        10.0162    2.7213    0.0326 O.2       1 RES1    0.0000
      3 O2        10.3356    3.3671   -1.9730 O.2       1 RES1    0.0000
      4 C1         5.6218    4.2240    3.1162 C.3       1 RES1    0.0000
      5 C2         7.0670    4.6137    2.7028 C.3       1 RES1    0.0000
      6 H1         7.0333    5.3491    2.0407 H         1 RES1    0.0000
      7 H2         7.5610    4.9383    3.4962 H         1 RES1    0.0000
      8 C3         7.7989    3.4232    2.1014 C.3       1 RES1    0.0000
      9 H3         7.8566    2.7059    2.7806 H         1 RES1    0.0000
     10 H4         8.7232    3.6977    1.8739 H         1 RES1    0.0000
     11 C4         7.1279    2.8629    0.8460 C.3       1 RES1    0.0000
     12 H5         7.3144    3.4491    0.0576 H         1 RES1    0.0000
     13 C5         5.6237    2.7156    1.0603 C.3       1 RES1    0.0000
     14 C6         4.8781    3.7663    1.8446 C.3       1 RES1    0.0000
     15 H6         3.9935    3.4061    2.1034 H         1 RES1    0.0000
     16 H7         4.7257    4.5530    1.2634 H         1 RES1    0.0000
     17 C7         5.6004    3.1280    4.1845 C.2       1 RES1    0.0000
     18 O3         4.7483    2.2800    4.2628 O.2       1 RES1    0.0000
     19 O4         6.6445    3.2195    5.0212 O.3       1 RES1    0.0000
     20 C8         6.7475    2.2160    6.0585 C.3       1 RES1    0.0000
     21 H8         5.9796    2.2917    6.6629 H         1 RES1    0.0000
     22 H9         7.5758    2.3526    6.5638 H         1 RES1    0.0000
     23 H10        6.7559    1.3253    5.6511 H         1 RES1    0.0000
     24 C9         4.9180    5.4689    3.6529 C.2       1 RES1    0.0000
     25 O5         4.7593    6.4735    3.0073 O.2       1 RES1    0.0000
     26 O6         4.4896    5.3274    4.9061 O.3       1 RES1    0.0000
     27 C10        3.8200    6.4788    5.4743 C.3       1 RES1    0.0000
     28 H11        4.4312    7.2452    5.4732 H         1 RES1    0.0000
     29 H12        3.5496    6.2780    6.3950 H         1 RES1    0.0000
     30 H13        3.0275    6.6928    4.9406 H         1 RES1    0.0000
     31 C11        5.3928    1.2509    1.2079 C.3       1 RES1    0.0000
     32 H14        4.7235    0.9516    1.8881 H         1 RES1    0.0000
     33 O7         6.6121    0.5379    1.1252 O.3       1 RES1    0.0000
     34 C12        7.6183    1.4098    0.5741 C.3       1 RES1    0.0000
     35 H15        8.4592    1.2712    1.0987 H         1 RES1    0.0000
     36 C13        4.8768    1.9547   -0.0222 C.3       1 RES1    0.0000
     37 H16        3.9000    2.0980   -0.0980 H         1 RES1    0.0000
     38 H17        5.3437    1.7909   -0.8794 H         1 RES1    0.0000
     39 C14        7.9096    1.0178   -0.8773 C.ar      1 RES1    0.0000
     40 C15        8.9180    1.5790   -1.6748 C.ar      1 RES1    0.0000
     41 C16        9.1723    1.1523   -2.9656 C.ar      1 RES1    0.0000
     42 H18        9.8517    1.5728   -3.4800 H         1 RES1    0.0000
     43 C17        8.4455    0.1216   -3.5023 C.ar      1 RES1    0.0000
     44 H19        8.6369   -0.1945   -4.3776 H         1 RES1    0.0000
     45 C18        7.4353   -0.4519   -2.7624 C.ar      1 RES1    0.0000
     46 H20        6.9131   -1.1529   -3.1344 H         1 RES1    0.0000
     47 C19        7.1787   -0.0053   -1.4757 C.ar      1 RES1    0.0000
     48 H21        6.4780   -0.4143   -0.9825 H         1 RES1    0.0000
@<TRIPOS>BOND
     1    1    2 2
     2    3    1 2
     3    4    5 1
     4    5    6 1
     5    7    5 1
     6    8    5 1
     7    9    8 1
     8   10    8 1
     9   11    8 1
    10   12   11 1
    11   13   11 1
    12   14    4 1
    13   15   14 1
    14   16   14 1
    15   17    4 1
    16   18   17 2
    17   19   17 1
    18   20   19 1
    19   21   20 1
    20   22   20 1
    21   23   20 1
    22   24    4 1
    23   25   24 2
    24   26   24 1
    25   27   26 1
    26   28   27 1
    27   29   27 1
    28   30   27 1
    29   31   13 1
    30   32   31 1
    31   33   31 1
    32   34   11 1
    33   35   34 1
    34   36   13 1
    35   37   36 1
    36   38   36 1
    37   39   34 1
    38   40    1 1
    39   41   40 ar
    40   42   41 1
    41   43   41 ar
    42   44   43 1
    43   45   43 ar
    44   46   45 1
    45   47   39 ar
    46   48   47 1
    47   13   14 1
    48   31   36 1
    49   33   34 1
    50   39   40 ar
    51   45   47 ar
@<TRIPOS>SUBSTRUCTURE
     1 RES1 1

@<TRIPOS>CRYSIN
   9.0680    9.8783   10.5679  81.4370  73.9210  77.7610   2 1

