# MOL2 file generated by ConQuest
# Please check atom types

@<TRIPOS>MOLECULE
NIHKEV
    96   102     2
SMALL
NO_CHARGES
****
Generated from CSD

@<TRIPOS>ATOM
      1 N1         4.3457    8.5636   12.1341 N.pl3     1 RES1    0.0000
      2 O1         3.6831    8.7323   13.1376 O.2       1 RES1    0.0000
      3 O2         3.8588    8.3192   11.0404 O.2       1 RES1    0.0000
      4 C1         3.6639   11.3402   16.3890 C.3       1 RES1    0.0000
      5 C2         4.3705   10.0462   15.9569 C.3       1 RES1    0.0000
      6 H1         3.7807    9.6383   15.3189 H         1 RES1    0.0000
      7 H2         4.5026    9.5109   16.7387 H         1 RES1    0.0000
      8 C3         5.7592   10.4473   15.4031 C.3       1 RES1    0.0000
      9 C4         5.9107   11.9025   15.8748 C.3       1 RES1    0.0000
     10 C5         4.8280   12.2348   16.8537 C.3       1 RES1    0.0000
     11 H3         4.5364   13.1610   16.8961 H         1 RES1    0.0000
     12 H4         5.0135   11.9127   17.7064 H         1 RES1    0.0000
     13 C6         6.8437    9.5243   15.9344 C.3       1 RES1    0.0000
     14 H5         7.7169    9.8223   15.6044 H         1 RES1    0.0000
     15 H6         6.6740    8.6093   15.6275 H         1 RES1    0.0000
     16 H7         6.8404    9.5463   16.9147 H         1 RES1    0.0000
     17 C7         2.8447   11.9424   15.2463 C.2       1 RES1    0.0000
     18 O3         2.1263   11.2703   14.5696 O.2       1 RES1    0.0000
     19 O4         2.9974   13.2333   15.1247 O.3       1 RES1    0.0000
     20 C8         2.1436   13.8757   14.1367 C.3       1 RES1    0.0000
     21 H8         2.1808   13.3718   13.2971 H         1 RES1    0.0000
     22 H9         2.4542   14.7914   13.9839 H         1 RES1    0.0000
     23 H10        1.2206   13.8941   14.4654 H         1 RES1    0.0000
     24 C9         2.6892   11.1059   17.5394 C.2       1 RES1    0.0000
     25 O5         2.6567   10.1387   18.2322 O.2       1 RES1    0.0000
     26 O6         1.9003   12.1545   17.7016 O.3       1 RES1    0.0000
     27 C10        0.9344   12.0825   18.7748 C.3       1 RES1    0.0000
     28 H11        0.2070   11.4782   18.5197 H         1 RES1    0.0000
     29 H12        0.5715   12.9756   18.9487 H         1 RES1    0.0000
     30 H13        1.3706   11.7442   19.5846 H         1 RES1    0.0000
     31 C11        6.2753   12.7108   14.6826 C.3       1 RES1    0.0000
     32 H14        5.8802   13.5247   14.4361 H         1 RES1    0.0000
     33 O7         6.5278   11.8420   13.6015 O.3       1 RES1    0.0000
     34 C12        5.7743   10.6362   13.8351 C.3       1 RES1    0.0000
     35 H15        4.9090   10.7917   13.5317 H         1 RES1    0.0000
     36 C13        7.2449   12.5991   15.8171 C.3       1 RES1    0.0000
     37 H16        8.0329   12.1292   15.6075 H         1 RES1    0.0000
     38 H17        7.2784   13.3605   16.3760 H         1 RES1    0.0000
     39 C14        6.4525    9.5548   13.0268 C.ar      1 RES1    0.0000
     40 C15        5.8006    8.6096   12.2409 C.ar      1 RES1    0.0000
     41 C16        6.4596    7.6374   11.5024 C.ar      1 RES1    0.0000
     42 H18        5.9700    7.0284   10.9621 H         1 RES1    0.0000
     43 C17        7.8295    7.5678   11.5619 C.ar      1 RES1    0.0000
     44 H19        8.2970    6.8855   11.0948 H         1 RES1    0.0000
     45 C18        8.5207    8.5040   12.3107 C.ar      1 RES1    0.0000
     46 H20        9.4694    8.4650   12.3526 H         1 RES1    0.0000
     47 C19        7.8458    9.4940   12.9968 C.ar      1 RES1    0.0000
     48 H21        8.3458   10.1534   13.4623 H         1 RES1    0.0000
     49 N2         5.6586    7.9252    4.7363 N.pl3     2 RES2    0.0000
     50 O8         5.0885    8.2677    5.7572 O.2       2 RES2    0.0000
     51 O9         5.1324    7.2256    3.8925 O.2       2 RES2    0.0000
     52 C20        4.9023   11.6334    8.6268 C.3       2 RES2    0.0000
     53 C21        5.2558   10.2722    7.9902 C.3       2 RES2    0.0000
     54 H22        4.6503   10.0529    7.3755 H         2 RES2    0.0000
     55 H23        5.2625    9.6071    8.7614 H         2 RES2    0.0000
     56 C22        6.6869   10.3926    7.3892 C.3       2 RES2    0.0000
     57 C23        7.1297   11.7830    7.8645 C.3       2 RES2    0.0000
     58 C24        6.2703   12.2184    9.0055 C.3       2 RES2    0.0000
     59 H24        6.2324   13.1808    9.1271 H         2 RES2    0.0000
     60 H25        6.5474   11.8419    9.8154 H         2 RES2    0.0000
     61 C25        7.5695    9.2750    7.9215 C.3       2 RES2    0.0000
     62 H26        8.4882    9.4047    7.6054 H         2 RES2    0.0000
     63 H27        7.2331    8.4126    7.6008 H         2 RES2    0.0000
     64 H28        7.5572    9.2873    8.9018 H         2 RES2    0.0000
     65 C26        4.1990   12.5287    7.6190 C.2       2 RES2    0.0000
     66 O10        3.8862   12.2076    6.5220 O.2       2 RES2    0.0000
     67 O11        3.9844   13.7347    8.1263 O.3       2 RES2    0.0000
     68 C27        3.2953   14.6673    7.2653 C.3       2 RES2    0.0000
     69 H29        3.8315   14.8254    6.4603 H         2 RES2    0.0000
     70 H30        3.1618   15.5132    7.7412 H         2 RES2    0.0000
     71 H31        2.4254   14.2946    7.0097 H         2 RES2    0.0000
     72 C28        4.0143   11.4540    9.8496 C.2       2 RES2    0.0000
     73 O12        4.4055   11.4360   10.9734 O.2       2 RES2    0.0000
     74 O13        2.7497   11.2814    9.4938 O.3       2 RES2    0.0000
     75 C29        1.8098   11.1130   10.5789 C.3       2 RES2    0.0000
     76 H32        2.1633   10.4591   11.2183 H         2 RES2    0.0000
     77 H33        0.9549   10.7932   10.2229 H         2 RES2    0.0000
     78 H34        1.6759   11.9721   11.0300 H         2 RES2    0.0000
     79 C30        7.3705   12.6008    6.6557 C.3       2 RES2    0.0000
     80 H35        7.0316   13.4879    6.5267 H         2 RES2    0.0000
     81 O14        7.2668   11.8151    5.4968 O.3       2 RES2    0.0000
     82 C31        6.7117   10.5192    5.8215 C.3       2 RES2    0.0000
     83 H36        5.8175   10.4874    5.4926 H         2 RES2    0.0000
     84 C32        8.5068   12.3071    7.5800 C.3       2 RES2    0.0000
     85 H37        8.8046   12.9784    8.1533 H         2 RES2    0.0000
     86 H38        9.1684   11.7527    7.2566 H         2 RES2    0.0000
     87 C33        7.5551    9.4914    5.0884 C.ar      2 RES2    0.0000
     88 C34        7.0537    8.3055    4.5555 C.ar      2 RES2    0.0000
     89 C35        7.8588    7.3868    3.8868 C.ar      2 RES2    0.0000
     90 H39        7.4777    6.6010    3.5141 H         2 RES2    0.0000
     91 C36        9.1827    7.6207    3.7717 C.ar      2 RES2    0.0000
     92 H40        9.7416    6.9817    3.3459 H         2 RES2    0.0000
     93 C37        9.7245    8.7834    4.2705 C.ar      2 RES2    0.0000
     94 H41       10.6558    8.9462    4.1824 H         2 RES2    0.0000
     95 C38        8.9142    9.7191    4.9028 C.ar      2 RES2    0.0000
     96 H42        9.2962   10.5313    5.2148 H         2 RES2    0.0000
@<TRIPOS>BOND
     1    1    2 2
     2    3    1 2
     3    4    5 1
     4    5    6 1
     5    7    5 1
     6    8    5 1
     7    9    8 1
     8   10    4 1
     9   11   10 1
    10   12   10 1
    11   13    8 1
    12   14   13 1
    13   15   13 1
    14   16   13 1
    15   17    4 1
    16   18   17 2
    17   19   17 1
    18   20   19 1
    19   21   20 1
    20   22   20 1
    21   23   20 1
    22   24    4 1
    23   25   24 2
    24   26   24 1
    25   27   26 1
    26   28   27 1
    27   29   27 1
    28   30   27 1
    29   31    9 1
    30   32   31 1
    31   33   31 1
    32   34    8 1
    33   35   34 1
    34   36    9 1
    35   37   36 1
    36   38   36 1
    37   39   34 1
    38   40    1 1
    39   41   40 ar
    40   42   41 1
    41   43   41 ar
    42   44   43 1
    43   45   43 ar
    44   46   45 1
    45   47   39 ar
    46   48   47 1
    47   49   50 2
    48   51   49 2
    49   52   53 1
    50   53   54 1
    51   55   53 1
    52   56   53 1
    53   57   56 1
    54   58   52 1
    55   59   58 1
    56   60   58 1
    57   61   56 1
    58   62   61 1
    59   63   61 1
    60   64   61 1
    61   65   52 1
    62   66   65 2
    63   67   65 1
    64   68   67 1
    65   69   68 1
    66   70   68 1
    67   71   68 1
    68   72   52 1
    69   73   72 2
    70   74   72 1
    71   75   74 1
    72   76   75 1
    73   77   75 1
    74   78   75 1
    75   79   57 1
    76   80   79 1
    77   81   79 1
    78   82   56 1
    79   83   82 1
    80   84   57 1
    81   85   84 1
    82   86   84 1
    83   87   82 1
    84   88   49 1
    85   89   88 ar
    86   90   89 1
    87   91   89 ar
    88   92   91 1
    89   93   91 ar
    90   94   93 1
    91   95   87 ar
    92   96   95 1
    93    9   10 1
    94   31   36 1
    95   33   34 1
    96   39   40 ar
    97   45   47 ar
    98   57   58 1
    99   79   84 1
   100   81   82 1
   101   87   88 ar
   102   93   95 ar
@<TRIPOS>SUBSTRUCTURE
     1 RES1 1
     2 RES2 49

@<TRIPOS>CRYSIN
   8.1973   14.1531   15.6051  90.0000  98.5150  90.0000   4 1

