# MOL2 file generated by ConQuest
# Please check atom types

@<TRIPOS>MOLECULE
NIHKIZ
   110   118     2
SMALL
NO_CHARGES
****
Generated from CSD

@<TRIPOS>ATOM
      1 C1         7.3184    8.8924   14.4582 C.3       1 RES1    0.0000
      2 C2         8.1298    7.5449   14.5813 C.3       1 RES1    0.0000
      3 H1         7.7439    6.9376   13.9710 H         1 RES1    0.0000
      4 C3         9.5502    7.8839   14.0436 C.3       1 RES1    0.0000
      5 H2        10.2085    7.5761   14.6786 H         1 RES1    0.0000
      6 C4         9.5856    9.4168   13.9239 C.3       1 RES1    0.0000
      7 C5         8.3708   10.0042   14.5922 C.3       1 RES1    0.0000
      8 H3         8.5602   10.1007   15.5760 H         1 RES1    0.0000
      9 H4         8.0519   10.8507   14.1516 H         1 RES1    0.0000
     10 C6         6.6412    8.9714   13.0932 C.2       1 RES1    0.0000
     11 O1         6.7604    8.1924   12.1997 O.2       1 RES1    0.0000
     12 O2         5.8867   10.0827   13.0131 O.3       1 RES1    0.0000
     13 C7         5.2213   10.2974   11.7390 C.3       1 RES1    0.0000
     14 H5         5.8769   10.5955   11.0743 H         1 RES1    0.0000
     15 H6         4.5288   10.9832   11.8443 H         1 RES1    0.0000
     16 H7         4.8096    9.4598   11.4394 H         1 RES1    0.0000
     17 C8         6.2445    8.9794   15.5437 C.2       1 RES1    0.0000
     18 O3         6.2836    9.6910   16.5058 O.2       1 RES1    0.0000
     19 O4         5.2698    8.0961   15.2944 O.3       1 RES1    0.0000
     20 C9         4.3003    7.9288   16.3561 C.3       1 RES1    0.0000
     21 H8         4.7635    7.6975   17.1876 H         1 RES1    0.0000
     22 H9         3.6773    7.2106   16.1190 H         1 RES1    0.0000
     23 H10        3.8040    8.7650   16.4801 H         1 RES1    0.0000
     24 C10        8.1155    7.0093   16.0075 C.ar      1 RES1    0.0000
     25 C11        8.8711    7.5856   17.0182 C.ar      1 RES1    0.0000
     26 H11        9.4547    8.3070   16.8146 H         1 RES1    0.0000
     27 C12        8.7823    7.1173   18.3320 C.ar      1 RES1    0.0000
     28 H12        9.3040    7.5171   19.0183 H         1 RES1    0.0000
     29 C13        7.9271    6.0656   18.6280 C.ar      1 RES1    0.0000
     30 H13        7.8649    5.7391   19.5175 H         1 RES1    0.0000
     31 C14        7.1754    5.4989   17.6403 C.ar      1 RES1    0.0000
     32 H14        6.5858    4.7845   17.8514 H         1 RES1    0.0000
     33 C15        7.2638    5.9565   16.3274 C.ar      1 RES1    0.0000
     34 H15        6.7405    5.5480   15.6477 H         1 RES1    0.0000
     35 C16       10.0917    9.7232   12.5646 C.3       1 RES1    0.0000
     36 H16        9.6817   10.3230   11.9359 H         1 RES1    0.0000
     37 C17        9.8776    7.3956   12.6078 C.3       1 RES1    0.0000
     38 H17        9.0797    7.2338   12.1178 H         1 RES1    0.0000
     39 C18       10.9059   10.1178   13.7559 C.3       1 RES1    0.0000
     40 H18       10.9486   10.9540   14.0055 H         1 RES1    0.0000
     41 H19       11.7054    9.6198   13.9325 H         1 RES1    0.0000
     42 C19       10.8782    6.2536   12.5415 C.ar      1 RES1    0.0000
     43 C20       10.5677    4.9316   12.2541 C.ar      1 RES1    0.0000
     44 C21       11.5380    3.9249   12.1288 C.ar      1 RES1    0.0000
     45 H20       11.2873    3.0349   11.9107 H         1 RES1    0.0000
     46 C22       12.8569    4.2522   12.3275 C.ar      1 RES1    0.0000
     47 H21       13.5286    3.5858   12.2479 H         1 RES1    0.0000
     48 C23       13.2059    5.5506   12.6421 C.ar      1 RES1    0.0000
     49 H22       14.1177    5.7698   12.7975 H         1 RES1    0.0000
     50 C24       12.2334    6.5356   12.7329 C.ar      1 RES1    0.0000
     51 H23       12.4955    7.4270   12.9302 H         1 RES1    0.0000
     52 O5        10.4825    8.5214   11.9241 O.3       1 RES1    0.0000
     53 N1         9.1813    4.4838   12.0542 N.pl3     1 RES1    0.0000
     54 O6         8.9845    3.6467   11.1911 O.2       1 RES1    0.0000
     55 O7         8.3222    4.9505   12.7483 O.2       1 RES1    0.0000
     56 C25        8.9148    0.6852    6.6264 C.3       2 RES2    0.0000
     57 C26        9.5763    2.1098    6.5951 C.3       2 RES2    0.0000
     58 H24        9.0938    2.7080    7.2484 H         2 RES2    0.0000
     59 C27       11.0106    1.8814    7.1542 C.3       2 RES2    0.0000
     60 H25       11.6610    2.2766    6.5872 H         2 RES2    0.0000
     61 C28       11.1664    0.3593    7.2298 C.3       2 RES2    0.0000
     62 C29       10.0877   -0.2895    6.4185 C.3       2 RES2    0.0000
     63 H26       10.3362   -0.2842    5.4668 H         2 RES2    0.0000
     64 H27        9.8767   -1.1573    6.7054 H         2 RES2    0.0000
     65 C30        8.2941    0.4394    8.0077 C.2       2 RES2    0.0000
     66 O8         8.2303    1.2083    8.9057 O.2       2 RES2    0.0000
     67 O9         7.8444   -0.8147    8.0781 O.3       2 RES2    0.0000
     68 C31        7.3572   -1.2209    9.3804 C.3       2 RES2    0.0000
     69 H28        7.8133   -0.7032   10.0760 H         2 RES2    0.0000
     70 H29        7.5354   -2.1747    9.5131 H         2 RES2    0.0000
     71 H30        6.3920   -1.0587    9.4335 H         2 RES2    0.0000
     72 C32        7.8248    0.5584    5.5743 C.2       2 RES2    0.0000
     73 O10        7.9000   -0.0662    4.5621 O.2       2 RES2    0.0000
     74 O11        6.7656    1.3087    5.9182 O.3       2 RES2    0.0000
     75 C33        5.7335    1.4127    4.9106 C.3       2 RES2    0.0000
     76 H31        6.1304    1.7132    4.0662 H         2 RES2    0.0000
     77 H32        5.0570    2.0591    5.2013 H         2 RES2    0.0000
     78 H33        5.3144    0.5371    4.7805 H         2 RES2    0.0000
     79 C34        9.5575    2.6967    5.1913 C.ar      2 RES2    0.0000
     80 C35       10.4008    2.2522    4.1770 C.ar      2 RES2    0.0000
     81 H34       11.0699    1.6059    4.3716 H         2 RES2    0.0000
     82 C36       10.2748    2.7446    2.8804 C.ar      2 RES2    0.0000
     83 H35       10.8473    2.4279    2.1918 H         2 RES2    0.0000
     84 C37        9.3076    3.7016    2.5967 C.ar      2 RES2    0.0000
     85 H36        9.2199    4.0400    1.7139 H         2 RES2    0.0000
     86 C38        8.4813    4.1548    3.5870 C.ar      2 RES2    0.0000
     87 H37        7.8143    4.8009    3.3852 H         2 RES2    0.0000
     88 C39        8.6095    3.6764    4.8921 C.ar      2 RES2    0.0000
     89 H38        8.0497    4.0195    5.5796 H         2 RES2    0.0000
     90 C40       11.4783    0.0421    8.6610 C.3       2 RES2    0.0000
     91 H39       11.0675   -0.6824    9.1202 H         2 RES2    0.0000
     92 O12       11.6670    1.2302    9.3939 O.3       2 RES2    0.0000
     93 C41       11.2404    2.3755    8.6172 C.3       2 RES2    0.0000
     94 H40       10.3909    2.7140    9.0538 H         2 RES2    0.0000
     95 C42       12.4957   -0.2666    7.5918 C.3       2 RES2    0.0000
     96 H41       12.6602   -1.2053    7.3811 H         2 RES2    0.0000
     97 H42       13.2745    0.3179    7.5537 H         2 RES2    0.0000
     98 C43       12.3276    3.4276    8.7530 C.ar      2 RES2    0.0000
     99 C44       12.0985    4.8063    8.8430 C.ar      2 RES2    0.0000
    100 C45       13.1436    5.7042    9.0950 C.ar      2 RES2    0.0000
    101 H43       12.9615    6.6329    9.1706 H         2 RES2    0.0000
    102 C46       14.4204    5.2501    9.2344 C.ar      2 RES2    0.0000
    103 H44       15.1223    5.8610    9.4229 H         2 RES2    0.0000
    104 C47       14.6920    3.9259    9.1029 C.ar      2 RES2    0.0000
    105 H45       15.5893    3.6162    9.1587 H         2 RES2    0.0000
    106 C48       13.6576    3.0263    8.8897 C.ar      2 RES2    0.0000
    107 H46       13.8624    2.1001    8.8348 H         2 RES2    0.0000
    108 N2        10.7604    5.3607    8.6536 N.pl3     2 RES2    0.0000
    109 O13       10.4889    6.4055    9.2277 O.2       2 RES2    0.0000
    110 O14        9.9945    4.7904    7.9015 O.2       2 RES2    0.0000
@<TRIPOS>BOND
     1    1    2 1
     2    2    3 1
     3    4    2 1
     4    5    4 1
     5    6    4 1
     6    7    1 1
     7    8    7 1
     8    9    7 1
     9   10    1 1
    10   11   10 2
    11   12   10 1
    12   13   12 1
    13   14   13 1
    14   15   13 1
    15   16   13 1
    16   17    1 1
    17   18   17 2
    18   19   17 1
    19   20   19 1
    20   21   20 1
    21   22   20 1
    22   23   20 1
    23   24    2 1
    24   25   24 ar
    25   26   25 1
    26   27   25 ar
    27   28   27 1
    28   29   27 ar
    29   30   29 1
    30   31   29 ar
    31   32   31 1
    32   33   24 ar
    33   34   33 1
    34   35    6 1
    35   36   35 1
    36   37    4 1
    37   38   37 1
    38   39    6 1
    39   40   39 1
    40   41   39 1
    41   42   37 1
    42   43   42 ar
    43   44   43 ar
    44   45   44 1
    45   46   44 ar
    46   47   46 1
    47   48   46 ar
    48   49   48 1
    49   50   42 ar
    50   51   50 1
    51   52   35 1
    52   53   43 1
    53   54   53 2
    54   55   53 2
    55   56   57 1
    56   57   58 1
    57   59   57 1
    58   60   59 1
    59   61   59 1
    60   62   56 1
    61   63   62 1
    62   64   62 1
    63   65   56 1
    64   66   65 2
    65   67   65 1
    66   68   67 1
    67   69   68 1
    68   70   68 1
    69   71   68 1
    70   72   56 1
    71   73   72 2
    72   74   72 1
    73   75   74 1
    74   76   75 1
    75   77   75 1
    76   78   75 1
    77   79   57 1
    78   80   79 ar
    79   81   80 1
    80   82   80 ar
    81   83   82 1
    82   84   82 ar
    83   85   84 1
    84   86   84 ar
    85   87   86 1
    86   88   79 ar
    87   89   88 1
    88   90   61 1
    89   91   90 1
    90   92   90 1
    91   93   59 1
    92   94   93 1
    93   95   61 1
    94   96   95 1
    95   97   95 1
    96   98   93 1
    97   99   98 ar
    98  100   99 ar
    99  101  100 1
   100  102  100 ar
   101  103  102 1
   102  104  102 ar
   103  105  104 1
   104  106   98 ar
   105  107  106 1
   106  108   99 1
   107  109  108 2
   108  110  108 2
   109    6    7 1
   110   31   33 ar
   111   35   39 1
   112   37   52 1
   113   48   50 ar
   114   61   62 1
   115   86   88 ar
   116   90   95 1
   117   92   93 1
   118  104  106 ar
@<TRIPOS>SUBSTRUCTURE
     1 RES1 1
     2 RES2 56

@<TRIPOS>CRYSIN
   8.5155    9.7995   13.5216  87.9120  79.1870  87.9870   1 1

