# MOL2 file generated by ConQuest
# Please check atom types

@<TRIPOS>MOLECULE
NIHKUL
    37    41     1
SMALL
NO_CHARGES
****
Generated from CSD

@<TRIPOS>ATOM
      1 C1         5.6566   17.9547   -0.8688 C.ar      1 RES1    0.0000
      2 C2         6.1611   17.2662   -1.9690 C.ar      1 RES1    0.0000
      3 C3         6.6101   15.8858   -1.5644 C.3       1 RES1    0.0000
      4 H1         7.5972   15.8424   -1.5011 H         1 RES1    0.0000
      5 H2         6.3015   15.2093   -2.2189 H         1 RES1    0.0000
      6 C4         5.9597   15.6463   -0.1787 C.3       1 RES1    0.0000
      7 H3         5.0984   15.1479   -0.2773 H         1 RES1    0.0000
      8 C5         5.7007   17.0652    0.3125 C.3       1 RES1    0.0000
      9 C6         5.2342   19.2641   -0.9851 C.ar      1 RES1    0.0000
     10 H4         4.8985   19.7328   -0.2304 H         1 RES1    0.0000
     11 C7         5.3107   19.8813   -2.2290 C.ar      1 RES1    0.0000
     12 H5         5.0207   20.7817   -2.3270 H         1 RES1    0.0000
     13 C8         5.8026   19.2010   -3.3213 C.ar      1 RES1    0.0000
     14 H6         5.8434   19.6345   -4.1648 H         1 RES1    0.0000
     15 C9         6.2349   17.8980   -3.2048 C.ar      1 RES1    0.0000
     16 H7         6.5796   17.4362   -3.9604 H         1 RES1    0.0000
     17 C10        6.5797   17.2424    1.5089 C.3       1 RES1    0.0000
     18 H8         7.0756   18.1061    1.5949 H         1 RES1    0.0000
     19 O1         7.2832   16.0593    1.7886 O.3       1 RES1    0.0000
     20 C11        6.8432   14.9926    0.9144 C.3       1 RES1    0.0000
     21 H9         7.6482   14.5968    0.4716 H         1 RES1    0.0000
     22 C12        5.0928   17.2779    1.6728 C.3       1 RES1    0.0000
     23 H10        4.6699   18.1533    1.8571 H         1 RES1    0.0000
     24 H11        4.6582   16.5041    2.1100 H         1 RES1    0.0000
     25 C13        6.1630   13.9015    1.7303 C.ar      1 RES1    0.0000
     26 C14        5.6159   12.7300    1.1903 C.ar      1 RES1    0.0000
     27 C15        4.9841   11.7561    1.9475 C.ar      1 RES1    0.0000
     28 H12        4.6049   10.9911    1.5312 H         1 RES1    0.0000
     29 C16        4.9163   11.9169    3.3196 C.ar      1 RES1    0.0000
     30 H13        4.5039   11.2513    3.8582 H         1 RES1    0.0000
     31 C17        5.4491   13.0453    3.8993 C.ar      1 RES1    0.0000
     32 H14        5.4023   13.1566    4.8416 H         1 RES1    0.0000
     33 C18        6.0545   14.0234    3.1169 C.ar      1 RES1    0.0000
     34 H15        6.4056   14.7975    3.5391 H         1 RES1    0.0000
     35 N1         5.6951   12.4543   -0.2590 N.pl3     1 RES1    0.0000
     36 O2         4.8308   11.7495   -0.7601 O.2       1 RES1    0.0000
     37 O3         6.6396   12.9232   -0.8893 O.2       1 RES1    0.0000
@<TRIPOS>BOND
     1    1    2 ar
     2    2    3 1
     3    3    4 1
     4    5    3 1
     5    6    3 1
     6    7    6 1
     7    8    1 1
     8    9    1 ar
     9   10    9 1
    10   11    9 ar
    11   12   11 1
    12   13   11 ar
    13   14   13 1
    14   15    2 ar
    15   16   15 1
    16   17    8 1
    17   18   17 1
    18   19   17 1
    19   20    6 1
    20   21   20 1
    21   22    8 1
    22   23   22 1
    23   24   22 1
    24   25   20 1
    25   26   25 ar
    26   27   26 ar
    27   28   27 1
    28   29   27 ar
    29   30   29 1
    30   31   29 ar
    31   32   31 1
    32   33   25 ar
    33   34   33 1
    34   35   26 1
    35   36   35 2
    36   37   35 2
    37    6    8 1
    38   13   15 ar
    39   17   22 1
    40   19   20 1
    41   31   33 ar
@<TRIPOS>SUBSTRUCTURE
     1 RES1 1

@<TRIPOS>CRYSIN
   8.1289   20.4867    8.4067  90.0000  94.8580  90.0000 231 1

