# MOL2 file generated by ConQuest
# Please check atom types

@<TRIPOS>MOLECULE
NIJPEB
    34    28     2
SMALL
NO_CHARGES
****
Generated from CSD

@<TRIPOS>ATOM
      1 O1         1.5329    1.9472   -0.4896 O.3       1 RES1    0.0000
      2 N1         3.4091    3.0684    2.4003 N.2       1 RES1    0.0000
      3 C1         1.0570    3.0659    2.0012 C.3       1 RES1    0.0000
      4 O2         0.0310    1.2487    1.1175 O.3       1 RES1    0.0000
      5 C2         2.4763    2.6784    1.6375 C.2       1 RES1    0.0000
      6 O3         0.3542    1.8877    2.4028 O.3       1 RES1    0.0000
      7 C3         2.6229    1.7979    0.4312 C.3       1 RES1    0.0000
      8 O4         0.3790    3.4448    0.8229 O.3       1 RES1    0.0000
      9 C4         0.3115    2.2311    0.1078 C.3       1 RES1    0.0000
     10 O5         4.6400    2.5475    1.9601 O.3       1 RES1    0.0000
     11 C5        -0.7632    2.2389   -0.9323 C.3       1 RES1    0.0000
     12 O6        -0.4511    4.2827    3.3820 O.3       1 RES1    0.0000
     13 C6         0.9448    4.1071    3.0817 C.3       1 RES1    0.0000
     14 O7         0.1669    5.3644    5.2434 O.2       1 RES1    0.0000
     15 C7        -0.7055    4.9694    4.5233 C.2       1 RES1    0.0000
     16 C8        -2.1642    5.1789    4.7175 C.3       1 RES1    0.0000
     17 H1         3.4386    2.0112   -0.0140 H         1 RES1    0.0000
     18 H2         2.6721    0.8883    0.7118 H         1 RES1    0.0000
     19 H3         5.2396    2.8041    2.4571 H         1 RES1    0.0000
     20 H4         5.1577    3.1613    1.7922 Du        2 SUP2    0.0000
     21 H5        -1.6073    2.4352   -0.5184 H         1 RES1    0.0000
     22 H6        -0.8066    1.3777   -1.3545 H         1 RES1    0.0000
     23 H7        -0.5663    2.9088   -1.5914 H         1 RES1    0.0000
     24 H8        -0.3798    2.0462   -1.7906 Du        2 SUP2    0.0000
     25 H9        -1.1801    3.1033   -0.9554 Du        2 SUP2    0.0000
     26 H10       -1.4207    1.5730   -0.7184 Du        2 SUP2    0.0000
     27 H11        1.4265    3.8160    3.8799 H         1 RES1    0.0000
     28 H12        1.3318    4.9503    2.7764 H         1 RES1    0.0000
     29 H13       -2.6455    4.7616    3.9992 H         1 RES1    0.0000
     30 H14       -2.3544    6.1201    4.7258 H         1 RES1    0.0000
     31 H15       -2.4353    4.7900    5.5528 H         1 RES1    0.0000
     32 H16       -2.3113    5.6863    5.5190 Du        2 SUP2    0.0000
     33 H17       -2.6023    4.3278    4.7924 Du        2 SUP2    0.0000
     34 H18       -2.5216    5.6575    3.9663 Du        2 SUP2    0.0000
@<TRIPOS>BOND
     1    1    7 1
     2    2    5 2
     3    3    5 1
     4    4    6 1
     5    5    7 1
     6    6    3 1
     7    7   17 1
     8    8    3 1
     9    9    1 1
    10   10    2 1
    11   11    9 1
    12   12   13 1
    13   13    3 1
    14   14   15 2
    15   15   12 1
    16   16   15 1
    17   18    7 1
    18   19   10 1
    19   21   11 1
    20   22   11 1
    21   23   11 1
    22   27   13 1
    23   28   13 1
    24   29   16 1
    25   30   16 1
    26   31   16 1
    27    4    9 1
    28    8    9 1
@<TRIPOS>SUBSTRUCTURE
     1 RES1 1
     2 SUP2 20

@<TRIPOS>CRYSIN
   7.2522    8.8749    8.9885 109.5340  95.0220 111.2350   2 1

