# MOL2 file generated by ConQuest
# Please check atom types

@<TRIPOS>MOLECULE
NIKPEE
    33    35     1
SMALL
NO_CHARGES
****
Generated from CSD

@<TRIPOS>ATOM
      1 C1         1.2265    7.5829   18.8550 C.ar      1 RES1    0.0000
      2 H1         1.2336    8.5295   18.7706 H         1 RES1    0.0000
      3 C2         1.2711    6.7684   17.7251 C.ar      1 RES1    0.0000
      4 H2         1.3293    7.1880   16.8748 H         1 RES1    0.0000
      5 N1         1.2370    5.4325   17.7655 N.ar      1 RES1    0.0000
      6 C3         1.1302    4.8966   18.9796 C.ar      1 RES1    0.0000
      7 C4         1.1147    5.5947   20.2253 C.ar      1 RES1    0.0000
      8 C5         1.1716    6.9859   20.0990 C.ar      1 RES1    0.0000
      9 N2         1.1884    7.8522   21.2843 N.pl3     1 RES1    0.0000
     10 O1         1.1347    9.0652   21.1201 O.2       1 RES1    0.0000
     11 O2         1.2698    7.3047   22.3832 O.2       1 RES1    0.0000
     12 C6         1.0191    4.6122   21.2513 C.2       1 RES1    0.0000
     13 H3         0.9958    4.7682   22.1886 H         1 RES1    0.0000
     14 C7         0.9674    3.3977   20.6210 C.2       1 RES1    0.0000
     15 H4         0.8982    2.5615   21.0662 H         1 RES1    0.0000
     16 N3         1.0303    3.5525   19.2496 N.pl3     1 RES1    0.0000
     17 C8         1.0598    2.4584   18.2942 C.3       1 RES1    0.0000
     18 H5         0.9738    1.5940   18.7888 H         1 RES1    0.0000
     19 C9         0.0103    2.4996   17.1860 C.3       1 RES1    0.0000
     20 H6        -0.1758    3.4285   16.8972 H         1 RES1    0.0000
     21 H7        -0.8349    2.0695   17.4716 H         1 RES1    0.0000
     22 C10        0.7005    1.6990   16.0831 C.3       1 RES1    0.0000
     23 H8         0.3761    1.9689   15.1760 H         1 RES1    0.0000
     24 O3         0.5609    0.2962   16.2903 O.3       1 RES1    0.0000
     25 H9        -0.2029    0.0512   16.0386 H         1 RES1    0.0000
     26 C11        2.1835    2.0419   16.2730 C.3       1 RES1    0.0000
     27 H10        2.7277    1.2126   16.1462 H         1 RES1    0.0000
     28 O4         2.3223    2.4912   17.6421 O.3       1 RES1    0.0000
     29 C12        2.7089    3.1202   15.3485 C.3       1 RES1    0.0000
     30 H11        3.6175    3.3800   15.6428 H         1 RES1    0.0000
     31 H12        2.7832    2.7490   14.4331 H         1 RES1    0.0000
     32 O5         1.8847    4.2856   15.3091 O.3       1 RES1    0.0000
     33 H13        1.7667    4.5716   16.0894 H         1 RES1    0.0000
@<TRIPOS>BOND
     1    1    2 1
     2    3    1 ar
     3    4    3 1
     4    5    3 ar
     5    6    5 ar
     6    7    6 ar
     7    8    1 ar
     8    9    8 1
     9   10    9 2
    10   11    9 2
    11   12    7 1
    12   13   12 1
    13   14   12 2
    14   15   14 1
    15   16    6 1
    16   17   16 1
    17   18   17 1
    18   19   17 1
    19   20   19 1
    20   21   19 1
    21   22   19 1
    22   23   22 1
    23   24   22 1
    24   25   24 1
    25   26   22 1
    26   27   26 1
    27   28   17 1
    28   29   26 1
    29   30   29 1
    30   31   29 1
    31   32   29 1
    32   33   32 1
    33    7    8 ar
    34   14   16 1
    35   26   28 1
@<TRIPOS>SUBSTRUCTURE
     1 RES1 1

@<TRIPOS>CRYSIN
   6.4621    9.1450   20.2969  90.0000  90.0000  90.0000  19 1

