# MOL2 file generated by ConQuest
# Please check atom types

@<TRIPOS>MOLECULE
NIKWIO
    90    90     3
SMALL
NO_CHARGES
****
Generated from CSD

@<TRIPOS>ATOM
      1 O1        -2.1703    8.6077   15.5035 O.2       1 RES1    0.0000
      2 O2        -3.0859    5.7594   12.2869 O.2       1 RES1    0.0000
      3 O3        -3.1233    3.5875   12.2397 O.2       1 RES1    0.0000
      4 O4        -0.9091    2.1709   17.9789 O.3       1 RES1    0.0000
      5 O5        -1.1776   -0.0245   18.4146 O.2       1 RES1    0.0000
      6 N1        -1.4203    6.9644   16.9057 N.am      1 RES1    0.0000
      7 H1        -1.0243    6.8339   17.6573 H         1 RES1    0.0000
      8 N2        -2.9254    4.6620   12.8275 N.pl3     1 RES1    0.0000
      9 C1        -1.9564    3.3722   16.1948 C.ar      1 RES1    0.0000
     10 C2        -1.6511    4.5721   16.8375 C.ar      1 RES1    0.0000
     11 H2        -1.3623    4.5559   17.7217 H         1 RES1    0.0000
     12 C3        -1.7707    5.8037   16.1771 C.ar      1 RES1    0.0000
     13 C4        -2.2050    5.8412   14.8490 C.ar      1 RES1    0.0000
     14 H3        -2.3024    6.6466   14.3927 H         1 RES1    0.0000
     15 C5        -2.4858    4.6204   14.2359 C.ar      1 RES1    0.0000
     16 C6        -2.3756    3.3859   14.8605 C.ar      1 RES1    0.0000
     17 H4        -2.5734    2.5973   14.4091 H         1 RES1    0.0000
     18 C7        -1.8855    2.0514   16.9250 C.3       1 RES1    0.0000
     19 H5        -2.7530    1.8309   17.2994 H         1 RES1    0.0000
     20 H6        -1.6280    1.3455   16.3110 H         1 RES1    0.0000
     21 C8        -0.6815    1.0425   18.6926 C.2       1 RES1    0.0000
     22 C9         0.2614    1.3146   19.8162 C.3       1 RES1    0.0000
     23 H7         0.3879    0.5131   20.3288 H         1 RES1    0.0000
     24 H8        -0.1022    2.0012   20.3798 H         1 RES1    0.0000
     25 H9         1.1051    1.6031   19.4633 H         1 RES1    0.0000
     26 C10       -1.6375    8.2782   16.5554 C.2       1 RES1    0.0000
     27 C11       -1.1454    9.2779   17.5744 C.3       1 RES1    0.0000
     28 H10       -0.1880    9.3333   17.5315 H         1 RES1    0.0000
     29 H11       -1.4103    8.9948   18.4524 H         1 RES1    0.0000
     30 H12       -1.5255   10.1401   17.3877 H         1 RES1    0.0000
     31 O6         1.6594    8.5805   15.8149 O.2       2 RES2    0.0000
     32 O7         2.9707    5.7513   18.8831 O.2       2 RES2    0.0000
     33 O8         2.9519    3.5834   18.9790 O.2       2 RES2    0.0000
     34 O9         0.5435    2.2011   13.2304 O.3       2 RES2    0.0000
     35 O10        0.3830   -0.0245   12.9369 O.2       2 RES2    0.0000
     36 N3         1.0488    6.9171   14.3647 N.am      2 RES2    0.0000
     37 H13        0.7274    6.7785   13.5795 H         2 RES2    0.0000
     38 N4         2.7267    4.6481   18.3872 N.pl3     2 RES2    0.0000
     39 C12        1.3463    3.3275   15.1862 C.ar      2 RES2    0.0000
     40 C13        1.0913    4.5182   14.5164 C.ar      2 RES2    0.0000
     41 H14        0.7363    4.4921   13.6574 H         2 RES2    0.0000
     42 C14        1.3609    5.7643   15.1143 C.ar      2 RES2    0.0000
     43 C15        1.9083    5.8131   16.3959 C.ar      2 RES2    0.0000
     44 H15        2.1036    6.6231   16.8097 H         2 RES2    0.0000
     45 C16        2.1507    4.5904   17.0313 C.ar      2 RES2    0.0000
     46 C17        1.8841    3.3499   16.4756 C.ar      2 RES2    0.0000
     47 H16        2.0565    2.5632   16.9414 H         2 RES2    0.0000
     48 C18        1.0562    1.9791   14.5586 C.3       2 RES2    0.0000
     49 H17        1.8678    1.4498   14.5170 H         2 RES2    0.0000
     50 H18        0.4040    1.4988   15.0905 H         2 RES2    0.0000
     51 C19        0.2369    1.0977   12.5128 C.2       2 RES2    0.0000
     52 C20       -0.2933    1.4794   11.1708 C.3       2 RES2    0.0000
     53 H19       -0.5308    0.6876   10.6833 H         2 RES2    0.0000
     54 H20        0.3803    1.9629   10.6863 H         2 RES2    0.0000
     55 H21       -1.0700    2.0331   11.2793 H         2 RES2    0.0000
     56 C21        1.1938    8.2362   14.7334 C.2       2 RES2    0.0000
     57 C22        0.7325    9.2287   13.6963 C.3       2 RES2    0.0000
     58 H22        0.8326   10.1189   14.0393 H         2 RES2    0.0000
     59 H23       -0.1908    9.0672   13.4882 H         2 RES2    0.0000
     60 H24        1.2621    9.1310   12.9011 H         2 RES2    0.0000
     61 O11        4.0351    8.5639   12.7502 O.2       3 RES3    0.0000
     62 O12        2.3452    5.7639    9.8577 O.2       3 RES3    0.0000
     63 O13        2.4435    3.5996    9.7060 O.2       3 RES3    0.0000
     64 O14        4.8494    2.1000   15.3674 O.3       3 RES3    0.0000
     65 O15        4.8964   -0.1369   15.5756 O.2       3 RES3    0.0000
     66 N5         4.5911    6.9048   14.2281 N.am      3 RES3    0.0000
     67 H25        4.9075    6.7700   15.0156 H         3 RES3    0.0000
     68 N6         2.6609    4.6588   10.3076 N.pl3     3 RES3    0.0000
     69 C23        4.3270    3.3126   13.3682 C.ar      3 RES3    0.0000
     70 C24        4.6091    4.5044   14.0378 C.ar      3 RES3    0.0000
     71 H26        5.0301    4.4729   14.8659 H         3 RES3    0.0000
     72 C25        4.2697    5.7509   13.4865 C.ar      3 RES3    0.0000
     73 C26        3.6208    5.8041   12.2476 C.ar      3 RES3    0.0000
     74 H27        3.3842    6.6167   11.8604 H         3 RES3    0.0000
     75 C27        3.3432    4.5919   11.6172 C.ar      3 RES3    0.0000
     76 C28        3.6710    3.3439   12.1322 C.ar      3 RES3    0.0000
     77 H28        3.4631    2.5611   11.6747 H         3 RES3    0.0000
     78 C29        4.7494    1.9705   13.9316 C.3       3 RES3    0.0000
     79 H29        4.0946    1.2923   13.7023 H         3 RES3    0.0000
     80 H30        5.6062    1.7074   13.5600 H         3 RES3    0.0000
     81 C30        4.9244    0.9567   16.0802 C.2       3 RES3    0.0000
     82 C31        5.0034    1.2299   17.5484 C.3       3 RES3    0.0000
     83 H31        4.1373    1.1092   17.9433 H         3 RES3    0.0000
     84 H32        5.2974    2.1332   17.6902 H         3 RES3    0.0000
     85 H33        5.6276    0.6238   17.9538 H         3 RES3    0.0000
     86 C32        4.4622    8.2243   13.8489 C.2       3 RES3    0.0000
     87 C33        4.8889    9.2132   14.9051 C.3       3 RES3    0.0000
     88 H34        4.8876   10.0976   14.5334 H         3 RES3    0.0000
     89 H35        5.7732    8.9948   15.2088 H         3 RES3    0.0000
     90 H36        4.2781    9.1757   15.6446 H         3 RES3    0.0000
@<TRIPOS>BOND
     1    1   26 2
     2    2    8 2
     3    3    8 2
     4    4   18 1
     5    5   21 2
     6    6    7 1
     7    8   15 1
     8    9   10 ar
     9   10   11 1
    10   12    6 1
    11   13   12 ar
    12   14   13 1
    13   15   13 ar
    14   16    9 ar
    15   17   16 1
    16   18    9 1
    17   19   18 1
    18   20   18 1
    19   21    4 1
    20   22   21 1
    21   23   22 1
    22   24   22 1
    23   25   22 1
    24   26    6 1
    25   27   26 1
    26   28   27 1
    27   29   27 1
    28   30   27 1
    29   31   56 2
    30   32   38 2
    31   33   38 2
    32   34   48 1
    33   35   51 2
    34   36   37 1
    35   38   45 1
    36   39   40 ar
    37   40   41 1
    38   42   36 1
    39   43   42 ar
    40   44   43 1
    41   45   43 ar
    42   46   39 ar
    43   47   46 1
    44   48   39 1
    45   49   48 1
    46   50   48 1
    47   51   34 1
    48   52   51 1
    49   53   52 1
    50   54   52 1
    51   55   52 1
    52   56   36 1
    53   57   56 1
    54   58   57 1
    55   59   57 1
    56   60   57 1
    57   61   86 2
    58   62   68 2
    59   63   68 2
    60   64   78 1
    61   65   81 2
    62   66   67 1
    63   68   75 1
    64   69   70 ar
    65   70   71 1
    66   72   66 1
    67   73   72 ar
    68   74   73 1
    69   75   73 ar
    70   76   69 ar
    71   77   76 1
    72   78   69 1
    73   79   78 1
    74   80   78 1
    75   81   64 1
    76   82   81 1
    77   83   82 1
    78   84   82 1
    79   85   82 1
    80   86   66 1
    81   87   86 1
    82   88   87 1
    83   89   87 1
    84   90   87 1
    85   10   12 ar
    86   15   16 ar
    87   40   42 ar
    88   45   46 ar
    89   70   72 ar
    90   75   76 ar
@<TRIPOS>SUBSTRUCTURE
     1 RES1 1
     2 RES2 31
     3 RES3 61

@<TRIPOS>CRYSIN
  10.5303   21.2894   15.5410  90.0000 105.5080  90.0000 231 1

