# MOL2 file generated by ConQuest
# Please check atom types

@<TRIPOS>MOLECULE
NIKZAI
    39    41     1
SMALL
NO_CHARGES
****
Generated from CSD

@<TRIPOS>ATOM
      1 N1         2.2062    3.5798    3.3870 N.3       1 RES1    0.0000
      2 O1         3.2972    4.3025    2.6799 O.3       1 RES1    0.0000
      3 O2         3.6416    5.0003    0.6014 O.2       1 RES1    0.0000
      4 O3         0.2942    1.2493    3.7563 O.3       1 RES1    0.0000
      5 O4        -1.1106    0.4116    2.2172 O.3       1 RES1    0.0000
      6 C1         2.9526    4.3877    1.3742 C.2       1 RES1    0.0000
      7 C2         1.7037    3.6071    1.1390 C.3       1 RES1    0.0000
      8 H1         1.7487    3.1119    0.3054 H         1 RES1    0.0000
      9 H2         0.9247    4.1843    1.1249 H         1 RES1    0.0000
     10 C3         1.6782    2.6810    2.3262 C.3       1 RES1    0.0000
     11 H3         2.2829    1.9229    2.1844 H         1 RES1    0.0000
     12 C4         0.2853    2.1930    2.7017 C.3       1 RES1    0.0000
     13 H4        -0.2580    2.9632    2.9697 H         1 RES1    0.0000
     14 C5        -0.4122    1.4776    1.5628 C.3       1 RES1    0.0000
     15 H5        -1.0290    2.0692    1.1031 H         1 RES1    0.0000
     16 H6         0.2303    1.1327    0.9224 H         1 RES1    0.0000
     17 C6        -0.2390    0.0016    3.2813 C.3       1 RES1    0.0000
     18 C7        -1.1026   -0.6086    4.3564 C.3       1 RES1    0.0000
     19 H7        -0.5494   -0.8972    5.0856 H         1 RES1    0.0000
     20 H8        -1.5762   -1.3618    3.9965 H         1 RES1    0.0000
     21 H9        -1.7321    0.0450    4.6696 H         1 RES1    0.0000
     22 C8         0.8427   -0.8972    2.8139 C.3       1 RES1    0.0000
     23 H10        1.3963   -1.1439    3.5587 H         1 RES1    0.0000
     24 H11        1.3748   -0.4429    2.1564 H         1 RES1    0.0000
     25 H12        0.4581   -1.6858    2.4260 H         1 RES1    0.0000
     26 C9         2.8908    2.8667    4.4671 C.3       1 RES1    0.0000
     27 H13        3.6704    2.4149    4.1071 H         1 RES1    0.0000
     28 H14        2.2973    2.1930    4.8316 H         1 RES1    0.0000
     29 C10        3.3223    3.8057    5.5717 C.ar      1 RES1    0.0000
     30 C11        2.4646    4.7848    6.0470 C.ar      1 RES1    0.0000
     31 H15        1.6354    4.9014    5.6419 H         1 RES1    0.0000
     32 C12        2.8173    5.5863    7.1034 C.ar      1 RES1    0.0000
     33 H16        2.2268    6.2342    7.4150 H         1 RES1    0.0000
     34 C13        4.0513    5.4279    7.7063 C.ar      1 RES1    0.0000
     35 H17        4.2929    5.9633    8.4277 H         1 RES1    0.0000
     36 C14        4.9200    4.4729    7.2296 C.ar      1 RES1    0.0000
     37 H18        5.7531    4.3660    7.6284 H         1 RES1    0.0000
     38 C15        4.5658    3.6746    6.1669 C.ar      1 RES1    0.0000
     39 H19        5.1663    3.0420    5.8460 H         1 RES1    0.0000
@<TRIPOS>BOND
     1    1    2 1
     2    2    6 1
     3    3    6 2
     4    4   12 1
     5    5   14 1
     6    6    7 1
     7    7    8 1
     8    9    7 1
     9   10    1 1
    10   11   10 1
    11   12   10 1
    12   13   12 1
    13   14   12 1
    14   15   14 1
    15   16   14 1
    16   17    4 1
    17   18   17 1
    18   19   18 1
    19   20   18 1
    20   21   18 1
    21   22   17 1
    22   23   22 1
    23   24   22 1
    24   25   22 1
    25   26    1 1
    26   27   26 1
    27   28   26 1
    28   29   26 1
    29   30   29 ar
    30   31   30 1
    31   32   30 ar
    32   33   32 1
    33   34   32 ar
    34   35   34 1
    35   36   34 ar
    36   37   36 1
    37   38   29 ar
    38   39   38 1
    39    5   17 1
    40    7   10 1
    41   36   38 ar
@<TRIPOS>SUBSTRUCTURE
     1 RES1 1

@<TRIPOS>CRYSIN
   6.0110    8.0390   15.5980  90.0000  92.6800  90.0000   4 1

