# MOL2 file generated by ConQuest
# Please check atom types

@<TRIPOS>MOLECULE
NIMBEQ
    58    62     1
SMALL
NO_CHARGES
****
Generated from CSD

@<TRIPOS>ATOM
      1 O1        -2.1217   13.2740    6.3792 O.3       1 RES1    0.0000
      2 O2        -0.7580   13.6026    4.6580 O.2       1 RES1    0.0000
      3 O3         8.0487   14.1559    5.5115 O.2       1 RES1    0.0000
      4 O4         8.4536   13.4182    7.4797 O.2       1 RES1    0.0000
      5 N1         1.3750   13.3050    6.3508 N.2       1 RES1    0.0000
      6 N2         2.1951   13.0633    7.4435 N.pl3     1 RES1    0.0000
      7 N3        -0.0853   15.6809    8.8078 N.2       1 RES1    0.0000
      8 N4         0.0578   12.9114    8.1302 N.3       1 RES1    0.0000
      9 N5         7.6675   13.7545    6.5900 N.pl3     1 RES1    0.0000
     10 C1         0.1793   13.2384    6.7917 C.2       1 RES1    0.0000
     11 C2         1.4315   12.9160    8.7147 C.3       1 RES1    0.0000
     12 C3         1.6121   14.1295    9.6277 C.3       1 RES1    0.0000
     13 C4         1.1653   15.3895    8.9423 C.2       1 RES1    0.0000
     14 C5        -1.0620   14.7665    9.2617 C.ar      1 RES1    0.0000
     15 C6        -2.1650   15.2562    9.9574 C.ar      1 RES1    0.0000
     16 C7        -3.1621   14.3852   10.3596 C.ar      1 RES1    0.0000
     17 C8        -3.0873   13.0462   10.0777 C.ar      1 RES1    0.0000
     18 C9        -2.0142   12.5534    9.3613 C.ar      1 RES1    0.0000
     19 C10       -1.0150   13.4104    8.9423 C.ar      1 RES1    0.0000
     20 C11        1.6886   11.6235    9.4621 C.3       1 RES1    0.0000
     21 C12        2.1753   16.2683    8.3190 C.ar      1 RES1    0.0000
     22 C13        3.4813   16.3473    8.7936 C.ar      1 RES1    0.0000
     23 C14        4.4243   17.1113    8.1211 C.ar      1 RES1    0.0000
     24 C15        4.0847   17.7855    6.9857 C.ar      1 RES1    0.0000
     25 C16        2.8000   17.7173    6.4969 C.ar      1 RES1    0.0000
     26 C17        1.8408   16.9796    7.1655 C.ar      1 RES1    0.0000
     27 C18       -0.9470   13.3980    5.8206 C.2       1 RES1    0.0000
     28 C19       -3.2831   13.4910    5.5024 C.3       1 RES1    0.0000
     29 C20       -4.4828   13.4120    6.3417 C.3       1 RES1    0.0000
     30 C21        3.5439   13.3004    7.2728 C.ar      1 RES1    0.0000
     31 C22        4.0137   13.8986    6.1102 C.ar      1 RES1    0.0000
     32 C23        5.3509   14.0551    5.8930 C.ar      1 RES1    0.0000
     33 C24        6.2549   13.6413    6.8422 C.ar      1 RES1    0.0000
     34 C25        5.8183   13.0710    8.0021 C.ar      1 RES1    0.0000
     35 C26        4.4740   12.9021    8.2285 C.ar      1 RES1    0.0000
     36 H1         2.5416   14.2117    9.8617 H         1 RES1    0.0000
     37 H2         1.0930   14.0040   10.4255 H         1 RES1    0.0000
     38 H3        -3.3125   12.8106    4.8222 H         1 RES1    0.0000
     39 H4        -3.2262   14.3542    5.0873 H         1 RES1    0.0000
     40 H5         1.1600   11.6049   10.2652 H         1 RES1    0.0000
     41 H6         1.4472   10.8765    8.9074 H         1 RES1    0.0000
     42 H7         2.6186   11.5631    9.6910 H         1 RES1    0.0000
     43 H8        -5.2625   13.5515    5.7999 H         1 RES1    0.0000
     44 H9        -4.5306   12.5487    6.7568 H         1 RES1    0.0000
     45 H10       -4.4413   14.0908    7.0206 H         1 RES1    0.0000
     46 H11       -2.2335   16.1954   10.1592 H         1 RES1    0.0000
     47 H12       -3.9193   14.7246   10.8445 H         1 RES1    0.0000
     48 H13       -3.7842   12.4526   10.3764 H         1 RES1    0.0000
     49 H14       -1.9588   11.6127    9.1544 H         1 RES1    0.0000
     50 H15        3.3880   14.2070    5.4494 H         1 RES1    0.0000
     51 H16        5.6623   14.4550    5.0757 H         1 RES1    0.0000
     52 H17        6.4585   12.7951    8.6655 H         1 RES1    0.0000
     53 H18        4.1758   12.5007    9.0509 H         1 RES1    0.0000
     54 H19        3.7334   15.8669    9.5889 H         1 RES1    0.0000
     55 H20        5.3223   17.1656    8.4573 H         1 RES1    0.0000
     56 H21        4.7494   18.3109    6.5253 H         1 RES1    0.0000
     57 H22        2.5683   18.1838    5.6887 H         1 RES1    0.0000
     58 H23        0.9394   16.9564    6.8357 H         1 RES1    0.0000
@<TRIPOS>BOND
     1    1   27 1
     2    2   27 2
     3    3    9 2
     4    4    9 2
     5    5    6 1
     6    6   11 1
     7    7   13 2
     8    8   10 1
     9    9   33 1
    10   10    5 2
    11   11    8 1
    12   12   11 1
    13   13   12 1
    14   14    7 1
    15   15   14 ar
    16   16   15 ar
    17   17   16 ar
    18   18   17 ar
    19   19    8 1
    20   20   11 1
    21   21   13 1
    22   22   21 ar
    23   23   22 ar
    24   24   23 ar
    25   25   24 ar
    26   26   21 ar
    27   27   10 1
    28   28    1 1
    29   29   28 1
    30   30    6 1
    31   31   30 ar
    32   32   31 ar
    33   33   32 ar
    34   34   33 ar
    35   35   30 ar
    36   36   12 1
    37   37   12 1
    38   38   28 1
    39   39   28 1
    40   40   20 1
    41   41   20 1
    42   42   20 1
    43   43   29 1
    44   44   29 1
    45   45   29 1
    46   46   15 1
    47   47   16 1
    48   48   17 1
    49   49   18 1
    50   50   31 1
    51   51   32 1
    52   52   34 1
    53   53   35 1
    54   54   22 1
    55   55   23 1
    56   56   24 1
    57   57   25 1
    58   58   26 1
    59   14   19 ar
    60   18   19 ar
    61   25   26 ar
    62   34   35 ar
@<TRIPOS>SUBSTRUCTURE
     1 RES1 1

@<TRIPOS>CRYSIN
  22.7110   15.4980   14.6420  90.0000 117.9700  90.0000  15 1

