# MOL2 file generated by ConQuest
# Please check atom types

@<TRIPOS>MOLECULE
NIMFOE
    14    14     1
SMALL
NO_CHARGES
****
Generated from CSD

@<TRIPOS>ATOM
      1 O1         4.2761    0.9305   -0.3372 O.2       1 RES1    0.0000
      2 O2         3.2218   -0.4149    3.8621 O.2       1 RES1    0.0000
      3 O3         6.6646    2.2061   -0.5599 O.2       1 RES1    0.0000
      4 O4         7.6504    2.8032    1.2506 O.2       1 RES1    0.0000
      5 N1         3.7712    0.3141    1.7780 N.am      1 RES1    0.0000
      6 N2         5.0838    0.8685    3.5894 N.am      1 RES1    0.0000
      7 N3         6.7355    2.2459    0.6593 N.pl3     1 RES1    0.0000
      8 C1         4.5800    0.9489    0.8449 C.2       1 RES1    0.0000
      9 C2         3.9653    0.2113    3.1289 C.2       1 RES1    0.0000
     10 C3         5.9323    1.5131    2.7861 C.2       1 RES1    0.0000
     11 C4         5.7385    1.5712    1.4483 C.2       1 RES1    0.0000
     12 H1         3.0538   -0.0872    1.4301 H         1 RES1    0.0000
     13 H2         5.2445    0.8045    4.4525 H         1 RES1    0.0000
     14 H3         6.6529    1.9386    3.2151 H         1 RES1    0.0000
@<TRIPOS>BOND
     1    1    8 2
     2    2    9 2
     3    3    7 2
     4    4    7 2
     5    5    8 1
     6    6    9 1
     7    7   11 1
     8    8   11 1
     9    9    5 1
    10   10    6 1
    11   11   10 2
    12   12    5 1
    13   13    6 1
    14   14   10 1
@<TRIPOS>SUBSTRUCTURE
     1 RES1 1

@<TRIPOS>CRYSIN
   5.8730    9.6930   10.4561  90.0000 104.0700  90.0000 231 1

