# MOL2 file generated by ConQuest
# Please check atom types

@<TRIPOS>MOLECULE
NIMFOE01
    14    14     1
SMALL
NO_CHARGES
****
Generated from CSD

@<TRIPOS>ATOM
      1 O1        -0.5090    3.6399    7.5025 O.2       1 RES1    0.0000
      2 O2         0.7558   -0.0053    5.0934 O.2       1 RES1    0.0000
      3 O3         1.9728    2.6544    2.0584 O.2       1 RES1    0.0000
      4 O4         1.7484    0.5659    2.5948 O.2       1 RES1    0.0000
      5 N1         0.1931    1.8383    6.2898 N.am      1 RES1    0.0000
      6 H1        -0.0565    1.2313    7.0577 H         1 RES1    0.0000
      7 N2         0.4645    3.9937    5.4725 N.am      1 RES1    0.0000
      8 H2         0.4222    4.9951    5.5974 H         1 RES1    0.0000
      9 N3         1.6304    1.7638    2.8448 N.pl3     1 RES1    0.0000
     10 C1         0.0119    3.1779    6.4904 C.2       1 RES1    0.0000
     11 C2         0.6845    1.2168    5.1423 C.2       1 RES1    0.0000
     12 C3         1.0619    2.1703    4.1075 C.2       1 RES1    0.0000
     13 C4         0.9587    3.5066    4.3229 C.2       1 RES1    0.0000
     14 H3         1.2796    4.1899    3.5562 H         1 RES1    0.0000
@<TRIPOS>BOND
     1    1   10 2
     2    2   11 2
     3    3    9 2
     4    4    9 2
     5    5    6 1
     6    7    8 1
     7    9   12 1
     8   10    5 1
     9   11    5 1
    10   12   11 1
    11   13    7 1
    12   14   13 1
    13    7   10 1
    14   12   13 2
@<TRIPOS>SUBSTRUCTURE
     1 RES1 1

@<TRIPOS>CRYSIN
   8.3080   10.4260   13.3630  90.0000  90.0000  90.0000  61 1

