# MOL2 file generated by ConQuest
# Please check atom types

@<TRIPOS>MOLECULE
NIMJOK
    25    26     1
SMALL
NO_CHARGES
****
Generated from CSD

@<TRIPOS>ATOM
      1 O1         1.6234    3.2564    5.3006 O.3       1 RES1    0.0000
      2 O2         1.7001    0.7292    7.7995 O.2       1 RES1    0.0000
      3 O3         0.2762    0.9812    3.1162 O.2       1 RES1    0.0000
      4 O4        -0.0664   -0.7326    1.8614 O.2       1 RES1    0.0000
      5 N1         1.1424    0.6528    5.5618 N.am      1 RES1    0.0000
      6 N2         0.1724   -0.2413    2.9562 N.pl3     1 RES1    0.0000
      7 C1         1.8072    4.6043    5.4541 C.2       1 RES1    0.0000
      8 H1         1.7821    5.2369    4.7457 H         1 RES1    0.0000
      9 C2         2.0279    4.9100    6.7428 C.2       1 RES1    0.0000
     10 H2         2.1790    5.7760    7.1033 H         1 RES1    0.0000
     11 C3         1.9924    3.6855    7.4631 C.2       1 RES1    0.0000
     12 H3         2.1174    3.5706    8.3976 H         1 RES1    0.0000
     13 C4         1.7458    2.7168    6.5553 C.2       1 RES1    0.0000
     14 C5         1.5390    1.2751    6.7168 C.2       1 RES1    0.0000
     15 C6         0.7901   -0.6820    5.3603 C.ar      1 RES1    0.0000
     16 C7         0.3248   -1.1366    4.1065 C.ar      1 RES1    0.0000
     17 C8        -0.0299   -2.4678    3.8983 C.ar      1 RES1    0.0000
     18 H4        -0.3459   -2.7471    3.0470 H         1 RES1    0.0000
     19 C9         0.0768   -3.3803    4.9248 C.ar      1 RES1    0.0000
     20 H5        -0.1679   -4.2879    4.7896 H         1 RES1    0.0000
     21 C10        0.5465   -2.9563    6.1531 C.ar      1 RES1    0.0000
     22 H6         0.6311   -3.5860    6.8589 H         1 RES1    0.0000
     23 C11        0.8948   -1.6378    6.3791 C.ar      1 RES1    0.0000
     24 H7         1.2099   -1.3768    7.2362 H         1 RES1    0.0000
     25 H8         1.0100    1.1783    4.8944 H         1 RES1    0.0000
@<TRIPOS>BOND
     1    1    7 1
     2    2   14 2
     3    3    6 2
     4    4    6 2
     5    5   14 1
     6    6   16 1
     7    7    8 1
     8    9    7 2
     9   10    9 1
    10   11    9 1
    11   12   11 1
    12   13    1 1
    13   14   13 1
    14   15    5 1
    15   16   15 ar
    16   17   16 ar
    17   18   17 1
    18   19   17 ar
    19   20   19 1
    20   21   19 ar
    21   22   21 1
    22   23   15 ar
    23   24   23 1
    24   25    5 1
    25   11   13 2
    26   21   23 ar
@<TRIPOS>SUBSTRUCTURE
     1 RES1 1

@<TRIPOS>CRYSIN
   7.0380   12.8072   11.3701  90.0000  97.8190  90.0000  14 1

