# MOL2 file generated by ConQuest
# Please check atom types

@<TRIPOS>MOLECULE
NIMKID
    42    44     1
SMALL
NO_CHARGES
****
Generated from CSD

@<TRIPOS>ATOM
      1 C1        -1.0911    2.5402    8.2020 C.3       1 RES1    0.0000
      2 O1        -0.1850    3.5147    8.6877 O.3       1 RES1    0.0000
      3 N1        -1.0660    4.2981    9.5811 N.3       1 RES1    0.0000
      4 C2        -0.1367    5.1176   10.4018 C.3       1 RES1    0.0000
      5 C3        -0.1879    4.5060   11.8121 C.3       1 RES1    0.0000
      6 C4        -0.5973    3.0701   11.5732 C.3       1 RES1    0.0000
      7 C5        -1.6152    3.2323   10.4434 C.3       1 RES1    0.0000
      8 C6        -1.8782    2.0812    9.4460 C.3       1 RES1    0.0000
      9 C7        -1.4823    0.7378    9.9577 C.2       1 RES1    0.0000
     10 O2        -0.6552    0.0288    9.4850 O.2       1 RES1    0.0000
     11 O3        -2.1983    0.4109   11.0277 O.3       1 RES1    0.0000
     12 C8        -1.9596   -0.8796   11.6277 C.3       1 RES1    0.0000
     13 C9        -2.0193    3.1001    7.1241 C.2       1 RES1    0.0000
     14 O4        -2.9668    2.4981    6.7008 O.2       1 RES1    0.0000
     15 O5        -1.6024    4.2825    6.6644 O.3       1 RES1    0.0000
     16 C10       -2.4573    4.9362    5.6931 C.3       1 RES1    0.0000
     17 C11       -0.5762    6.5752   10.2823 C.3       1 RES1    0.0000
     18 C12        0.4654    7.5749   10.7265 C.2       1 RES1    0.0000
     19 O6         1.2941    7.4487   11.5913 O.2       1 RES1    0.0000
     20 O7         0.3781    8.6972   10.0018 O.3       1 RES1    0.0000
     21 C13       -0.7023    8.5506    9.0175 C.3       1 RES1    0.0000
     22 C14       -0.9123    7.0690    8.8799 C.3       1 RES1    0.0000
     23 O8        -0.0149    6.5619    7.9137 O.3       1 RES1    0.0000
     24 H1        -0.5884    1.7820    7.8358 H         1 RES1    0.0000
     25 H2         0.7717    5.0263   10.0460 H         1 RES1    0.0000
     26 H3         0.6800    4.5529   12.2432 H         1 RES1    0.0000
     27 H4        -0.8392    4.9650   12.3653 H         1 RES1    0.0000
     28 H5        -1.0025    2.6808   12.3653 H         1 RES1    0.0000
     29 H6         0.1566    2.5270   11.2979 H         1 RES1    0.0000
     30 H7        -2.4685    3.5315   10.8226 H         1 RES1    0.0000
     31 H8        -2.8330    2.0668    9.2279 H         1 RES1    0.0000
     32 H9        -2.3788   -1.5621   11.0979 H         1 RES1    0.0000
     33 H10       -2.3276   -0.8928   12.5159 H         1 RES1    0.0000
     34 H11       -1.0149   -1.0430   11.6718 H         1 RES1    0.0000
     35 H12       -2.2579    4.6021    4.8152 H         1 RES1    0.0000
     36 H13       -2.3033    5.8842    5.7165 H         1 RES1    0.0000
     37 H14       -3.3766    4.7559    5.9035 H         1 RES1    0.0000
     38 H15       -1.3696    6.6977   10.8459 H         1 RES1    0.0000
     39 H16       -0.4460    8.9399    8.1656 H         1 RES1    0.0000
     40 H17       -1.5120    8.9844    9.3266 H         1 RES1    0.0000
     41 H18       -1.8414    6.8635    8.6461 H         1 RES1    0.0000
     42 H19       -0.2344    5.7989    7.7111 H         1 RES1    0.0000
@<TRIPOS>BOND
     1    1    2 1
     2    2    3 1
     3    3    4 1
     4    4    5 1
     5    5    6 1
     6    6    7 1
     7    7    3 1
     8    8    1 1
     9    9    8 1
    10   10    9 2
    11   11    9 1
    12   12   11 1
    13   13    1 1
    14   14   13 2
    15   15   13 1
    16   16   15 1
    17   17    4 1
    18   18   17 1
    19   19   18 2
    20   20   18 1
    21   21   20 1
    22   22   17 1
    23   23   22 1
    24   24    1 1
    25   25    4 1
    26   26    5 1
    27   27    5 1
    28   28    6 1
    29   29    6 1
    30   30    7 1
    31   31    8 1
    32   32   12 1
    33   33   12 1
    34   34   12 1
    35   35   16 1
    36   36   16 1
    37   37   16 1
    38   38   17 1
    39   39   21 1
    40   40   21 1
    41   41   22 1
    42   42   23 1
    43    7    8 1
    44   21   22 1
@<TRIPOS>SUBSTRUCTURE
     1 RES1 1

@<TRIPOS>CRYSIN
   4.8015   12.0160   26.0010  90.0000  92.7030  90.0000  14 1

