# MOL2 file generated by ConQuest
# Please check atom types

@<TRIPOS>MOLECULE
NIMLIF
    50    52     1
SMALL
NO_CHARGES
****
Generated from CSD

@<TRIPOS>ATOM
      1 O1         1.0735    8.9798   16.8559 O.2       1 RES1    0.0000
      2 O2         4.8808   10.3318   14.2711 O.2       1 RES1    0.0000
      3 O3         0.6008    5.5030   16.5803 O.3       1 RES1    0.0000
      4 O4         6.8269    7.4791   13.4329 O.3       1 RES1    0.0000
      5 N1         1.3375    7.7490   16.6113 N.3       1 RES1    0.0000
      6 N2         5.2120    9.1003   14.1163 N.pl3     1 RES1    0.0000
      7 C1         2.4638    7.3991   15.8650 C.ar      1 RES1    0.0000
      8 C2         0.5177    6.7131   17.3078 C.3       1 RES1    0.0000
      9 C3         1.8730    4.9461   16.1710 C.3       1 RES1    0.0000
     10 C4         2.7609    6.0455   15.6315 C.ar      1 RES1    0.0000
     11 C5         3.8990    5.7484   14.8869 C.ar      1 RES1    0.0000
     12 H1         4.1177    4.8372   14.7307 H         1 RES1    0.0000
     13 C6         4.7302    6.7326   14.3607 C.ar      1 RES1    0.0000
     14 C7         5.8577    6.4001   13.4165 C.3       1 RES1    0.0000
     15 C8         6.4455    8.8342   13.3123 C.3       1 RES1    0.0000
     16 C9         4.4092    8.0780   14.6269 C.ar      1 RES1    0.0000
     17 C10        3.2822    8.4180   15.3720 C.ar      1 RES1    0.0000
     18 H2         3.0737    9.3293   15.5420 H         1 RES1    0.0000
     19 C11        0.9966    6.6235   18.7478 C.3       1 RES1    0.0000
     20 H3         1.9531    6.4102   18.7606 H         1 RES1    0.0000
     21 H4         0.4988    5.9201   19.2156 H         1 RES1    0.0000
     22 H5         0.8467    7.4826   19.1963 H         1 RES1    0.0000
     23 C12       -0.9417    7.1095   17.2377 C.3       1 RES1    0.0000
     24 H6        -1.1969    7.2542   16.3027 H         1 RES1    0.0000
     25 H7        -1.0807    7.9362   17.7447 H         1 RES1    0.0000
     26 H8        -1.4931    6.3948   17.6195 H         1 RES1    0.0000
     27 C13        2.5767    4.1727   17.2885 C.3       1 RES1    0.0000
     28 H9         2.9176    4.8032   17.9565 H         1 RES1    0.0000
     29 H10        3.3224    3.6603   16.9117 H         1 RES1    0.0000
     30 H11        1.9406    3.5599   17.7134 H         1 RES1    0.0000
     31 C14        1.4640    3.9708   15.0682 C.3       1 RES1    0.0000
     32 H12        1.0093    4.4606   14.3503 H         1 RES1    0.0000
     33 H13        0.8583    3.2950   15.4384 H         1 RES1    0.0000
     34 H14        2.2621    3.5315   14.7090 H         1 RES1    0.0000
     35 C15        5.2879    6.1405   12.0205 C.3       1 RES1    0.0000
     36 H15        4.7029    6.8832   11.7624 H         1 RES1    0.0000
     37 H16        4.7731    5.3062   12.0272 H         1 RES1    0.0000
     38 H17        6.0230    6.0651   11.3772 H         1 RES1    0.0000
     39 C16        6.6845    5.2073   13.8691 C.3       1 RES1    0.0000
     40 H18        7.0527    5.3839   14.7596 H         1 RES1    0.0000
     41 H19        7.4183    5.0591   13.2357 H         1 RES1    0.0000
     42 H20        6.1166    4.4095   13.9025 H         1 RES1    0.0000
     43 C17        6.1950    9.2960   11.8789 C.3       1 RES1    0.0000
     44 H21        5.4282    8.8110   11.5096 H         1 RES1    0.0000
     45 H22        6.9898    9.1155   11.3339 H         1 RES1    0.0000
     46 H23        6.0069   10.2576   11.8731 H         1 RES1    0.0000
     47 C18        7.6040    9.6047   13.9264 C.3       1 RES1    0.0000
     48 H24        7.7462    9.3018   14.8462 H         1 RES1    0.0000
     49 H25        7.3956   10.5621   13.9266 H         1 RES1    0.0000
     50 H26        8.4165    9.4468   13.4018 H         1 RES1    0.0000
@<TRIPOS>BOND
     1    1    5 1
     2    2    6 1
     3    3    8 1
     4    4   14 1
     5    5    7 1
     6    6   15 1
     7    7   10 ar
     8    8    5 1
     9    9    3 1
    10   10    9 1
    11   11   10 ar
    12   12   11 1
    13   13   11 ar
    14   14   13 1
    15   15    4 1
    16   16    6 1
    17   17    7 ar
    18   18   17 1
    19   19    8 1
    20   20   19 1
    21   21   19 1
    22   22   19 1
    23   23    8 1
    24   24   23 1
    25   25   23 1
    26   26   23 1
    27   27    9 1
    28   28   27 1
    29   29   27 1
    30   30   27 1
    31   31    9 1
    32   32   31 1
    33   33   31 1
    34   34   31 1
    35   35   14 1
    36   36   35 1
    37   37   35 1
    38   38   35 1
    39   39   14 1
    40   40   39 1
    41   41   39 1
    42   42   39 1
    43   43   15 1
    44   44   43 1
    45   45   43 1
    46   46   43 1
    47   47   15 1
    48   48   47 1
    49   49   47 1
    50   50   47 1
    51   13   16 ar
    52   16   17 ar
@<TRIPOS>SUBSTRUCTURE
     1 RES1 1

@<TRIPOS>CRYSIN
   8.7862    8.0998   24.1000  90.0000  92.6790  90.0000  14 1

