# MOL2 file generated by ConQuest
# Please check atom types

@<TRIPOS>MOLECULE
NIMLOL
    95    75     2
SMALL
NO_CHARGES
****
Generated from CSD

@<TRIPOS>ATOM
      1 O1         4.4303    5.4809   19.2861 O.2       1 RES1    0.0000
      2 O2         4.2000    2.1805   15.1759 O.2       1 RES1    0.0000
      3 O3         0.9905    5.9428   20.0183 O.3       1 RES1    0.0000
      4 O4         0.7048    1.7557   14.6563 O.3       1 RES1    0.0000
      5 N1         3.1437    5.3440   19.2055 N.3       1 RES1    0.0000
      6 N2         2.9342    2.2664   15.3827 N.pl3     1 RES1    0.0000
      7 C1         2.5212    4.7452   18.0785 C.ar      1 RES1    0.0000
      8 C2         2.3394    5.7057   20.3786 C.3       1 RES1    0.0000
      9 C3         0.6831    6.3311   18.6537 C.3       1 RES1    0.0000
     10 C4         1.2537    5.2439   17.7503 C.ar      1 RES1    0.0000
     11 C5         0.5853    4.7534   16.6381 C.ar      1 RES1    0.0000
     12 H1        -0.2736    5.0906   16.4145 H         1 RES1    0.0000
     13 C6         1.1584    3.7766   15.8557 C.ar      1 RES1    0.0000
     14 C7         0.5108    3.2023   14.5926 C.3       1 RES1    0.0000
     15 C8         2.0147    1.2323   14.7982 C.3       1 RES1    0.0000
     16 C9         2.4242    3.2636   16.2140 C.ar      1 RES1    0.0000
     17 C10        3.1169    3.6948   17.3683 C.ar      1 RES1    0.0000
     18 C11        2.3342    4.5634   21.3907 C.3       1 RES1    0.0000
     19 H2         1.9541    3.7602   20.9765 H         1 RES1    0.0000
     20 H3         1.7922    4.8168   22.1669 H         1 RES1    0.0000
     21 H4         3.2519    4.3774   21.6803 H         1 RES1    0.0000
     22 C12        2.9238    6.9564   21.0807 C.3       1 RES1    0.0000
     23 H5         2.9394    7.7085   20.4522 H         1 RES1    0.0000
     24 H6         3.8355    6.7643   21.3849 H         1 RES1    0.0000
     25 H7         2.3645    7.1894   21.8541 H         1 RES1    0.0000
     26 C13        1.2970    7.6778   18.2595 C.3       1 RES1    0.0000
     27 H8         1.0190    8.3624   18.9026 H         1 RES1    0.0000
     28 H9         0.9896    7.9271   17.3645 H         1 RES1    0.0000
     29 H10        2.2736    7.6042   18.2624 H         1 RES1    0.0000
     30 C14       -0.8329    6.4251   18.6564 C.3       1 RES1    0.0000
     31 H11       -1.2147    5.5422   18.8475 H         1 RES1    0.0000
     32 H12       -1.1420    6.7296   17.7758 H         1 RES1    0.0000
     33 H13       -1.1203    7.0627   19.3428 H         1 RES1    0.0000
     34 C15        1.1169    3.8379   13.3587 C.3       1 RES1    0.0000
     35 H14        2.0944    3.7950   13.4137 H         1 RES1    0.0000
     36 H15        0.8346    4.7738   13.3007 H         1 RES1    0.0000
     37 H16        0.8139    3.3556   12.5592 H         1 RES1    0.0000
     38 C16       -1.0043    3.3147   14.5723 C.3       1 RES1    0.0000
     39 H17       -1.3550    2.8570   13.7787 H         1 RES1    0.0000
     40 H18       -1.2606    4.2609   14.5433 H         1 RES1    0.0000
     41 H19       -1.3740    2.8999   15.3804 H         1 RES1    0.0000
     42 C17        2.5576    0.7357   13.5035 C.3       1 RES1    0.0000
     43 H20        2.7688    1.4980   12.9242 H         1 RES1    0.0000
     44 H21        1.8900    0.1676   13.0661 H         1 RES1    0.0000
     45 H22        3.3714    0.2146   13.6686 H         1 RES1    0.0000
     46 C18        1.9333    0.1165   15.8294 C.3       1 RES1    0.0000
     47 H23        1.5654    0.4700   16.6636 H         1 RES1    0.0000
     48 H24        2.8303   -0.2432   15.9916 H         1 RES1    0.0000
     49 H25        1.3524   -0.5988   15.4934 H         1 RES1    0.0000
     50 C19        4.3100    2.9346   17.9149 C.ar      1 RES1    0.0000
     51 C20        5.6346    3.3862   17.8859 C.ar      1 RES1    0.0000
     52 H26        5.8320    4.2282   17.4949 H         1 RES1    0.0000
     53 C21        6.6563    2.6281   18.4073 C.ar      1 RES1    0.0000
     54 H27        7.5498    2.9428   18.3377 H         1 RES1    0.0000
     55 C22        6.4104    1.4101   19.0413 C.ar      1 RES1    0.0000
     56 C23        5.0848    0.9748   19.0619 C.ar      1 RES1    0.0000
     57 H28        4.8892    0.1247   19.4384 H         1 RES1    0.0000
     58 C24        4.0485    1.7268   18.5579 C.ar      1 RES1    0.0000
     59 H29        3.1532    1.4223   18.6477 H         1 RES1    0.0000
     60 C25        7.5411    0.5620   19.6556 C.3       1 RES1    0.0000
     61 C26        7.7074   -0.7275   18.8330 C.3       1 RES1    0.0000
     62 H30        6.8502   -1.2016   18.7896 H         1 RES1    0.0000
     63 H31        8.3775   -1.3018   19.2559 H         1 RES1    0.0000
     64 H32        7.9991   -0.4986   17.9264 H         1 RES1    0.0000
     65 C27        7.2164    0.2207   21.0981 C.3       1 RES1    0.0000
     66 H33        6.3437   -0.2228   21.1416 H         1 RES1    0.0000
     67 H34        7.1913    1.0443   21.6282 H         1 RES1    0.0000
     68 H35        7.9056   -0.3760   21.4544 H         1 RES1    0.0000
     69 C28        8.9117    1.2875   19.5977 C.3       1 RES1    0.0000
     70 H36        9.6035    0.7112   19.9859 H         1 RES1    0.0000
     71 H37        8.8606    2.1233   20.1075 H         1 RES1    0.0000
     72 H38        9.1368    1.4857   18.6650 H         1 RES1    0.0000
     73 C29        4.3100    2.9346   17.9149 Du        2 SUP2    0.0000
     74 C30        5.5325    2.8692   17.2573 Du        2 SUP2    0.0000
     75 H39        5.6476    3.2636   16.4029 Du        2 SUP2    0.0000
     76 C31        6.5628    2.2132   17.8917 Du        2 SUP2    0.0000
     77 H40        7.4346    2.3072   17.5267 Du        2 SUP2    0.0000
     78 C32        6.4104    1.4101   19.0413 Du        2 SUP2    0.0000
     79 C33        5.0909    1.2813   19.4674 Du        2 SUP2    0.0000
     80 H41        4.8814    0.6110   20.1075 Du        2 SUP2    0.0000
     81 C34        4.0779    2.0886   18.9981 Du        2 SUP2    0.0000
     82 H42        3.2225    2.0681   19.4123 Du        2 SUP2    0.0000
     83 C35        7.6104    0.6458   19.6151 Du        2 SUP2    0.0000
     84 C36        7.2727   -0.1431   20.8751 Du        2 SUP2    0.0000
     85 H43        7.2485    0.4619   21.6455 Du        2 SUP2    0.0000
     86 H44        7.9645   -0.8277   21.0228 Du        2 SUP2    0.0000
     87 H45        6.4043   -0.5783   20.7708 Du        2 SUP2    0.0000
     88 C37        8.0606   -0.2984   18.5173 Du        2 SUP2    0.0000
     89 H46        8.7117   -0.9360   18.8794 Du        2 SUP2    0.0000
     90 H47        8.4814    0.2166   17.7961 Du        2 SUP2    0.0000
     91 H48        7.2892   -0.7847   18.1640 Du        2 SUP2    0.0000
     92 C38        8.7532    1.6349   19.9569 Du        2 SUP2    0.0000
     93 H49        8.4450    2.2541   20.6636 Du        2 SUP2    0.0000
     94 H50        8.9913    2.1540   19.1632 Du        2 SUP2    0.0000
     95 H51        9.5316    1.1444   20.2813 Du        2 SUP2    0.0000
@<TRIPOS>BOND
     1    1    5 1
     2    2    6 1
     3    3    8 1
     4    4   14 1
     5    5    7 1
     6    6   15 1
     7    7   10 ar
     8    8    5 1
     9    9    3 1
    10   10    9 1
    11   11   10 ar
    12   12   11 1
    13   13   11 ar
    14   14   13 1
    15   15    4 1
    16   16    6 1
    17   17    7 ar
    18   18    8 1
    19   19   18 1
    20   20   18 1
    21   21   18 1
    22   22    8 1
    23   23   22 1
    24   24   22 1
    25   25   22 1
    26   26    9 1
    27   27   26 1
    28   28   26 1
    29   29   26 1
    30   30    9 1
    31   31   30 1
    32   32   30 1
    33   33   30 1
    34   34   14 1
    35   35   34 1
    36   36   34 1
    37   37   34 1
    38   38   14 1
    39   39   38 1
    40   40   38 1
    41   41   38 1
    42   42   15 1
    43   43   42 1
    44   44   42 1
    45   45   42 1
    46   46   15 1
    47   47   46 1
    48   48   46 1
    49   49   46 1
    50   50   17 1
    51   51   50 ar
    52   52   51 1
    53   53   51 ar
    54   54   53 1
    55   55   53 ar
    56   56   55 ar
    57   57   56 1
    58   58   50 ar
    59   59   58 1
    60   60   55 1
    61   61   60 1
    62   62   61 1
    63   63   61 1
    64   64   61 1
    65   65   60 1
    66   66   65 1
    67   67   65 1
    68   68   65 1
    69   69   60 1
    70   70   69 1
    71   71   69 1
    72   72   69 1
    73   13   16 ar
    74   16   17 ar
    75   56   58 ar
@<TRIPOS>SUBSTRUCTURE
     1 RES1 1
     2 SUP2 73

@<TRIPOS>CRYSIN
   8.6580   20.4360   28.9650  90.0000  90.0000  90.0000  61 1

