# MOL2 file generated by ConQuest
# Please check atom types

@<TRIPOS>MOLECULE
NIMVAG
    23    23     1
SMALL
NO_CHARGES
****
Generated from CSD

@<TRIPOS>ATOM
      1 N1         2.4081   -1.6531    8.6865 N.ar      1 RES1    0.0000
      2 N2         0.8056   -3.9048   10.9050 N.2       1 RES1    0.0000
      3 N3         0.1462   -3.1456    8.7718 N.3       1 RES1    0.0000
      4 N4         4.7460    0.2460    6.8165 N.2       1 RES1    0.0000
      5 N5         2.4045    0.2817    6.8718 N.3       1 RES1    0.0000
      6 O1        -0.4588   -4.5645   10.8245 O.3       1 RES1    0.0000
      7 O2         4.4983    1.1536    5.7313 O.3       1 RES1    0.0000
      8 C1         2.3166   -2.5405    9.6852 C.ar      1 RES1    0.0000
      9 C2         3.4020   -2.8762   10.4928 C.ar      1 RES1    0.0000
     10 C3         4.6239   -2.2766   10.2440 C.ar      1 RES1    0.0000
     11 C4         4.7391   -1.3827    9.1985 C.ar      1 RES1    0.0000
     12 C5         3.6108   -1.0939    8.4413 C.ar      1 RES1    0.0000
     13 C6         1.0016   -3.2203    9.8318 C.2       1 RES1    0.0000
     14 C7         3.6073   -0.1178    7.3237 C.2       1 RES1    0.0000
     15 H1        -0.5964   -3.5795    8.7874 H         1 RES1    0.0000
     16 H2         0.3484   -2.6654    8.0892 H         1 RES1    0.0000
     17 H3         2.3526    0.8169    6.2012 H         1 RES1    0.0000
     18 H4         1.6869    0.0014    7.2552 H         1 RES1    0.0000
     19 H5        -0.5080   -5.1340   11.4121 H         1 RES1    0.0000
     20 H6         5.1631    1.6160    5.6051 H         1 RES1    0.0000
     21 H7         3.3071   -3.4907   11.1838 H         1 RES1    0.0000
     22 H8         5.3609   -2.4738   10.7764 H         1 RES1    0.0000
     23 H9         5.5559   -0.9822    9.0038 H         1 RES1    0.0000
@<TRIPOS>BOND
     1    1    8 ar
     2    2    6 1
     3    3   13 1
     4    4    7 1
     5    5   14 1
     6    6   19 1
     7    7   20 1
     8    8    9 ar
     9    9   10 ar
    10   10   11 ar
    11   11   12 ar
    12   12    1 ar
    13   13    2 2
    14   14    4 2
    15   15    3 1
    16   16    3 1
    17   17    5 1
    18   18    5 1
    19   21    9 1
    20   22   10 1
    21   23   11 1
    22    8   13 1
    23   12   14 1
@<TRIPOS>SUBSTRUCTURE
     1 RES1 1

@<TRIPOS>CRYSIN
   7.5690    4.6950   12.5340  90.0000 106.5000  90.0000   4 1

