# MOL2 file generated by ConQuest
# Please check atom types

@<TRIPOS>MOLECULE
NINQEI
    40    42     1
SMALL
NO_CHARGES
****
Generated from CSD

@<TRIPOS>ATOM
      1 C1         1.6776   11.0063    2.8791 C.ar      1 RES1    0.0000
      2 H1         0.9786   11.4402    3.3135 H         1 RES1    0.0000
      3 C2         2.5906   11.7448    2.1581 C.ar      1 RES1    0.0000
      4 H2         2.5367   12.6728    2.1237 H         1 RES1    0.0000
      5 C3         3.5855   11.0649    1.4894 C.ar      1 RES1    0.0000
      6 C4         3.7145    9.7007    1.5438 C.ar      1 RES1    0.0000
      7 H3         4.3951    9.2688    1.0795 H         1 RES1    0.0000
      8 C5         2.8156    8.9863    2.2990 C.ar      1 RES1    0.0000
      9 H4         2.9008    8.0625    2.3625 H         1 RES1    0.0000
     10 C6         1.7825    9.6285    2.9679 C.ar      1 RES1    0.0000
     11 C7         0.7856    8.8075    3.7851 C.3       1 RES1    0.0000
     12 H5         0.1193    9.4148    4.1703 H         1 RES1    0.0000
     13 C8         0.0807    7.8189    2.8960 C.2       1 RES1    0.0000
     14 C9        -0.9146    8.3375    1.9335 C.2       1 RES1    0.0000
     15 C10       -1.5455    7.3525    0.9893 C.3       1 RES1    0.0000
     16 H6        -1.7325    7.7984    0.1478 H         1 RES1    0.0000
     17 H7        -2.3908    7.0569    1.3612 H         1 RES1    0.0000
     18 C11       -0.6774    6.1415    0.7212 C.3       1 RES1    0.0000
     19 H8         0.1110    6.4111    0.2249 H         1 RES1    0.0000
     20 H9        -1.1692    5.5024    0.1821 H         1 RES1    0.0000
     21 C12       -0.2574    5.4891    2.0293 C.3       1 RES1    0.0000
     22 H10       -1.0256    5.0677    2.4461 H         1 RES1    0.0000
     23 H11        0.4058    4.8039    1.8549 H         1 RES1    0.0000
     24 C13        0.3094    6.5126    2.9450 C.2       1 RES1    0.0000
     25 C14        1.6368    6.6940    4.9075 C.2       1 RES1    0.0000
     26 C15        1.4668    8.0702    4.9010 C.2       1 RES1    0.0000
     27 C16        2.3428    4.5260    5.8292 C.3       1 RES1    0.0000
     28 H12        1.4617    4.1475    5.7906 H         1 RES1    0.0000
     29 H13        2.7793    4.2392    6.6345 H         1 RES1    0.0000
     30 H14        2.8509    4.2340    5.0688 H         1 RES1    0.0000
     31 N1         2.2485    5.9722    5.8200 N.3       1 RES1    0.0000
     32 N2         1.9761    8.8435    5.9329 N.pl3     1 RES1    0.0000
     33 N3         4.5362   11.8277    0.6704 N.pl3     1 RES1    0.0000
     34 O1         1.1419    5.9382    3.8952 O.3       1 RES1    0.0000
     35 O2        -1.2166    9.5157    1.9470 O.2       1 RES1    0.0000
     36 O3         2.6364    8.3204    6.8696 O.2       1 RES1    0.0000
     37 O4         1.7684   10.0669    5.9113 O.2       1 RES1    0.0000
     38 O5         4.7618   12.9799    0.9984 O.2       1 RES1    0.0000
     39 O6         5.0208   11.2752   -0.3101 O.2       1 RES1    0.0000
     40 H15        2.5698    6.4689    6.5007 H         1 RES1    0.0000
@<TRIPOS>BOND
     1    1    2 1
     2    3    1 ar
     3    4    3 1
     4    5    3 ar
     5    6    5 ar
     6    7    6 1
     7    8    6 ar
     8    9    8 1
     9   10    1 ar
    10   11   10 1
    11   12   11 1
    12   13   11 1
    13   14   13 1
    14   15   14 1
    15   16   15 1
    16   17   15 1
    17   18   15 1
    18   19   18 1
    19   20   18 1
    20   21   18 1
    21   22   21 1
    22   23   21 1
    23   24   13 2
    24   25   26 2
    25   26   11 1
    26   27   28 1
    27   29   27 1
    28   30   27 1
    29   31   25 1
    30   32   26 1
    31   33    5 1
    32   34   24 1
    33   35   14 2
    34   36   32 2
    35   37   32 2
    36   38   33 2
    37   39   33 2
    38   40   31 1
    39    8   10 ar
    40   21   24 1
    41   25   34 1
    42   27   31 1
@<TRIPOS>SUBSTRUCTURE
     1 RES1 1

@<TRIPOS>CRYSIN
   8.2587    8.7679   10.9346 101.6160  90.4260  91.9300   2 1

