# MOL2 file generated by ConQuest
# Please check atom types

@<TRIPOS>MOLECULE
NIOBPH
    32    33     1
SMALL
NO_CHARGES
****
Generated from CSD

@<TRIPOS>ATOM
      1 O1         5.4024    0.8625    1.1248 O.3       1 RES1    0.0000
      2 O2         7.2628    1.8045    4.4066 O.2       1 RES1    0.0000
      3 O3         7.7675    0.9343    2.4730 O.2       1 RES1    0.0000
      4 O4         3.7385    1.6110   -0.6650 O.2       1 RES1    0.0000
      5 O5         3.1475    3.6865   -0.8340 O.2       1 RES1    0.0000
      6 N1         7.1301    1.7249    3.1951 N.pl3     1 RES1    0.0000
      7 N2         3.7642    2.8008   -0.2700 N.pl3     1 RES1    0.0000
      8 C1         5.2205    4.8320    2.4576 C.ar      1 RES1    0.0000
      9 C2         6.1158    3.9054    3.0447 C.ar      1 RES1    0.0000
     10 C3         6.1600    2.6062    2.5536 C.ar      1 RES1    0.0000
     11 C4         5.3855    2.1550    1.4903 C.ar      1 RES1    0.0000
     12 C5         4.5797    3.1413    0.8823 C.ar      1 RES1    0.0000
     13 C6         4.4748    4.4428    1.3613 C.ar      1 RES1    0.0000
     14 H1         4.5510    0.7851    0.4993 H         1 RES1    0.0000
     15 H2         6.7379    4.2128    3.8299 H         1 RES1    0.0000
     16 H3         3.8887    5.1637    0.8779 H         1 RES1    0.0000
     17 C1B        5.1198    6.2252    3.0294 C.ar      1 RES1    0.0000
     18 C2B        4.2245    7.1518    2.4423 C.ar      1 RES1    0.0000
     19 C6B        5.8654    6.6144    4.1257 C.ar      1 RES1    0.0000
     20 C3B        4.1803    8.4510    2.9334 C.ar      1 RES1    0.0000
     21 H2B        3.6024    6.8444    1.6571 H         1 RES1    0.0000
     22 C5B        5.7606    7.9158    4.6047 C.ar      1 RES1    0.0000
     23 H3B        6.4516    5.8935    4.6091 H         1 RES1    0.0000
     24 N1B        3.2101    9.3322    2.2919 N.pl3     1 RES1    0.0000
     25 C4B        4.9547    8.9021    3.9967 C.ar      1 RES1    0.0000
     26 N2B        6.5760    8.2564    5.7570 N.pl3     1 RES1    0.0000
     27 O2B        3.0775    9.2526    1.0804 O.2       1 RES1    0.0000
     28 O3B        2.5727   10.1228    3.0140 O.2       1 RES1    0.0000
     29 O1B        4.9379   10.1947    4.3622 O.3       1 RES1    0.0000
     30 O4B        6.6018    9.4461    6.1520 O.2       1 RES1    0.0000
     31 O5B        7.1928    7.3707    6.3210 O.2       1 RES1    0.0000
     32 H1B        5.7893   10.2721    4.9877 H         1 RES1    0.0000
@<TRIPOS>BOND
     1    1   11 1
     2    2    6 2
     3    3    6 2
     4    4    7 2
     5    5    7 2
     6    6   10 1
     7    7   12 1
     8    8    9 ar
     9    9   10 ar
    10   10   11 ar
    11   11   12 ar
    12   12   13 ar
    13   13    8 ar
    14   14    1 1
    15   15    9 1
    16   16   13 1
    17   17    8 1
    18   18   17 ar
    19   19   17 ar
    20   20   18 ar
    21   21   18 1
    22   22   19 ar
    23   23   19 1
    24   24   20 1
    25   25   20 ar
    26   26   22 1
    27   27   24 2
    28   28   24 2
    29   29   25 1
    30   30   26 2
    31   31   26 2
    32   32   29 1
    33   22   25 ar
@<TRIPOS>SUBSTRUCTURE
     1 RES1 1

