# MOL2 file generated by ConQuest
# Please check atom types

@<TRIPOS>MOLECULE
NIPCIM
    29    30     1
SMALL
NO_CHARGES
****
Generated from CSD

@<TRIPOS>ATOM
      1 C1        -9.7839   -0.2824    2.4616 C.2       1 RES1    0.0000
      2 C2       -10.0313   -0.0486    4.8302 C.ar      1 RES1    0.0000
      3 C3       -11.2607   -0.6506    5.0771 C.ar      1 RES1    0.0000
      4 C4       -11.6887   -0.8232    6.3849 C.ar      1 RES1    0.0000
      5 C5       -10.8649   -0.4244    7.3966 C.ar      1 RES1    0.0000
      6 C6        -9.6429    0.1714    7.1696 C.ar      1 RES1    0.0000
      7 C7        -9.2273    0.3651    5.8751 C.ar      1 RES1    0.0000
      8 C8        -9.1061   -1.2415    0.3957 C.ar      1 RES1    0.0000
      9 C9        -9.5538   -1.3532   -0.9201 C.ar      1 RES1    0.0000
     10 C10       -8.7251   -1.8993   -1.8694 C.ar      1 RES1    0.0000
     11 C11       -7.4882   -2.3655   -1.5030 C.ar      1 RES1    0.0000
     12 C12       -7.0503   -2.2993   -0.1938 C.ar      1 RES1    0.0000
     13 C13       -7.8568   -1.7279    0.7488 C.ar      1 RES1    0.0000
     14 H1       -11.8866   -0.9732    4.2659 H         1 RES1    0.0000
     15 H2       -12.6461   -1.2797    6.5880 H         1 RES1    0.0000
     16 H3        -9.0145    0.4872    8.1030 H         1 RES1    0.0000
     17 H4        -8.2773    0.8308    5.6839 H         1 RES1    0.0000
     18 H5       -10.5285   -0.9954   -1.2016 H         1 RES1    0.0000
     19 H6        -9.0591   -1.9652   -2.8877 H         1 RES1    0.0000
     20 H7        -6.0831   -2.6755    0.0876 H         1 RES1    0.0000
     21 H8        -7.5154   -1.6609    1.7632 H         1 RES1    0.0000
     22 N1        -9.6082    0.2334    3.5343 N.2       1 RES1    0.0000
     23 N2        -9.9719   -0.6008    1.3011 N.2       1 RES1    0.0000
     24 N3        -6.6372   -2.9422   -2.5293 N.pl3     1 RES1    0.0000
     25 N4       -11.3176   -0.6116    8.7708 N.pl3     1 RES1    0.0000
     26 O1        -5.5759   -3.4321   -2.2080 O.2       1 RES1    0.0000
     27 O2        -7.0380   -2.9805   -3.6671 O.2       1 RES1    0.0000
     28 O3       -12.2997   -1.2935    8.9739 O.2       1 RES1    0.0000
     29 O4       -10.6967   -0.0509    9.6630 O.2       1 RES1    0.0000
@<TRIPOS>BOND
     1    1   22 2
     2    2    3 ar
     3    3    4 ar
     4    4    5 ar
     5    5    6 ar
     6    6    7 ar
     7    7    2 ar
     8    8    9 ar
     9    9   10 ar
    10   10   11 ar
    11   11   12 ar
    12   12   13 ar
    13   13    8 ar
    14   14    3 1
    15   15    4 1
    16   16    6 1
    17   17    7 1
    18   18    9 1
    19   19   10 1
    20   20   12 1
    21   21   13 1
    22   22    2 1
    23   23    1 2
    24   24   11 1
    25   25    5 1
    26   26   24 2
    27   27   24 2
    28   28   25 2
    29   29   25 2
    30    8   23 1
@<TRIPOS>SUBSTRUCTURE
     1 RES1 1

@<TRIPOS>CRYSIN
  24.7380    3.8270   13.2770  90.0000  90.0000  90.0000  33 1

