# MOL2 file generated by ConQuest
# Please check atom types

@<TRIPOS>MOLECULE
NIPHAC
    40    40     2
SMALL
NO_CHARGES
****
Generated from CSD

@<TRIPOS>ATOM
      1 C1         5.6081    0.8746   -4.6902 C.ar      1 RES1    0.0000
      2 C2        -1.7991    1.2792    7.9489 C.ar      2 RES2    0.0000
      3 C3         4.9554    1.5149   -5.7242 C.ar      1 RES1    0.0000
      4 C4        -0.5758    1.8667    8.0814 C.ar      2 RES2    0.0000
      5 C5         5.6505    1.8838   -6.8406 C.ar      1 RES1    0.0000
      6 C6         0.1353    1.7730    9.2689 C.ar      2 RES2    0.0000
      7 C7         6.9771    1.5915   -6.9230 C.ar      1 RES1    0.0000
      8 C8        -0.4214    1.0657   10.2851 C.ar      2 RES2    0.0000
      9 C9         7.6254    0.9497   -5.8793 C.ar      1 RES1    0.0000
     10 C10       -1.6506    0.4581   10.1704 C.ar      2 RES2    0.0000
     11 C11        6.9432    0.6002   -4.7790 C.ar      1 RES1    0.0000
     12 C12       -2.3574    0.5645    8.9797 C.ar      2 RES2    0.0000
     13 C13        3.4025    0.5161   -1.8095 C.3       1 RES1    0.0000
     14 C14       -3.7698    2.3181    5.0456 C.3       2 RES2    0.0000
     15 C15        4.2371    1.2628   -2.8080 C.2       1 RES1    0.0000
     16 C16       -2.9706    2.4832    6.2945 C.2       2 RES2    0.0000
     17 H1         3.9765    1.7477   -5.5739 H         1 RES1    0.0000
     18 H2        -0.1625    2.3055    7.3188 H         2 RES2    0.0000
     19 H3         5.2479    2.3575   -7.5935 H         1 RES1    0.0000
     20 H4         1.0356    2.1716    9.3868 H         2 RES2    0.0000
     21 H5         8.5001    0.8181   -6.0425 H         1 RES1    0.0000
     22 H6        -2.0346    0.0297   10.8570 H         2 RES2    0.0000
     23 H7         7.3837    0.1413   -4.0068 H         1 RES1    0.0000
     24 H8        -3.2197    0.0669    8.8698 H         2 RES2    0.0000
     25 H9         3.8326   -0.1859   -1.4864 H         1 RES1    0.0000
     26 H10       -3.3840    1.8816    4.6207 H         2 RES2    0.0000
     27 H11        3.0775    1.1379   -1.0017 H         1 RES1    0.0000
     28 H12       -3.8912    3.2202    4.5561 H         2 RES2    0.0000
     29 H13        2.5876    0.1413   -2.2619 H         1 RES1    0.0000
     30 H14       -4.7070    2.0600    5.3316 H         2 RES2    0.0000
     31 N1         7.7073    1.9634   -8.1234 N.pl3     1 RES1    0.0000
     32 N2         0.2998    0.9809   11.5566 N.pl3     2 RES2    0.0000
     33 O1         8.8952    1.7462   -8.1799 O.2       1 RES1    0.0000
     34 O2        -0.2814    0.5347   12.5098 O.2       2 RES2    0.0000
     35 O3         7.0843    2.4728   -9.0621 O.2       1 RES1    0.0000
     36 O4         1.4527    1.3535   11.5744 O.2       2 RES2    0.0000
     37 O5         4.9174    0.3837   -3.5899 O.3       1 RES1    0.0000
     38 O6        -2.4914    1.2881    6.7291 O.3       2 RES2    0.0000
     39 O7         4.3274    2.4475   -2.9081 O.2       1 RES1    0.0000
     40 O8        -2.8241    3.4924    6.8955 O.2       2 RES2    0.0000
@<TRIPOS>BOND
     1    1    3 ar
     2    2    4 ar
     3    3    5 ar
     4    4    6 ar
     5    5    7 ar
     6    6    8 ar
     7    7    9 ar
     8    8   10 ar
     9    9   11 ar
    10   10   12 ar
    11   11    1 ar
    12   12    2 ar
    13   13   15 1
    14   14   16 1
    15   15   37 1
    16   16   38 1
    17   17    3 1
    18   18    4 1
    19   19    5 1
    20   20    6 1
    21   21    9 1
    22   22   10 1
    23   23   11 1
    24   24   12 1
    25   25   13 1
    26   26   14 1
    27   27   13 1
    28   28   14 1
    29   29   13 1
    30   30   14 1
    31   31    7 1
    32   32    8 1
    33   33   31 2
    34   34   32 2
    35   35   31 2
    36   36   32 2
    37   37    1 1
    38   38    2 1
    39   39   15 2
    40   40   16 2
@<TRIPOS>SUBSTRUCTURE
     1 RES1 1
     2 RES2 2

@<TRIPOS>CRYSIN
  14.1150    7.4370   16.1580  90.0000  90.8300  90.0000  14 1

