# MOL2 file generated by ConQuest
# Please check atom types

@<TRIPOS>MOLECULE
NIPHAZ
    16    16     1
SMALL
NO_CHARGES
****
Generated from CSD

@<TRIPOS>ATOM
      1 C1         8.4095    1.7791   -1.7244 C.2       1 RES1    0.0000
      2 C2         7.5792    0.6658   -1.7941 C.2       1 RES1    0.0000
      3 C3         6.2940    0.7985   -1.2809 C.2       1 RES1    0.0000
      4 C4         5.8608    2.0055   -0.7885 C.2       1 RES1    0.0000
      5 C5         6.7056    3.1035   -0.7647 C.2       1 RES1    0.0000
      6 C6         7.9943    2.9913   -1.2380 C.2       1 RES1    0.0000
      7 H1         7.9601   -0.1646   -2.1485 H         1 RES1    0.0000
      8 H2         5.7038    0.0206   -1.3167 H         1 RES1    0.0000
      9 H3         6.2995    4.0337   -0.3469 H         1 RES1    0.0000
     10 H4         8.6279    3.8793   -1.1973 H         1 RES1    0.0000
     11 N1         9.7416    1.6608   -2.2779 N.2       1 RES1    0.0000
     12 N2         4.5251    2.0158   -0.3159 N.2       1 RES1    0.0000
     13 N3         4.1659    3.0932    0.2518 N.2       1 RES1    0.0000
     14 N4         3.7327    3.9905    0.7777 N.2       1 RES1    0.0000
     15 O1        10.1206    0.5814   -2.7274 O.2       1 RES1    0.0000
     16 O2        10.4708    2.6764   -2.3249 O.2       1 RES1    0.0000
@<TRIPOS>BOND
     1    1    2 1
     2    2    3 1
     3    3    4 1
     4    4    5 1
     5    5    6 1
     6    6    1 1
     7    7    2 1
     8    8    3 1
     9    9    5 1
    10   10    6 1
    11   11    1 1
    12   12    4 1
    13   13   12 1
    14   14   13 1
    15   15   11 1
    16   16   11 1
@<TRIPOS>SUBSTRUCTURE
     1 RES1 1

@<TRIPOS>CRYSIN
  18.0500   10.2900    3.7300  90.0000  90.0000  90.0000  19 1

