# MOL2 file generated by ConQuest
# Please check atom types

@<TRIPOS>MOLECULE
NIPQUA
    16    15     1
SMALL
NO_CHARGES
****
Generated from CSD

@<TRIPOS>ATOM
      1 O1         2.7114    2.9431   10.4419 O.3       1 RES1    0.0000
      2 O2         4.8609    0.7530    8.7480 O.3       1 RES1    0.0000
      3 N1         3.0718    1.9867    9.4439 N.2       1 RES1    0.0000
      4 C1         4.2890    1.6349    9.6029 C.2       1 RES1    0.0000
      5 C2         5.2256    2.1182   10.6590 C.3       1 RES1    0.0000
      6 H1         5.5085    3.0327   10.4501 H         1 RES1    0.0000
      7 H2         6.0116    1.5325   10.6920 H         1 RES1    0.0000
      8 H3         4.7720    2.1071   11.5273 H         1 RES1    0.0000
      9 C3         4.0772    0.3213    7.6048 C.3       1 RES1    0.0000
     10 H4         3.7410    1.1048    7.1011 H         1 RES1    0.0000
     11 H5         3.3036   -0.2194    7.9012 H         1 RES1    0.0000
     12 C4         4.9962   -0.5054    6.7408 C.3       1 RES1    0.0000
     13 H6         5.7374    0.0521    6.4258 H         1 RES1    0.0000
     14 H7         4.4978   -0.8514    5.9709 H         1 RES1    0.0000
     15 H8         5.3507   -1.2548    7.2636 H         1 RES1    0.0000
     16 H9         1.9516    3.2662   10.1615 H         1 RES1    0.0000
@<TRIPOS>BOND
     1    1    3 1
     2    2    4 1
     3    3    4 2
     4    4    5 1
     5    5    6 1
     6    7    5 1
     7    8    5 1
     8    9    2 1
     9   10    9 1
    10   11    9 1
    11   12    9 1
    12   13   12 1
    13   14   12 1
    14   15   12 1
    15   16    1 1
@<TRIPOS>SUBSTRUCTURE
     1 RES1 1

@<TRIPOS>CRYSIN
  19.9481    4.4138   13.3277  90.0000 109.0270  90.0000  15 1

