# MOL2 file generated by ConQuest
# Please check atom types

@<TRIPOS>MOLECULE
NIPXBZ
    45    48     1
SMALL
NO_CHARGES
****
Generated from CSD

@<TRIPOS>ATOM
      1 C1         9.2529    0.9997    4.7694 C.ar      1 RES1    0.0000
      2 C2         7.8776    1.2765    4.8688 C.ar      1 RES1    0.0000
      3 C3         7.0843    0.4641    5.6187 C.ar      1 RES1    0.0000
      4 C4         7.6215   -0.6619    6.2356 C.ar      1 RES1    0.0000
      5 C5         8.9538   -0.9229    6.0978 C.ar      1 RES1    0.0000
      6 C6         9.7814   -0.0905    5.4097 C.ar      1 RES1    0.0000
      7 O1        10.0424    1.8066    3.9780 O.3       1 RES1    0.0000
      8 O2         7.4144    2.4149    4.2450 O.3       1 RES1    0.0000
      9 O3         5.6971    0.6659    5.7025 O.3       1 RES1    0.0000
     10 C7         5.2845    1.9061    6.0696 C.ar      1 RES1    0.0000
     11 C8         4.0734    2.3965    5.5373 C.ar      1 RES1    0.0000
     12 C9         3.6351    3.6619    5.7902 C.ar      1 RES1    0.0000
     13 C10        4.3919    4.4342    6.6418 C.ar      1 RES1    0.0000
     14 C11        5.5158    4.0053    7.2250 C.ar      1 RES1    0.0000
     15 C12        5.9918    2.7235    6.9377 C.ar      1 RES1    0.0000
     16 N1         3.2861    1.5676    4.6191 N.pl3     1 RES1    0.0000
     17 O4         2.7166    2.1209    3.6916 O.2       1 RES1    0.0000
     18 O5         3.1664    0.4041    4.8947 O.2       1 RES1    0.0000
     19 N2         3.9359    5.8254    6.8767 N.pl3     1 RES1    0.0000
     20 O6         2.8640    6.1815    6.4109 O.2       1 RES1    0.0000
     21 O7         4.6245    6.5416    7.5608 O.2       1 RES1    0.0000
     22 C13       10.1743    3.0985    4.3600 C.ar      1 RES1    0.0000
     23 C14       10.3619    4.0595    3.3910 C.ar      1 RES1    0.0000
     24 C15       10.5614    5.3755    3.7096 C.ar      1 RES1    0.0000
     25 C16       10.4866    5.7335    5.0207 C.ar      1 RES1    0.0000
     26 C17       10.3147    4.8294    6.0250 C.ar      1 RES1    0.0000
     27 C18       10.1655    3.4939    5.6868 C.ar      1 RES1    0.0000
     28 N3        10.3388    3.6933    1.9757 N.pl3     1 RES1    0.0000
     29 O8         9.4751    2.8965    1.5984 O.2       1 RES1    0.0000
     30 O9        10.9795    4.2858    1.1914 O.2       1 RES1    0.0000
     31 N4        10.6588    7.1508    5.3714 N.pl3     1 RES1    0.0000
     32 O10       10.4844    7.4797    6.5283 O.2       1 RES1    0.0000
     33 O11       10.8661    7.9324    4.4978 O.2       1 RES1    0.0000
     34 C19        6.5398    2.3037    3.2164 C.ar      1 RES1    0.0000
     35 C20        6.0293    3.4857    2.6841 C.ar      1 RES1    0.0000
     36 C21        5.1100    3.4722    1.6751 C.ar      1 RES1    0.0000
     37 C22        4.6767    2.2594    1.1976 C.ar      1 RES1    0.0000
     38 C23        5.1775    1.0600    1.6548 C.ar      1 RES1    0.0000
     39 C24        6.1144    1.0888    2.6810 C.ar      1 RES1    0.0000
     40 N5         6.4908    4.7780    3.2086 N.pl3     1 RES1    0.0000
     41 O12        6.7098    5.6077    2.4274 O.2       1 RES1    0.0000
     42 O13        6.5566    4.9391    4.3968 O.2       1 RES1    0.0000
     43 N6         3.6601    2.2202    0.1386 N.pl3     1 RES1    0.0000
     44 O14        3.2874    3.2585   -0.3413 O.2       1 RES1    0.0000
     45 O15        3.2865    1.1190   -0.2348 O.2       1 RES1    0.0000
@<TRIPOS>BOND
     1    1    2 ar
     2    2    3 ar
     3    3    4 ar
     4    4    5 ar
     5    5    6 ar
     6    6    1 ar
     7    7    1 1
     8    8    2 1
     9    9    3 1
    10   10    9 1
    11   11   10 ar
    12   12   11 ar
    13   13   12 ar
    14   14   13 ar
    15   15   10 ar
    16   16   11 1
    17   17   16 2
    18   18   16 2
    19   19   13 1
    20   20   19 2
    21   21   19 2
    22   22    7 1
    23   23   22 ar
    24   24   23 ar
    25   25   24 ar
    26   26   25 ar
    27   27   22 ar
    28   28   23 1
    29   29   28 2
    30   30   28 2
    31   31   25 1
    32   32   31 2
    33   33   31 2
    34   34    8 1
    35   35   34 ar
    36   36   35 ar
    37   37   36 ar
    38   38   37 ar
    39   39   34 ar
    40   40   35 1
    41   41   40 2
    42   42   40 2
    43   43   37 1
    44   44   43 2
    45   45   43 2
    46   14   15 ar
    47   26   27 ar
    48   38   39 ar
@<TRIPOS>SUBSTRUCTURE
     1 RES1 1

@<TRIPOS>CRYSIN
  10.4530   16.5240    8.1460 104.4800 101.1100  71.2800   2 1

