# MOL2 file generated by ConQuest
# Please check atom types

@<TRIPOS>MOLECULE
NIPZOC
    47    51     1
SMALL
NO_CHARGES
****
Generated from CSD

@<TRIPOS>ATOM
      1 C1        -0.6517    1.1374   11.8469 C.3       1 RES1    0.0000
      2 H1        -0.7509    2.0619   11.5362 H         1 RES1    0.0000
      3 H2        -0.1149    1.1226   12.6671 H         1 RES1    0.0000
      4 H3        -1.5366    0.7580   12.0281 H         1 RES1    0.0000
      5 C2         0.0276    0.3293   10.7914 C.ar      1 RES1    0.0000
      6 C3         0.8907   -0.7594   10.9162 C.ar      1 RES1    0.0000
      7 C4         1.3447   -1.0986    9.6394 C.ar      1 RES1    0.0000
      8 C5         0.7238   -0.2264    8.7336 C.ar      1 RES1    0.0000
      9 C6         0.7902   -0.1989    7.3121 C.2       1 RES1    0.0000
     10 C7         1.2317   -1.4279   12.1998 C.ar      1 RES1    0.0000
     11 C8         2.5362   -1.4533   12.6802 C.ar      1 RES1    0.0000
     12 H4         3.2300   -1.0323   12.1859 H         1 RES1    0.0000
     13 C9         2.8298   -2.0908   13.8785 C.ar      1 RES1    0.0000
     14 H5         3.7231   -2.0950   14.2017 H         1 RES1    0.0000
     15 C10        1.8366   -2.7198   14.6054 C.ar      1 RES1    0.0000
     16 H6         2.0462   -3.1626   15.4182 H         1 RES1    0.0000
     17 C11        0.5395   -2.7007   14.1407 C.ar      1 RES1    0.0000
     18 H7        -0.1494   -3.1266   14.6375 H         1 RES1    0.0000
     19 C12        0.2413   -2.0576   12.9457 C.ar      1 RES1    0.0000
     20 H8        -0.6565   -2.0478   12.6324 H         1 RES1    0.0000
     21 C13        2.2626   -2.2092    9.2731 C.ar      1 RES1    0.0000
     22 C14        1.9784   -3.5124    9.6837 C.ar      1 RES1    0.0000
     23 H9         1.2208   -3.6830   10.2315 H         1 RES1    0.0000
     24 C15        2.8000   -4.5595    9.2931 C.ar      1 RES1    0.0000
     25 H10        2.5980   -5.4452    9.5739 H         1 RES1    0.0000
     26 C16        3.9026   -4.3303    8.5077 C.ar      1 RES1    0.0000
     27 H11        4.4426   -5.0580    8.2237 H         1 RES1    0.0000
     28 C17        4.2243   -3.0343    8.1304 C.ar      1 RES1    0.0000
     29 H12        5.0015   -2.8671    7.6088 H         1 RES1    0.0000
     30 C18        3.4130   -1.9913    8.5154 C.ar      1 RES1    0.0000
     31 H13        3.6418   -1.1057    8.2612 H         1 RES1    0.0000
     32 C19        0.6803    1.8320    4.9054 C.ar      1 RES1    0.0000
     33 C20        1.2820    2.9870    5.4275 C.ar      1 RES1    0.0000
     34 H14        1.2401    3.2127    6.3496 H         1 RES1    0.0000
     35 C21        1.9317    3.7634    4.5075 C.ar      1 RES1    0.0000
     36 H15        2.3477    4.5651    4.8016 H         1 RES1    0.0000
     37 C22        2.0103    3.4228    3.1441 C.ar      1 RES1    0.0000
     38 H16        2.4877    3.9911    2.5505 H         1 RES1    0.0000
     39 C23        1.4154    2.2931    2.6503 C.ar      1 RES1    0.0000
     40 H17        1.4749    2.0633    1.7298 H         1 RES1    0.0000
     41 C24        0.7166    1.4921    3.5606 C.ar      1 RES1    0.0000
     42 N1        -0.0906    0.6318    9.4650 N.ar      1 RES1    0.0000
     43 N2         0.0230    0.3067    3.3753 N.2       1 RES1    0.0000
     44 N3        -0.4347   -0.0931    4.5386 N.2       1 RES1    0.0000
     45 N4        -0.0807    0.8419    5.4481 N.3       1 RES1    0.0000
     46 O1        -0.2654    0.6191    6.7894 O.3       1 RES1    0.0000
     47 O2         1.5681   -0.7327    6.5635 O.2       1 RES1    0.0000
@<TRIPOS>BOND
     1    1    2 1
     2    3    1 1
     3    4    1 1
     4    5    1 1
     5    6    5 ar
     6    7    6 ar
     7    8    7 ar
     8    9    8 1
     9   10    6 1
    10   11   10 ar
    11   12   11 1
    12   13   11 ar
    13   14   13 1
    14   15   13 ar
    15   16   15 1
    16   17   15 ar
    17   18   17 1
    18   19   10 ar
    19   20   19 1
    20   21    7 1
    21   22   21 ar
    22   23   22 1
    23   24   22 ar
    24   25   24 1
    25   26   24 ar
    26   27   26 1
    27   28   26 ar
    28   29   28 1
    29   30   21 ar
    30   31   30 1
    31   32   33 ar
    32   33   34 1
    33   35   33 ar
    34   36   35 1
    35   37   35 ar
    36   38   37 1
    37   39   37 ar
    38   40   39 1
    39   41   32 ar
    40   42    5 ar
    41   43   41 1
    42   44   43 2
    43   45   32 1
    44   46    9 1
    45   47    9 2
    46    8   42 ar
    47   17   19 ar
    48   28   30 ar
    49   39   41 ar
    50   44   45 1
    51   45   46 1
@<TRIPOS>SUBSTRUCTURE
     1 RES1 1

@<TRIPOS>CRYSIN
  10.4853    7.0515   26.9705  90.0000  97.5750  90.0000  14 1

