# MOL2 file generated by ConQuest
# Please check atom types

@<TRIPOS>MOLECULE
NIQQOU
    36    39     1
SMALL
NO_CHARGES
****
Generated from CSD

@<TRIPOS>ATOM
      1 N1         1.6092   -0.2940   10.7833 N.pl3     1 RES1    0.0000
      2 O1         6.6846    3.3162    8.8210 O.3       1 RES1    0.0000
      3 O2         7.4970    1.3399    9.6873 O.3       1 RES1    0.0000
      4 O3         1.6422    3.1790    8.9082 O.3       1 RES1    0.0000
      5 H1         0.8797    3.2309    8.6124 H         1 RES1    0.0000
      6 O4         1.3048    1.0043    8.5380 O.2       1 RES1    0.0000
      7 O5         1.3179    0.7640   11.3169 O.2       1 RES1    0.0000
      8 O6         0.8112   -1.1989   10.5610 O.2       1 RES1    0.0000
      9 O7         4.3457   -4.1378   11.7771 O.3       1 RES1    0.0000
     10 C1         3.4253    1.7209    9.3654 C.ar      1 RES1    0.0000
     11 C2         4.3093    2.7204    8.9897 C.ar      1 RES1    0.0000
     12 H2         4.0079    3.5241    8.6322 H         1 RES1    0.0000
     13 C3         5.6454    2.4761    9.1679 C.ar      1 RES1    0.0000
     14 C4         6.1248    1.3032    9.6697 C.ar      1 RES1    0.0000
     15 C5         7.1772   -1.3005   10.7198 C.ar      1 RES1    0.0000
     16 H3         7.8116   -0.6561   10.4982 H         1 RES1    0.0000
     17 C6         7.5815   -2.5313   11.1807 C.ar      1 RES1    0.0000
     18 H4         8.4914   -2.7087   11.2502 H         1 RES1    0.0000
     19 C7         6.6766   -3.5150   11.5463 C.ar      1 RES1    0.0000
     20 H5         6.9770   -4.3340   11.8699 H         1 RES1    0.0000
     21 C8         5.3320   -3.2689   11.4262 C.ar      1 RES1    0.0000
     22 C9         3.4824   -1.7438   10.8638 C.ar      1 RES1    0.0000
     23 H6         2.8729   -2.4037   11.1064 H         1 RES1    0.0000
     24 C10        3.0289   -0.5381   10.4598 C.ar      1 RES1    0.0000
     25 C11        3.8799    0.5067    9.9566 C.ar      1 RES1    0.0000
     26 C12        5.2947    0.2544   10.0817 C.ar      1 RES1    0.0000
     27 C13        5.8008   -1.0149   10.5815 C.ar      1 RES1    0.0000
     28 C14        4.8728   -2.0227   10.9252 C.ar      1 RES1    0.0000
     29 C15        7.8670    2.6236    9.1776 C.3       1 RES1    0.0000
     30 H7         8.3533    3.1223    9.8536 H         1 RES1    0.0000
     31 H8         8.4401    2.5213    8.4009 H         1 RES1    0.0000
     32 C16        2.0180    1.9273    8.9277 C.2       1 RES1    0.0000
     33 C17        4.7061   -5.2816   12.5360 C.3       1 RES1    0.0000
     34 H9         3.9225   -5.8056   12.7161 H         1 RES1    0.0000
     35 H10        5.1042   -5.0037   13.3640 H         1 RES1    0.0000
     36 H11        5.3367   -5.8092   12.0402 H         1 RES1    0.0000
@<TRIPOS>BOND
     1    1    7 2
     2    2   13 1
     3    3   14 1
     4    4    5 1
     5    6   32 2
     6    8    1 2
     7    9   21 1
     8   10   11 ar
     9   11   12 1
    10   13   11 ar
    11   14   13 ar
    12   15   16 1
    13   17   15 ar
    14   18   17 1
    15   19   17 ar
    16   20   19 1
    17   21   19 ar
    18   22   23 1
    19   24    1 1
    20   25   10 ar
    21   26   14 ar
    22   27   15 ar
    23   28   21 ar
    24   29    2 1
    25   30   29 1
    26   31   29 1
    27   32    4 1
    28   33    9 1
    29   34   33 1
    30   35   33 1
    31   36   33 1
    32    3   29 1
    33   10   32 1
    34   22   24 ar
    35   22   28 ar
    36   24   25 ar
    37   25   26 ar
    38   26   27 ar
    39   27   28 ar
@<TRIPOS>SUBSTRUCTURE
     1 RES1 1

@<TRIPOS>CRYSIN
  19.6950    9.0500   18.9860  90.0000 119.4830  90.0000  15 1

