# MOL2 file generated by ConQuest
# Please check atom types

@<TRIPOS>MOLECULE
NIRJEE
    20    20     1
SMALL
NO_CHARGES
****
Generated from CSD

@<TRIPOS>ATOM
      1 O1         7.4197    0.3536    9.1610 O.3       1 RES1    0.0000
      2 N1         6.2095    0.9234    8.7711 N.2       1 RES1    0.0000
      3 C1         5.2958    0.7993    9.6450 C.2       1 RES1    0.0000
      4 C2         3.9699    1.3320    9.4320 C.ar      1 RES1    0.0000
      5 C3         3.5783    1.9243    8.2228 C.ar      1 RES1    0.0000
      6 O2         4.4641    2.0223    7.1755 O.3       1 RES1    0.0000
      7 C4         2.3056    2.4202    8.0195 C.ar      1 RES1    0.0000
      8 C5         1.9289    3.0291    6.7003 C.3       1 RES1    0.0000
      9 C6         1.4045    2.3202    9.0659 C.ar      1 RES1    0.0000
     10 C7         1.7602    1.7532   10.2715 C.ar      1 RES1    0.0000
     11 C8         3.0231    1.2660   10.4625 C.ar      1 RES1    0.0000
     12 H1         7.9800    0.6125    8.6411 H         1 RES1    0.0000
     13 H2         5.4448    0.3173   10.4053 H         1 RES1    0.0000
     14 H3         5.2446    1.6793    7.3838 H         1 RES1    0.0000
     15 H4         1.0271    3.3748    6.7328 H         1 RES1    0.0000
     16 H5         2.5098    3.7731    6.4808 H         1 RES1    0.0000
     17 H6         1.9653    2.3830    6.0156 H         1 RES1    0.0000
     18 H7         0.5246    2.6616    8.9147 H         1 RES1    0.0000
     19 H8         1.1450    1.6995   10.9641 H         1 RES1    0.0000
     20 H9         3.2656    0.8511   11.2895 H         1 RES1    0.0000
@<TRIPOS>BOND
     1    1    2 1
     2    2    3 2
     3    3    4 1
     4    4    5 ar
     5    5    6 1
     6    6   14 1
     7    7    5 ar
     8    8    7 1
     9    9    7 ar
    10   10    9 ar
    11   11    4 ar
    12   12    1 1
    13   13    3 1
    14   15    8 1
    15   16    8 1
    16   17    8 1
    17   18    9 1
    18   19   10 1
    19   20   11 1
    20   10   11 ar
@<TRIPOS>SUBSTRUCTURE
     1 RES1 1

@<TRIPOS>CRYSIN
  13.2490    3.9513   14.4020  90.0000  90.3240  90.0000  14 1

