# MOL2 file generated by ConQuest
# Please check atom types

@<TRIPOS>MOLECULE
NIRJII05
    29    29     1
SMALL
NO_CHARGES
****
Generated from CSD

@<TRIPOS>ATOM
      1 O1         0.6907    2.1665    5.5000 O.3       1 RES1    0.0000
      2 N1         1.6783    2.7041    4.6648 N.2       1 RES1    0.0000
      3 C1         1.3329    3.8669    4.2471 C.2       1 RES1    0.0000
      4 C2         2.1813    4.6281    3.3448 C.ar      1 RES1    0.0000
      5 C3         3.3832    4.1348    2.8507 C.ar      1 RES1    0.0000
      6 O2         3.8051    2.8751    3.2042 O.3       1 RES1    0.0000
      7 C4         4.2041    4.8713    1.9968 C.ar      1 RES1    0.0000
      8 C5         5.5049    4.3374    1.4300 C.3       1 RES1    0.0000
      9 C6         6.4830    3.8928    2.5337 C.3       1 RES1    0.0000
     10 C7         5.2367    3.1639    0.4773 C.3       1 RES1    0.0000
     11 C8         6.2552    5.4121    0.6693 C.3       1 RES1    0.0000
     12 C9         3.7260    6.1511    1.6593 C.ar      1 RES1    0.0000
     13 C10        2.5377    6.6552    2.1310 C.ar      1 RES1    0.0000
     14 C11        1.7594    5.9035    2.9756 C.ar      1 RES1    0.0000
     15 H1         1.0521    1.5072    5.8543 H         1 RES1    0.0000
     16 H2         0.5266    4.2437    4.5268 H         1 RES1    0.0000
     17 H3         3.2314    2.5142    3.7848 H         1 RES1    0.0000
     18 H4         7.1254    3.3083    2.1273 H         1 RES1    0.0000
     19 H5         6.9353    4.6597    2.9160 H         1 RES1    0.0000
     20 H6         6.0166    3.4141    3.2292 H         1 RES1    0.0000
     21 H7         6.0722    2.7687    0.2237 H         1 RES1    0.0000
     22 H8         4.7670    3.4812   -0.3058 H         1 RES1    0.0000
     23 H9         4.7037    2.5040    0.9453 H         1 RES1    0.0000
     24 H10        7.1286    5.0936    0.4102 H         1 RES1    0.0000
     25 H11        6.3579    6.2100    1.2193 H         1 RES1    0.0000
     26 H12        5.7590    5.6331   -0.1231 H         1 RES1    0.0000
     27 H13        4.2432    6.6856    1.0832 H         1 RES1    0.0000
     28 H14        2.2619    7.5153    1.8775 H         1 RES1    0.0000
     29 H15        0.9644    6.2423    3.3205 H         1 RES1    0.0000
@<TRIPOS>BOND
     1    1    2 1
     2    2    3 2
     3    3    4 1
     4    4    5 ar
     5    5    6 1
     6    6   17 1
     7    7    5 ar
     8    8    7 1
     9    9    8 1
    10   10    8 1
    11   11    8 1
    12   12    7 ar
    13   13   12 ar
    14   14    4 ar
    15   15    1 1
    16   16    3 1
    17   18    9 1
    18   19    9 1
    19   20    9 1
    20   21   10 1
    21   22   10 1
    22   23   10 1
    23   24   11 1
    24   25   11 1
    25   26   11 1
    26   27   12 1
    27   28   13 1
    28   29   14 1
    29   13   14 ar
@<TRIPOS>SUBSTRUCTURE
     1 RES1 1

