# MOL2 file generated by ConQuest
# Please check atom types

@<TRIPOS>MOLECULE
NIRJII06
    29    29     1
SMALL
NO_CHARGES
****
Generated from CSD

@<TRIPOS>ATOM
      1 O1         0.6462    2.1531    5.4709 O.3       1 RES1    0.0000
      2 N1         1.6544    2.6895    4.6038 N.2       1 RES1    0.0000
      3 C1         1.3177    3.8461    4.1941 C.2       1 RES1    0.0000
      4 C2         2.1210    4.6037    3.3215 C.ar      1 RES1    0.0000
      5 C3         3.3256    4.1278    2.8090 C.ar      1 RES1    0.0000
      6 O2         3.7471    2.8571    3.1543 O.3       1 RES1    0.0000
      7 C4         4.1785    4.8565    1.9400 C.ar      1 RES1    0.0000
      8 C5         5.4476    4.3113    1.4109 C.3       1 RES1    0.0000
      9 C6         6.4223    3.8486    2.5040 C.3       1 RES1    0.0000
     10 C7         5.1947    3.1502    0.4372 C.3       1 RES1    0.0000
     11 C8         6.2415    5.3853    0.6485 C.3       1 RES1    0.0000
     12 C9         3.6764    6.1309    1.6314 C.ar      1 RES1    0.0000
     13 C10        2.5142    6.6484    2.0888 C.ar      1 RES1    0.0000
     14 C11        1.7243    5.8920    2.9412 C.ar      1 RES1    0.0000
     15 H1         0.9660    1.3930    5.7318 H         1 RES1    0.0000
     16 H2         0.5028    4.2035    4.4863 H         1 RES1    0.0000
     17 H3         3.2420    2.5401    3.7661 H         1 RES1    0.0000
     18 H4         7.0828    3.2820    2.1127 H         1 RES1    0.0000
     19 H5         6.8714    4.6050    2.9027 H         1 RES1    0.0000
     20 H6         5.9557    3.3582    3.1892 H         1 RES1    0.0000
     21 H7         6.0335    2.7803    0.1488 H         1 RES1    0.0000
     22 H8         4.7004    3.4641   -0.3307 H         1 RES1    0.0000
     23 H9         4.6888    2.4676    0.8818 H         1 RES1    0.0000
     24 H10        7.0801    5.0273    0.3472 H         1 RES1    0.0000
     25 H11        6.4114    6.1410    1.2309 H         1 RES1    0.0000
     26 H12        5.7279    5.6658   -0.1121 H         1 RES1    0.0000
     27 H13        4.1891    6.6597    1.0582 H         1 RES1    0.0000
     28 H14        2.2329    7.4936    1.8279 H         1 RES1    0.0000
     29 H15        0.9235    6.2337    3.2646 H         1 RES1    0.0000
@<TRIPOS>BOND
     1    1    2 1
     2    2    3 2
     3    3    4 1
     4    4    5 ar
     5    5    6 1
     6    6   17 1
     7    7    5 ar
     8    8    7 1
     9    9    8 1
    10   10    8 1
    11   11    8 1
    12   12    7 ar
    13   13   12 ar
    14   14    4 ar
    15   15    1 1
    16   16    3 1
    17   18    9 1
    18   19    9 1
    19   20    9 1
    20   21   10 1
    21   22   10 1
    22   23   10 1
    23   24   11 1
    24   25   11 1
    25   26   11 1
    26   27   12 1
    27   28   13 1
    28   29   14 1
    29   13   14 ar
@<TRIPOS>SUBSTRUCTURE
     1 RES1 1

