# MOL2 file generated by ConQuest
# Please check atom types

@<TRIPOS>MOLECULE
NIRJII02
    58    58     2
SMALL
NO_CHARGES
****
Generated from CSD

@<TRIPOS>ATOM
      1 O1         5.7982    0.4129   -2.5457 O.3       1 RES1    0.0000
      2 N1         5.3167    0.7253   -1.2704 N.2       1 RES1    0.0000
      3 C1         4.1607    1.2947   -1.3286 C.2       1 RES1    0.0000
      4 C2         3.5031    1.7593   -0.1213 C.ar      1 RES1    0.0000
      5 C3         4.0223    1.6246    1.1528 C.ar      1 RES1    0.0000
      6 O2         5.2631    0.9905    1.3360 O.3       1 RES1    0.0000
      7 C4         3.3970    2.1202    2.3067 C.ar      1 RES1    0.0000
      8 C5         4.0115    2.0176    3.7307 C.3       1 RES1    0.0000
      9 C6         4.1500    0.5404    4.1096 C.3       1 RES1    0.0000
     10 C7         5.3765    2.7020    3.7765 C.3       1 RES1    0.0000
     11 C8         3.1374    2.6730    4.8128 C.3       1 RES1    0.0000
     12 C9         2.1518    2.7298    2.0888 C.ar      1 RES1    0.0000
     13 C10        1.5973    2.8490    0.8506 C.ar      1 RES1    0.0000
     14 C11        2.2541    2.3758   -0.2489 C.ar      1 RES1    0.0000
     15 H1         6.5525   -0.0008   -2.4083 H         1 RES1    0.0000
     16 H2         3.7429    1.4262   -2.1495 H         1 RES1    0.0000
     17 H3         5.6187    0.8083    0.5572 H         1 RES1    0.0000
     18 H4         4.6835    0.4653    4.9032 H         1 RES1    0.0000
     19 H5         3.2927    0.1482    4.2730 H         1 RES1    0.0000
     20 H6         4.5767    0.0554    3.3939 H         1 RES1    0.0000
     21 H7         5.7745    2.5609    4.6432 H         1 RES1    0.0000
     22 H8         5.2657    3.6419    3.6279 H         1 RES1    0.0000
     23 H9         5.9623    2.3277    3.0967 H         1 RES1    0.0000
     24 H10        3.6233    2.7039    5.6437 H         1 RES1    0.0000
     25 H11        2.3371    2.1457    4.9354 H         1 RES1    0.0000
     26 H12        2.8913    3.5627    4.5392 H         1 RES1    0.0000
     27 H13        1.6856    3.0580    2.8218 H         1 RES1    0.0000
     28 H14        0.7624    3.2544    0.7553 H         1 RES1    0.0000
     29 H15        1.8736    2.4664   -1.0970 H         1 RES1    0.0000
     30 O3         5.6938    7.3965    8.5856 O.3       2 RES2    0.0000
     31 N2         5.0678    7.3571    7.3635 N.2       2 RES2    0.0000
     32 C12        3.9574    6.7250    7.3970 C.2       2 RES2    0.0000
     33 C13        3.1488    6.5322    6.2615 C.ar      2 RES2    0.0000
     34 C14        3.4878    6.9108    4.8847 C.ar      2 RES2    0.0000
     35 O4         4.7205    7.5555    4.7807 O.3       2 RES2    0.0000
     36 C15        2.7013    6.6710    3.8149 C.ar      2 RES2    0.0000
     37 C16        3.1888    7.0239    2.3848 C.3       2 RES2    0.0000
     38 C17        3.3775    8.5430    2.2510 C.3       2 RES2    0.0000
     39 C18        4.4883    6.2815    2.0950 C.3       2 RES2    0.0000
     40 C19        2.1987    6.6589    1.4437 C.3       2 RES2    0.0000
     41 C20        1.4716    6.0757    4.0229 C.ar      2 RES2    0.0000
     42 C21        1.0924    5.7236    5.3960 C.ar      2 RES2    0.0000
     43 C22        1.8814    5.9259    6.3854 C.ar      2 RES2    0.0000
     44 H16        6.2713    8.0273    8.5188 H         2 RES2    0.0000
     45 H17        3.6589    6.3903    8.2179 H         2 RES2    0.0000
     46 H18        5.1707    7.4306    5.4728 H         2 RES2    0.0000
     47 H19        3.6930    8.7467    1.3645 H         2 RES2    0.0000
     48 H20        2.5346    8.9961    2.3885 H         2 RES2    0.0000
     49 H21        4.0217    8.8437    2.8998 H         2 RES2    0.0000
     50 H22        4.7774    6.4525    1.1936 H         2 RES2    0.0000
     51 H23        4.3502    5.3369    2.1966 H         2 RES2    0.0000
     52 H24        5.1700    6.5733    2.7030 H         2 RES2    0.0000
     53 H25        2.5229    6.8319    0.5522 H         2 RES2    0.0000
     54 H26        1.3982    7.1634    1.6096 H         2 RES2    0.0000
     55 H27        1.9988    5.7210    1.5316 H         2 RES2    0.0000
     56 H28        0.8924    5.9007    3.3134 H         2 RES2    0.0000
     57 H29        0.2535    5.3528    5.5483 H         2 RES2    0.0000
     58 H30        1.6033    5.6383    7.2372 H         2 RES2    0.0000
@<TRIPOS>BOND
     1    1    2 1
     2    2    3 2
     3    3    4 1
     4    4    5 ar
     5    5    6 1
     6    6   17 1
     7    7    5 ar
     8    8    7 1
     9    9    8 1
    10   10    8 1
    11   11    8 1
    12   12    7 ar
    13   13   12 ar
    14   14    4 ar
    15   15    1 1
    16   16    3 1
    17   18    9 1
    18   19    9 1
    19   20    9 1
    20   21   10 1
    21   22   10 1
    22   23   10 1
    23   24   11 1
    24   25   11 1
    25   26   11 1
    26   27   12 1
    27   28   13 1
    28   29   14 1
    29   30   31 1
    30   31   32 2
    31   32   33 1
    32   33   34 ar
    33   34   35 1
    34   35   46 1
    35   36   34 ar
    36   37   36 1
    37   38   37 1
    38   39   37 1
    39   40   37 1
    40   41   36 ar
    41   42   41 ar
    42   43   33 ar
    43   44   30 1
    44   45   32 1
    45   47   38 1
    46   48   38 1
    47   49   38 1
    48   50   39 1
    49   51   39 1
    50   52   39 1
    51   53   40 1
    52   54   40 1
    53   55   40 1
    54   56   41 1
    55   57   42 1
    56   58   43 1
    57   13   14 ar
    58   42   43 ar
@<TRIPOS>SUBSTRUCTURE
     1 RES1 1
     2 RES2 30

@<TRIPOS>CRYSIN
   6.5597   12.8532   13.4790  69.3110  76.0540  79.0350   2 1

