# MOL2 file generated by ConQuest
# Please check atom types

@<TRIPOS>MOLECULE
NIRJEE07
    20    20     1
SMALL
NO_CHARGES
****
Generated from CSD

@<TRIPOS>ATOM
      1 O1         6.9311    0.0707    8.4574 O.3       1 RES1    0.0000
      2 N1         5.7358    0.6558    8.0863 N.2       1 RES1    0.0000
      3 C1         4.7946    0.4614    8.9555 C.2       1 RES1    0.0000
      4 C2         3.5028    1.0052    8.7525 C.ar      1 RES1    0.0000
      5 C3         3.1121    1.6248    7.5442 C.ar      1 RES1    0.0000
      6 O2         4.0150    1.7541    6.5252 O.3       1 RES1    0.0000
      7 C4         1.8401    2.0934    7.3237 C.ar      1 RES1    0.0000
      8 C5         1.4976    2.7186    6.0026 C.3       1 RES1    0.0000
      9 C6         0.8887    1.9669    8.3420 C.ar      1 RES1    0.0000
     10 C7         1.2443    1.3807    9.5670 C.ar      1 RES1    0.0000
     11 C8         2.5137    0.9148    9.7590 C.ar      1 RES1    0.0000
     12 H1         7.5786    0.5103    7.9275 H         1 RES1    0.0000
     13 H2         4.9690   -0.0317    9.7361 H         1 RES1    0.0000
     14 H3         4.7482    1.3724    6.7324 H         1 RES1    0.0000
     15 H4         0.6789    3.2251    6.0645 H         1 RES1    0.0000
     16 H5         2.2029    3.3441    5.7590 H         1 RES1    0.0000
     17 H6         1.4173    2.0544    5.3155 H         1 RES1    0.0000
     18 H7         0.0107    2.2858    8.2130 H         1 RES1    0.0000
     19 H8         0.6077    1.3162   10.2314 H         1 RES1    0.0000
     20 H9         2.7468    0.5196   10.5979 H         1 RES1    0.0000
@<TRIPOS>BOND
     1    1    2 1
     2    2    3 2
     3    3    4 1
     4    4    5 ar
     5    5    6 1
     6    6   14 1
     7    7    5 ar
     8    8    7 1
     9    9    7 ar
    10   10    9 ar
    11   11    4 ar
    12   12    1 1
    13   13    3 1
    14   15    8 1
    15   16    8 1
    16   17    8 1
    17   18    9 1
    18   19   10 1
    19   20   11 1
    20   10   11 ar
@<TRIPOS>SUBSTRUCTURE
     1 RES1 1

@<TRIPOS>CRYSIN
  12.7500    3.4482   13.2910  90.0000  92.4500  90.0000  14 1

