# MOL2 file generated by ConQuest
# Please check atom types

@<TRIPOS>MOLECULE
NIRJII07
    29    29     1
SMALL
NO_CHARGES
****
Generated from CSD

@<TRIPOS>ATOM
      1 O1         0.6146    2.1399    5.4139 O.3       1 RES1    0.0000
      2 N1         1.5967    2.6678    4.5631 N.2       1 RES1    0.0000
      3 C1         1.2604    3.8416    4.1548 C.2       1 RES1    0.0000
      4 C2         2.1100    4.5896    3.2480 C.ar      1 RES1    0.0000
      5 C3         3.2946    4.0917    2.7621 C.ar      1 RES1    0.0000
      6 O2         3.6714    2.8321    3.1053 O.3       1 RES1    0.0000
      7 C4         4.1287    4.8310    1.9112 C.ar      1 RES1    0.0000
      8 C5         5.3929    4.2780    1.3639 C.3       1 RES1    0.0000
      9 C6         6.3663    3.7952    2.4532 C.3       1 RES1    0.0000
     10 C7         5.0885    3.1312    0.4209 C.3       1 RES1    0.0000
     11 C8         6.1696    5.3583    0.6323 C.3       1 RES1    0.0000
     12 C9         3.6457    6.1288    1.5861 C.ar      1 RES1    0.0000
     13 C10        2.4401    6.6254    2.0702 C.ar      1 RES1    0.0000
     14 C11        1.6948    5.8736    2.8939 C.ar      1 RES1    0.0000
     15 H1         0.9990    1.5173    5.8348 H         1 RES1    0.0000
     16 H2         0.4506    4.2265    4.4493 H         1 RES1    0.0000
     17 H3         3.1075    2.4954    3.6852 H         1 RES1    0.0000
     18 H4         6.9514    3.1168    2.1081 H         1 RES1    0.0000
     19 H5         6.8996    4.5469    2.7819 H         1 RES1    0.0000
     20 H6         5.8656    3.4246    3.2010 H         1 RES1    0.0000
     21 H7         5.9266    2.7625    0.1246 H         1 RES1    0.0000
     22 H8         4.5894    3.4566   -0.3414 H         1 RES1    0.0000
     23 H9         4.5768    2.4446    0.8761 H         1 RES1    0.0000
     24 H10        7.0280    5.0266    0.3595 H         1 RES1    0.0000
     25 H11        6.2703    6.1370    1.1941 H         1 RES1    0.0000
     26 H12        5.6822    5.5990   -0.1608 H         1 RES1    0.0000
     27 H13        4.1496    6.6718    1.0134 H         1 RES1    0.0000
     28 H14        2.1636    7.4894    1.8083 H         1 RES1    0.0000
     29 H15        0.8983    6.1821    3.2245 H         1 RES1    0.0000
@<TRIPOS>BOND
     1    1    2 1
     2    2    3 2
     3    3    4 1
     4    4    5 ar
     5    5    6 1
     6    6   17 1
     7    7    5 ar
     8    8    7 1
     9    9    8 1
    10   10    8 1
    11   11    8 1
    12   12    7 ar
    13   13   12 ar
    14   14    4 ar
    15   15    1 1
    16   16    3 1
    17   18    9 1
    18   19    9 1
    19   20    9 1
    20   21   10 1
    21   22   10 1
    22   23   10 1
    23   24   11 1
    24   25   11 1
    25   26   11 1
    26   27   12 1
    27   28   13 1
    28   29   14 1
    29   13   14 ar
@<TRIPOS>SUBSTRUCTURE
     1 RES1 1

