# MOL2 file generated by ConQuest
# Please check atom types

@<TRIPOS>MOLECULE
NIRJII
    58    58     2
SMALL
NO_CHARGES
****
Generated from CSD

@<TRIPOS>ATOM
      1 O1         5.8482    0.3922   -2.5406 O.3       1 RES1    0.0000
      2 N1         5.3600    0.7290   -1.2706 N.2       1 RES1    0.0000
      3 C1         4.2333    1.2963   -1.3209 C.2       1 RES1    0.0000
      4 C2         3.5482    1.7835   -0.1323 C.ar      1 RES1    0.0000
      5 C3         4.0957    1.6608    1.1587 C.ar      1 RES1    0.0000
      6 O2         5.2892    1.0287    1.3080 O.3       1 RES1    0.0000
      7 C4         3.4437    2.1874    2.2804 C.ar      1 RES1    0.0000
      8 C5         4.0441    2.0838    3.6956 C.3       1 RES1    0.0000
      9 C6         4.1709    0.6205    4.1104 C.3       1 RES1    0.0000
     10 C7         5.4148    2.7638    3.7290 C.3       1 RES1    0.0000
     11 C8         3.1580    2.7856    4.7281 C.3       1 RES1    0.0000
     12 C9         2.2217    2.8004    2.0571 C.ar      1 RES1    0.0000
     13 C10        1.6547    2.9056    0.7953 C.ar      1 RES1    0.0000
     14 C11        2.3163    2.4103   -0.2839 C.ar      1 RES1    0.0000
     15 H1         6.5448   -0.1070   -2.4010 H         1 RES1    0.0000
     16 H2         3.8103    1.3968   -2.1371 H         1 RES1    0.0000
     17 H3         5.5691    0.7804    0.5252 H         1 RES1    0.0000
     18 H4         4.5780    0.6022    4.9607 H         1 RES1    0.0000
     19 H5         3.2827    0.2351    4.1729 H         1 RES1    0.0000
     20 H6         4.7084    0.1149    3.4914 H         1 RES1    0.0000
     21 H7         5.7552    2.7082    4.6231 H         1 RES1    0.0000
     22 H8         5.3092    3.7018    3.5414 H         1 RES1    0.0000
     23 H9         6.0442    2.3774    3.1112 H         1 RES1    0.0000
     24 H10        3.5588    2.7008    5.5910 H         1 RES1    0.0000
     25 H11        2.2886    2.3492    4.7632 H         1 RES1    0.0000
     26 H12        3.0618    3.7134    4.5156 H         1 RES1    0.0000
     27 H13        1.7639    3.1486    2.7849 H         1 RES1    0.0000
     28 H14        0.8198    3.3193    0.6965 H         1 RES1    0.0000
     29 H15        1.9613    2.4819   -1.1330 H         1 RES1    0.0000
     30 O3         5.5977    7.6654    8.6556 O.3       2 RES2    0.0000
     31 N2         4.9685    7.5950    7.4080 N.2       2 RES2    0.0000
     32 C12        3.8745    6.9617    7.4589 C.2       2 RES2    0.0000
     33 C13        3.0479    6.7419    6.2769 C.ar      2 RES2    0.0000
     34 C14        3.4485    7.1418    4.9954 C.ar      2 RES2    0.0000
     35 O4         4.6381    7.7848    4.8376 O.3       2 RES2    0.0000
     36 C15        2.6605    6.8681    3.8643 C.ar      2 RES2    0.0000
     37 C16        3.1226    7.2292    2.4427 C.3       2 RES2    0.0000
     38 C17        3.2711    8.7419    2.2972 C.3       2 RES2    0.0000
     39 C18        4.4346    6.5251    2.1283 C.3       2 RES2    0.0000
     40 C19        2.1017    6.7946    1.3856 C.3       2 RES2    0.0000
     41 C20        1.4434    6.2486    4.1041 C.ar      2 RES2    0.0000
     42 C21        1.0156    5.8771    5.3609 C.ar      2 RES2    0.0000
     43 C22        1.8181    6.1102    6.4388 C.ar      2 RES2    0.0000
     44 H16        6.2599    8.1749    8.4659 H         2 RES2    0.0000
     45 H17        3.5665    6.6166    8.2771 H         2 RES2    0.0000
     46 H18        5.0189    7.8857    5.5897 H         2 RES2    0.0000
     47 H19        3.6295    8.9354    1.4281 H         2 RES2    0.0000
     48 H20        2.3904    9.1508    2.3659 H         2 RES2    0.0000
     49 H21        3.8586    9.1062    2.9687 H         2 RES2    0.0000
     50 H22        4.7398    6.8038    1.2630 H         2 RES2    0.0000
     51 H23        4.3119    5.5657    2.1146 H         2 RES2    0.0000
     52 H24        5.0990    6.7468    2.7761 H         2 RES2    0.0000
     53 H25        2.4344    7.0616    0.5165 H         2 RES2    0.0000
     54 H26        1.2337    7.2080    1.5431 H         2 RES2    0.0000
     55 H27        1.9793    5.8317    1.4056 H         2 RES2    0.0000
     56 H28        0.9037    6.0486    3.3688 H         2 RES2    0.0000
     57 H29        0.1886    5.4882    5.4784 H         2 RES2    0.0000
     58 H30        1.5685    5.8429    7.2892 H         2 RES2    0.0000
@<TRIPOS>BOND
     1    1    2 1
     2    2    3 2
     3    3    4 1
     4    4    5 ar
     5    5    6 1
     6    6   17 1
     7    7    5 ar
     8    8    7 1
     9    9    8 1
    10   10    8 1
    11   11    8 1
    12   12    7 ar
    13   13   12 ar
    14   14    4 ar
    15   15    1 1
    16   16    3 1
    17   18    9 1
    18   19    9 1
    19   20    9 1
    20   21   10 1
    21   22   10 1
    22   23   10 1
    23   24   11 1
    24   25   11 1
    25   26   11 1
    26   27   12 1
    27   28   13 1
    28   29   14 1
    29   30   31 1
    30   31   32 2
    31   32   33 1
    32   33   34 ar
    33   34   35 1
    34   35   46 1
    35   36   34 ar
    36   37   36 1
    37   38   37 1
    38   39   37 1
    39   40   37 1
    40   41   36 ar
    41   42   41 ar
    42   43   33 ar
    43   44   30 1
    44   45   32 1
    45   47   38 1
    46   48   38 1
    47   49   38 1
    48   50   39 1
    49   51   39 1
    50   52   39 1
    51   53   40 1
    52   54   40 1
    53   55   40 1
    54   56   41 1
    55   57   42 1
    56   58   43 1
    57   13   14 ar
    58   42   43 ar
@<TRIPOS>SUBSTRUCTURE
     1 RES1 1
     2 RES2 30

@<TRIPOS>CRYSIN
   6.6132   13.1087   13.6382  68.7620  76.7390  79.7330   2 1

