# MOL2 file generated by ConQuest
# Please check atom types

@<TRIPOS>MOLECULE
NIRJEE02
    20    20     1
SMALL
NO_CHARGES
****
Generated from CSD

@<TRIPOS>ATOM
      1 O1         7.2247    0.2105    8.8533 O.3       1 RES1    0.0000
      2 N1         6.0119    0.7864    8.4797 N.2       1 RES1    0.0000
      3 C1         5.1090    0.6451    9.3573 C.2       1 RES1    0.0000
      4 C2         3.7661    1.1733    9.1404 C.ar      1 RES1    0.0000
      5 C3         3.3674    1.7714    7.9222 C.ar      1 RES1    0.0000
      6 O2         4.2693    1.8542    6.8769 O.3       1 RES1    0.0000
      7 C4         2.1047    2.2570    7.7268 C.ar      1 RES1    0.0000
      8 C5         1.7210    2.8555    6.3913 C.3       1 RES1    0.0000
      9 C6         1.1897    2.1693    8.7801 C.ar      1 RES1    0.0000
     10 C7         1.5819    1.6097   10.0004 C.ar      1 RES1    0.0000
     11 C8         2.8255    1.1244   10.1716 C.ar      1 RES1    0.0000
     12 H1         7.9253    0.5215    8.4740 H         1 RES1    0.0000
     13 H2         5.3111    0.1916   10.1479 H         1 RES1    0.0000
     14 H3         4.9716    1.4203    7.1521 H         1 RES1    0.0000
     15 H4         0.8650    3.2701    6.4299 H         1 RES1    0.0000
     16 H5         2.3660    3.5190    6.1461 H         1 RES1    0.0000
     17 H6         1.6974    2.1767    5.7273 H         1 RES1    0.0000
     18 H7         0.3209    2.4886    8.6577 H         1 RES1    0.0000
     19 H8         0.9733    1.5690   10.6948 H         1 RES1    0.0000
     20 H9         3.0608    0.7401   10.9953 H         1 RES1    0.0000
@<TRIPOS>BOND
     1    1    2 1
     2    2    3 2
     3    3    4 1
     4    4    5 ar
     5    5    6 1
     6    6   14 1
     7    7    5 ar
     8    8    7 1
     9    9    7 ar
    10   10    9 ar
    11   11    4 ar
    12   12    1 1
    13   13    3 1
    14   15    8 1
    15   16    8 1
    16   17    8 1
    17   18    9 1
    18   19   10 1
    19   20   11 1
    20   10   11 ar
@<TRIPOS>SUBSTRUCTURE
     1 RES1 1

@<TRIPOS>CRYSIN
  12.9980    3.6988   13.9167  90.0000  90.9900  90.0000  14 1

