# MOL2 file generated by ConQuest
# Please check atom types

@<TRIPOS>MOLECULE
NIRLAC
    63    65     1
SMALL
NO_CHARGES
****
Generated from CSD

@<TRIPOS>ATOM
      1 C1        -1.9683    3.7363    7.0167 C.3       1 RES1    0.0000
      2 H1        -2.5145    2.9621    7.1756 H         1 RES1    0.0000
      3 H2        -2.5073    4.4370    6.6446 H         1 RES1    0.0000
      4 H3        -1.5878    4.0332    7.8464 H         1 RES1    0.0000
      5 O1         2.2337    3.6454    9.0307 O.3       1 RES1    0.0000
      6 O2         0.4317    4.0158   10.3108 O.2       1 RES1    0.0000
      7 C2         2.5972    4.1777   11.2915 C.ar      1 RES1    0.0000
      8 C3         4.8330    4.1963   12.1681 C.ar      1 RES1    0.0000
      9 H4         5.7484    4.0791   12.0565 H         1 RES1    0.0000
     10 C4         4.3165    4.5793   13.3894 C.ar      1 RES1    0.0000
     11 C5         3.9699    3.9920   11.1267 C.ar      1 RES1    0.0000
     12 H5         4.3021    3.7272   10.2999 H         1 RES1    0.0000
     13 C6         1.6314    3.9437   10.1788 C.2       1 RES1    0.0000
     14 C7         2.9636    4.7782   13.5885 C.ar      1 RES1    0.0000
     15 H6         2.6365    5.0423   14.4175 H         1 RES1    0.0000
     16 C8         2.1152    4.5740   12.5261 C.ar      1 RES1    0.0000
     17 H7         1.2012    4.7045   12.6396 H         1 RES1    0.0000
     18 N1         5.2393    4.7901   14.5170 N.pl3     1 RES1    0.0000
     19 C9         1.5307    5.4295    4.0797 C.3       1 RES1    0.0000
     20 H8         2.0473    5.9644    4.7173 H         1 RES1    0.0000
     21 O3         4.7810    5.1320   15.5847 O.2       1 RES1    0.0000
     22 O4         6.4308    4.6282   14.3378 O.2       1 RES1    0.0000
     23 C10        1.3875    3.3690    7.8881 C.3       1 RES1    0.0000
     24 H9         0.6100    2.8663    8.1759 H         1 RES1    0.0000
     25 H10        1.8758    2.8254    7.2490 H         1 RES1    0.0000
     26 O5         3.0811    6.9875    1.0776 O.3       1 RES1    0.0000
     27 C11        0.9380    4.6505    7.2180 C.3       1 RES1    0.0000
     28 H11        1.7136    5.2140    7.0713 H         1 RES1    0.0000
     29 H12        0.3404    5.1233    7.8180 H         1 RES1    0.0000
     30 C12        0.2210    4.4377    5.8746 C.3       1 RES1    0.0000
     31 C13        2.3266    5.4291    2.7500 C.3       1 RES1    0.0000
     32 C14        1.2385    4.0914    4.7607 C.3       1 RES1    0.0000
     33 H13        2.0473    3.7121    5.1369 H         1 RES1    0.0000
     34 H14        0.8583    3.4589    4.1318 H         1 RES1    0.0000
     35 C15        2.3679    6.8850    2.3046 C.3       1 RES1    0.0000
     36 H15        2.8589    7.3944    2.9821 H         1 RES1    0.0000
     37 C16        0.1630    6.0534    3.9955 C.3       1 RES1    0.0000
     38 H16       -0.3745    5.5230    3.3709 H         1 RES1    0.0000
     39 C17       -0.3714    5.8186    5.3920 C.3       1 RES1    0.0000
     40 H17       -1.3413    5.7863    5.3811 H         1 RES1    0.0000
     41 H18       -0.0918    6.5328    5.9856 H         1 RES1    0.0000
     42 C18       -0.8719    3.3863    6.0631 C.2       1 RES1    0.0000
     43 C19        1.7005    4.5342    1.6795 C.3       1 RES1    0.0000
     44 H19        0.7965    4.8140    1.5171 H         1 RES1    0.0000
     45 H20        1.7046    3.6233    1.9818 H         1 RES1    0.0000
     46 H21        2.2073    4.6048    0.8676 H         1 RES1    0.0000
     47 C20        0.2157    7.4710    3.4775 C.3       1 RES1    0.0000
     48 H22        0.6585    8.0395    4.1271 H         1 RES1    0.0000
     49 H23       -0.6862    7.8046    3.3472 H         1 RES1    0.0000
     50 C21        0.9705    7.5142    2.1603 C.3       1 RES1    0.0000
     51 H24        1.0599    8.4357    1.8703 H         1 RES1    0.0000
     52 H25        0.4681    7.0336    1.4839 H         1 RES1    0.0000
     53 C22        3.7439    4.9397    3.0186 C.3       1 RES1    0.0000
     54 H26        4.2563    4.9835    2.2070 H         1 RES1    0.0000
     55 H27        3.7147    4.0323    3.3306 H         1 RES1    0.0000
     56 H28        4.1527    5.4949    3.6862 H         1 RES1    0.0000
     57 C23       -0.8573    2.1939    5.5157 C.2       1 RES1    0.0000
     58 H29       -1.5235    1.5794    5.7224 H         1 RES1    0.0000
     59 H30       -0.1807    1.9637    4.9212 H         1 RES1    0.0000
     60 C24        3.7545    8.2024    0.8913 C.3       1 RES1    0.0000
     61 H31        3.1158    8.9155    0.8226 H         1 RES1    0.0000
     62 H32        4.2739    8.1603    0.0853 H         1 RES1    0.0000
     63 H33        4.3359    8.3641    1.6380 H         1 RES1    0.0000
@<TRIPOS>BOND
     1    1    2 1
     2    3    1 1
     3    4    1 1
     4    5   13 1
     5    6   13 2
     6    7   11 ar
     7    8    9 1
     8   10    8 ar
     9   11    8 ar
    10   12   11 1
    11   13    7 1
    12   14   10 ar
    13   15   14 1
    14   16    7 ar
    15   17   16 1
    16   18   10 1
    17   19   20 1
    18   21   18 2
    19   22   18 2
    20   23    5 1
    21   24   23 1
    22   25   23 1
    23   26   35 1
    24   27   23 1
    25   28   27 1
    26   29   27 1
    27   30   27 1
    28   31   19 1
    29   32   19 1
    30   33   32 1
    31   34   32 1
    32   35   31 1
    33   36   35 1
    34   37   19 1
    35   38   37 1
    36   39   30 1
    37   40   39 1
    38   41   39 1
    39   42    1 1
    40   43   31 1
    41   44   43 1
    42   45   43 1
    43   46   43 1
    44   47   37 1
    45   48   47 1
    46   49   47 1
    47   50   35 1
    48   51   50 1
    49   52   50 1
    50   53   31 1
    51   54   53 1
    52   55   53 1
    53   56   53 1
    54   57   42 2
    55   58   57 1
    56   59   57 1
    57   60   26 1
    58   61   60 1
    59   62   60 1
    60   63   60 1
    61   14   16 ar
    62   30   32 1
    63   30   42 1
    64   37   39 1
    65   47   50 1
@<TRIPOS>SUBSTRUCTURE
     1 RES1 1

@<TRIPOS>CRYSIN
   7.1547    7.1730   23.7650  92.9680  91.5780 110.2480   2 1

