# MOL2 file generated by ConQuest
# Please check atom types

@<TRIPOS>MOLECULE
NIRLEG
    45    50     1
SMALL
NO_CHARGES
****
Generated from CSD

@<TRIPOS>ATOM
      1 N1        -1.4166    2.0065   12.0544 N.3       1 RES1    0.0000
      2 N2        -4.3223    0.2800   15.2718 N.am      1 RES1    0.0000
      3 O1        -5.7072   -0.5523   13.5971 O.2       1 RES1    0.0000
      4 O2        -1.3653    1.2361   13.2767 O.3       1 RES1    0.0000
      5 O3        -3.5723    0.8598   17.3883 O.2       1 RES1    0.0000
      6 C1        -2.4981    0.3355   13.5475 C.3       1 RES1    0.0000
      7 C2        -4.2979    0.2032   16.6715 C.2       1 RES1    0.0000
      8 C3        -5.3440   -0.7731   17.0595 C.ar      1 RES1    0.0000
      9 C4        -2.8186    2.1259   11.6015 C.3       1 RES1    0.0000
     10 C5        -3.3666    1.1291   14.5401 C.3       1 RES1    0.0000
     11 C6        -6.0163   -1.1581   15.9194 C.ar      1 RES1    0.0000
     12 C7        -5.3851   -0.4839   14.7539 C.2       1 RES1    0.0000
     13 C8        -3.9504    2.4173   13.9948 C.3       1 RES1    0.0000
     14 C9        -3.6114    2.9259   12.6113 C.3       1 RES1    0.0000
     15 C10       -0.4675    1.4807   11.1180 C.ar      1 RES1    0.0000
     16 C11       -3.3412    0.7409   11.3471 C.2       1 RES1    0.0000
     17 C12       -0.6284    1.6366    9.7501 C.ar      1 RES1    0.0000
     18 C13       -7.0928   -2.0119   15.9791 C.ar      1 RES1    0.0000
     19 C14       -5.6989   -1.2516   18.3097 C.ar      1 RES1    0.0000
     20 C15        0.7130    0.9043   11.5770 C.ar      1 RES1    0.0000
     21 C16       -7.4691   -2.4807   17.2277 C.ar      1 RES1    0.0000
     22 C17       -3.1477   -0.1441   12.2948 C.2       1 RES1    0.0000
     23 C18       -5.0249    2.5334   12.9582 C.3       1 RES1    0.0000
     24 C19        1.4906    0.5936    9.3410 C.ar      1 RES1    0.0000
     25 C20        1.6742    0.4592   10.6880 C.ar      1 RES1    0.0000
     26 C21        0.3500    1.1968    8.8728 C.ar      1 RES1    0.0000
     27 C22       -6.7715   -2.1194   18.3619 C.ar      1 RES1    0.0000
     28 H1        -7.0182   -2.4839   19.1716 H         1 RES1    0.0000
     29 H2         2.1622    0.3118    8.6845 H         1 RES1    0.0000
     30 H3        -3.7442    0.5054   10.5057 H         1 RES1    0.0000
     31 H4         0.2201    1.3441    7.8946 H         1 RES1    0.0000
     32 H5         0.8647    0.8065   12.5545 H         1 RES1    0.0000
     33 H6        -2.1066   -0.4086   14.0869 H         1 RES1    0.0000
     34 H7        -5.2023   -0.9570   19.1291 H         1 RES1    0.0000
     35 H8        -3.3961    3.8603   12.5562 H         1 RES1    0.0000
     36 H9        -3.3991   -1.1183   12.2470 H         1 RES1    0.0000
     37 H10       -8.1787   -3.0323   17.3317 H         1 RES1    0.0000
     38 H11       -7.5642   -2.2474   15.1419 H         1 RES1    0.0000
     39 H12        2.5574    0.0215   11.0646 H         1 RES1    0.0000
     40 H13       -2.7427    1.4129   15.2404 H         1 RES1    0.0000
     41 H14       -2.7831    2.6560   10.7062 H         1 RES1    0.0000
     42 H15       -5.3775    1.6345   12.5698 H         1 RES1    0.0000
     43 H16       -3.9997    3.0754   14.6696 H         1 RES1    0.0000
     44 H17       -5.6843    3.2904   13.0676 H         1 RES1    0.0000
     45 H18       -1.4037    2.0323    9.4303 H         1 RES1    0.0000
@<TRIPOS>BOND
     1    1    4 1
     2    2    7 1
     3    3   12 2
     4    4    6 1
     5    5    7 2
     6    6   10 1
     7    7    8 1
     8    8   11 ar
     9    9    1 1
    10   10    2 1
    11   11   12 1
    12   12    2 1
    13   13   10 1
    14   14    9 1
    15   15    1 1
    16   16    9 1
    17   17   15 ar
    18   18   11 ar
    19   19    8 ar
    20   20   15 ar
    21   21   18 ar
    22   22    6 1
    23   23   13 1
    24   24   25 ar
    25   25   20 ar
    26   26   17 ar
    27   27   19 ar
    28   28   27 1
    29   29   24 1
    30   30   16 1
    31   31   26 1
    32   32   20 1
    33   33    6 1
    34   34   19 1
    35   35   14 1
    36   36   22 1
    37   37   21 1
    38   38   18 1
    39   39   25 1
    40   40   10 1
    41   41    9 1
    42   42   23 1
    43   43   13 1
    44   44   23 1
    45   45   17 1
    46   13   14 1
    47   14   23 1
    48   16   22 2
    49   21   27 ar
    50   24   26 ar
@<TRIPOS>SUBSTRUCTURE
     1 RES1 1

@<TRIPOS>CRYSIN
   9.4260   10.7530   17.1610  90.0000  98.1300  90.0000  14 1

