# MOL2 file generated by ConQuest
# Please check atom types

@<TRIPOS>MOLECULE
NISGEB
    40    42     1
SMALL
NO_CHARGES
****
Generated from CSD

@<TRIPOS>ATOM
      1 O1         3.6923    1.4926    3.6146 O.2       1 RES1    0.0000
      2 O2         3.0174    2.9332    2.1779 O.2       1 RES1    0.0000
      3 N1         3.8208    2.5057    2.9481 N.pl3     1 RES1    0.0000
      4 C1         5.2434    3.1688    3.0439 C.3       1 RES1    0.0000
      5 C2         6.2667    2.1529    3.4978 C.3       1 RES1    0.0000
      6 C3         6.6290    1.0462    2.4618 C.3       1 RES1    0.0000
      7 C4         7.1164   -0.1466    3.1550 C.2       1 RES1    0.0000
      8 N2         7.6920   -0.2431    4.3525 N.3       1 RES1    0.0000
      9 N3         7.9582   -1.5674    4.6703 N.2       1 RES1    0.0000
     10 N4         7.5251   -2.2427    3.6203 N.2       1 RES1    0.0000
     11 N5         7.0111   -1.3791    2.6730 N.2       1 RES1    0.0000
     12 N6         4.7242    6.4586    6.0984 N.2       1 RES1    0.0000
     13 C5         5.1130    4.2178    4.1633 C.3       1 RES1    0.0000
     14 C6         4.0784    5.3245    3.9752 C.3       1 RES1    0.0000
     15 C7         4.3699    6.4709    4.8785 C.2       1 RES1    0.0000
     16 C8         6.8515    4.4996    1.5901 C.3       1 RES1    0.0000
     17 C9         5.4852    3.7770    1.6336 C.3       1 RES1    0.0000
     18 C10        6.9058    5.3046    0.3504 C.2       1 RES1    0.0000
     19 N7         4.2910    7.7781    4.4767 N.3       1 RES1    0.0000
     20 N8         7.0217    4.8685   -0.9036 N.2       1 RES1    0.0000
     21 N9         6.9608    5.9875   -1.6817 N.2       1 RES1    0.0000
     22 N10        4.5606    8.5566    5.5208 N.2       1 RES1    0.0000
     23 N11        4.8792    7.7857    6.5084 N.2       1 RES1    0.0000
     24 N12        6.9151    7.0668   -0.9769 N.2       1 RES1    0.0000
     25 N13        6.8806    6.6270    0.3109 N.pl3     1 RES1    0.0000
     26 H1         5.9578    1.6409    4.2051 H         1 RES1    0.0000
     27 H2         7.0928    2.5842    3.7554 H         1 RES1    0.0000
     28 H3         7.4424    1.4761    1.8763 H         1 RES1    0.0000
     29 H4         5.9763    0.9486    1.8042 H         1 RES1    0.0000
     30 H5         5.9731    4.6520    4.2848 H         1 RES1    0.0000
     31 H6         4.9370    3.7476    4.9951 H         1 RES1    0.0000
     32 H7         3.1981    4.9180    4.1767 H         1 RES1    0.0000
     33 H8         4.0778    5.6000    3.0869 H         1 RES1    0.0000
     34 H9         7.6384    3.8999    1.6336 H         1 RES1    0.0000
     35 H10        6.9312    5.0603    2.4075 H         1 RES1    0.0000
     36 H11        4.7677    4.2622    1.2278 H         1 RES1    0.0000
     37 H12        5.5446    2.9282    0.9708 H         1 RES1    0.0000
     38 H13        7.8485    0.5031    4.9738 H         1 RES1    0.0000
     39 H14        4.0481    8.0021    3.5139 H         1 RES1    0.0000
     40 H15        6.8538    7.1864    1.1063 H         1 RES1    0.0000
@<TRIPOS>BOND
     1    1    3 2
     2    2    3 2
     3    3    4 1
     4    4    5 1
     5    5    6 1
     6    6    7 1
     7    7    8 1
     8    8    9 1
     9    9   10 2
    10   10   11 1
    11   11    7 2
    12   12   15 2
    13   13    4 1
    14   14   13 1
    15   15   14 1
    16   16   17 1
    17   17    4 1
    18   18   16 1
    19   19   15 1
    20   20   18 2
    21   21   20 1
    22   22   19 1
    23   23   12 1
    24   24   21 2
    25   25   18 1
    26   26    5 1
    27   27    5 1
    28   28    6 1
    29   29    6 1
    30   30   13 1
    31   31   13 1
    32   32   14 1
    33   33   14 1
    34   34   16 1
    35   35   16 1
    36   36   17 1
    37   37   17 1
    38   38    8 1
    39   39   19 1
    40   40   25 1
    41   22   23 2
    42   24   25 1
@<TRIPOS>SUBSTRUCTURE
     1 RES1 1

@<TRIPOS>CRYSIN
   6.6230    9.4590   24.6950  90.0000  90.0000  90.0000  19 1

