# MOL2 file generated by ConQuest
# Please check atom types

@<TRIPOS>MOLECULE
NISJUL
    29    31     1
SMALL
NO_CHARGES
****
Generated from CSD

@<TRIPOS>ATOM
      1 N1        -3.5759    6.9370    6.0910 N.2       1 RES1    0.0000
      2 N2        -0.2405    7.0834   10.5404 N.3       1 RES1    0.0000
      3 O1        -4.6306    7.5637    6.1238 O.2       1 RES1    0.0000
      4 C1        -1.6336    6.3721    7.2885 C.ar      1 RES1    0.0000
      5 C2        -2.8338    7.0250    7.3354 C.ar      1 RES1    0.0000
      6 C3        -3.1787    7.7006    8.4955 C.ar      1 RES1    0.0000
      7 C4        -2.3544    7.7093    9.5945 C.ar      1 RES1    0.0000
      8 C5        -1.0993    7.0616    9.5039 C.ar      1 RES1    0.0000
      9 C6        -0.7610    6.3800    8.3063 C.ar      1 RES1    0.0000
     10 C7         0.5974    5.7192    8.1922 C.3       1 RES1    0.0000
     11 C8         1.1333    5.3287    9.5054 C.3       1 RES1    0.0000
     12 C9         1.0944    6.4985   10.4450 C.3       1 RES1    0.0000
     13 C10       -0.5234    7.8183   11.7817 C.3       1 RES1    0.0000
     14 C11       -1.5267    8.7667   11.6879 C.3       1 RES1    0.0000
     15 C12       -2.7142    8.3770   10.8984 C.3       1 RES1    0.0000
     16 H1        -1.3894    5.9537    6.4568 H         1 RES1    0.0000
     17 H2        -3.9414    8.1155    8.6143 H         1 RES1    0.0000
     18 H3         0.4525    4.8990    7.5512 H         1 RES1    0.0000
     19 H4         1.1327    6.2414    7.6606 H         1 RES1    0.0000
     20 H5         2.0707    5.0559    9.3022 H         1 RES1    0.0000
     21 H6         0.5976    4.5416    9.9901 H         1 RES1    0.0000
     22 H7         1.9092    7.2351   10.0683 H         1 RES1    0.0000
     23 H8         1.3872    6.3460   11.1783 H         1 RES1    0.0000
     24 H9         0.3531    8.1417   11.9912 H         1 RES1    0.0000
     25 H10       -0.6067    7.2002   12.6010 H         1 RES1    0.0000
     26 H11       -1.8538    9.1093   12.7417 H         1 RES1    0.0000
     27 H12       -1.2345    9.4318   11.1783 H         1 RES1    0.0000
     28 H13       -3.1926    7.8453   11.2564 H         1 RES1    0.0000
     29 H14       -3.4042    8.9436   10.7405 H         1 RES1    0.0000
@<TRIPOS>BOND
     1    1    3 2
     2    2    8 1
     3    4    5 ar
     4    5    1 1
     5    6    5 ar
     6    7    6 ar
     7    8    7 ar
     8    9    4 ar
     9   10    9 1
    10   11   10 1
    11   12    2 1
    12   13    2 1
    13   14   13 1
    14   15    7 1
    15   16    4 1
    16   17    6 1
    17   18   10 1
    18   19   10 1
    19   20   11 1
    20   21   11 1
    21   22   12 1
    22   23   12 1
    23   24   13 1
    24   25   13 1
    25   26   14 1
    26   27   14 1
    27   28   15 1
    28   29   15 1
    29    8    9 ar
    30   11   12 1
    31   14   15 1
@<TRIPOS>SUBSTRUCTURE
     1 RES1 1

@<TRIPOS>CRYSIN
   7.4480    8.7170   15.8900  90.0000 100.3000  90.0000  14 1

