# MOL2 file generated by ConQuest
# Please check atom types

@<TRIPOS>MOLECULE
NITBAL10
    18    18     1
SMALL
NO_CHARGES
****
Generated from CSD

@<TRIPOS>ATOM
      1 C1         3.8558    2.8250    8.2194 C.ar      1 RES1    0.0000
      2 C2         5.1196    3.1905    7.7335 C.ar      1 RES1    0.0000
      3 C3         5.8394    4.1114    8.4217 C.ar      1 RES1    0.0000
      4 C4         5.3566    4.7453    9.5737 C.ar      1 RES1    0.0000
      5 C5         4.0573    4.3505   10.0202 C.ar      1 RES1    0.0000
      6 C6         3.3359    3.4316    9.3369 C.ar      1 RES1    0.0000
      7 C7         6.1833    5.7003   10.2768 C.2       1 RES1    0.0000
      8 H1         6.3673    7.8568   12.1614 H         1 RES1    0.0000
      9 H2         5.4018    2.7426    7.0551 H         1 RES1    0.0000
     10 H3         6.6136    4.4554    8.0665 H         1 RES1    0.0000
     11 H4         3.8978    4.6946   10.7800 H         1 RES1    0.0000
     12 H5         2.8190    3.0646    9.5959 H         1 RES1    0.0000
     13 H6         7.1009    5.6803   10.0646 H         1 RES1    0.0000
     14 N1         5.7399    6.4021   11.2216 N.2       1 RES1    0.0000
     15 N2         3.1062    1.8368    7.5065 N.pl3     1 RES1    0.0000
     16 O1         6.7513    7.2507   11.7001 O.3       1 RES1    0.0000
     17 O2         1.9695    1.5606    7.8914 O.2       1 RES1    0.0000
     18 O3         3.6184    1.2590    6.5691 O.2       1 RES1    0.0000
@<TRIPOS>BOND
     1    1    2 ar
     2    2    3 ar
     3    3    4 ar
     4    4    5 ar
     5    5    6 ar
     6    6    1 ar
     7    7    4 1
     8    8   16 1
     9    9    2 1
    10   10    3 1
    11   11    5 1
    12   12    6 1
    13   13    7 1
    14   14    7 2
    15   15    1 1
    16   16   14 1
    17   17   15 2
    18   18   15 2
@<TRIPOS>SUBSTRUCTURE
     1 RES1 1

@<TRIPOS>CRYSIN
   6.2520    4.8800   24.7500  90.0000  94.6600  90.0000  14 1

