# MOL2 file generated by ConQuest
# Please check atom types

@<TRIPOS>MOLECULE
NITBAL11
    18    18     1
SMALL
NO_CHARGES
****
Generated from CSD

@<TRIPOS>ATOM
      1 C1         1.3896    2.8466    4.1182 C.ar      1 RES1    0.0000
      2 C2        -0.0877    4.7304    2.7612 C.ar      1 RES1    0.0000
      3 C3         1.9273    3.4240    2.9779 C.ar      1 RES1    0.0000
      4 N1         2.1611    1.8221    4.8322 N.pl3     1 RES1    0.0000
      5 C4        -0.5941    4.1285    3.9095 C.ar      1 RES1    0.0000
      6 O1         1.6379    1.2653    5.7815 O.2       1 RES1    0.0000
      7 C5         1.1798    4.3722    2.3006 C.ar      1 RES1    0.0000
      8 O2         3.2924    1.5814    4.4408 O.2       1 RES1    0.0000
      9 C6        -0.9338    5.7109    2.0727 C.2       1 RES1    0.0000
     10 C7         0.1414    3.1789    4.5958 C.ar      1 RES1    0.0000
     11 N2        -0.5056    6.4125    1.1068 N.2       1 RES1    0.0000
     12 O3        -1.5039    7.2756    0.6262 O.3       1 RES1    0.0000
     13 H1         2.7653    3.1999    2.6715 H         1 RES1    0.0000
     14 H2        -0.1958    2.7889    5.3850 H         1 RES1    0.0000
     15 H3        -1.4238    4.3546    4.2291 H         1 RES1    0.0000
     16 H4         1.5320    4.7656    1.5034 H         1 RES1    0.0000
     17 H5        -1.8687    5.8322    2.3462 H         1 RES1    0.0000
     18 H6        -1.0377    7.8040   -0.0863 H         1 RES1    0.0000
@<TRIPOS>BOND
     1    1    3 ar
     2    2    5 ar
     3    3    7 ar
     4    4    1 1
     5    5   10 ar
     6    6    4 2
     7    7    2 ar
     8    8    4 2
     9    9    2 1
    10   10    1 ar
    11   11    9 2
    12   12   11 1
    13   13    3 1
    14   14   10 1
    15   15    5 1
    16   16    7 1
    17   17    9 1
    18   18   12 1
@<TRIPOS>SUBSTRUCTURE
     1 RES1 1

@<TRIPOS>CRYSIN
   6.2548    4.8928   24.7226  90.0000  94.5360  90.0000  14 1

