# MOL2 file generated by ConQuest
# Please check atom types

@<TRIPOS>MOLECULE
NITOLU
    17    17     1
SMALL
NO_CHARGES
****
Generated from CSD

@<TRIPOS>ATOM
      1 C1         0.7742    1.6096   -0.3633 C.ar      1 RES1    0.0000
      2 C2        -0.5253    2.1471   -0.4385 C.ar      1 RES1    0.0000
      3 C3        -1.2211    2.2596    0.7501 C.ar      1 RES1    0.0000
      4 C4        -0.6842    1.8826    1.9732 C.ar      1 RES1    0.0000
      5 C5         0.6199    1.3620    1.9747 C.ar      1 RES1    0.0000
      6 C6         1.3439    1.2368    0.8034 C.ar      1 RES1    0.0000
      7 C7        -1.4609    2.0233    3.2510 C.3       1 RES1    0.0000
      8 H1        -0.9388    2.4904   -1.2998 H         1 RES1    0.0000
      9 H2        -2.1090    2.5889    0.7987 H         1 RES1    0.0000
     10 H3         0.8552    1.0271    2.7718 H         1 RES1    0.0000
     11 H4         2.2376    0.8864    0.8300 H         1 RES1    0.0000
     12 H5        -1.2924    1.7025    4.0559 H         1 RES1    0.0000
     13 H6        -1.6589    2.6030    3.5705 H         1 RES1    0.0000
     14 H7        -1.7875    1.4633    3.2729 H         1 RES1    0.0000
     15 N1         1.5561    1.5336   -1.6145 N.pl3     1 RES1    0.0000
     16 O1         2.6672    1.0426   -1.5723 O.2       1 RES1    0.0000
     17 O2         1.0217    1.8601   -2.6512 O.2       1 RES1    0.0000
@<TRIPOS>BOND
     1    1    2 ar
     2    2    3 ar
     3    3    4 ar
     4    4    5 ar
     5    5    6 ar
     6    6    1 ar
     7    7    4 1
     8    8    2 1
     9    9    3 1
    10   10    5 1
    11   11    6 1
    12   12    7 1
    13   13    7 1
    14   14    7 1
    15   15    1 1
    16   16   15 2
    17   17   15 2
@<TRIPOS>SUBSTRUCTURE
     1 RES1 1

@<TRIPOS>CRYSIN
   6.4300   14.0700   15.6600  90.0000  90.0000  90.0000  61 3

