# MOL2 file generated by ConQuest
# Please check atom types

@<TRIPOS>MOLECULE
NITOLU01
    17    17     1
SMALL
NO_CHARGES
****
Generated from CSD

@<TRIPOS>ATOM
      1 O1        12.5973    2.6845    6.2058 O.2       1 RES1    0.0000
      2 N1        12.1842    1.5270    6.1426 N.pl3     1 RES1    0.0000
      3 C1        12.0720    0.7529    7.3860 C.ar      1 RES1    0.0000
      4 O2        11.8594    0.9866    5.0896 O.2       1 RES1    0.0000
      5 C2        11.5832   -0.5433    7.3248 C.ar      1 RES1    0.0000
      6 H1        11.3213   -0.9245    6.4784 H         1 RES1    0.0000
      7 C3        11.4664   -1.2570    8.5120 C.ar      1 RES1    0.0000
      8 H2        11.1165   -2.1403    8.4779 H         1 RES1    0.0000
      9 C4        11.8306   -0.6902    9.7390 C.ar      1 RES1    0.0000
     10 C5        12.3245    0.6231    9.7534 C.ar      1 RES1    0.0000
     11 H3        12.5799    1.0258   10.5819 H         1 RES1    0.0000
     12 C6        12.4546    1.3507    8.5798 C.ar      1 RES1    0.0000
     13 H4        12.7929    2.2226    8.6072 H         1 RES1    0.0000
     14 C7        11.7032   -1.4824   11.0142 C.3       1 RES1    0.0000
     15 H5        12.2032   -2.3214   10.9291 H         1 RES1    0.0000
     16 H6        10.7588   -1.6812   11.1830 H         1 RES1    0.0000
     17 H7        12.0653   -0.9612   11.7607 H         1 RES1    0.0000
@<TRIPOS>BOND
     1    1    2 2
     2    2    3 1
     3    3    5 ar
     4    4    2 2
     5    5    6 1
     6    7    5 ar
     7    8    7 1
     8    9    7 ar
     9   10    9 ar
    10   11   10 1
    11   12    3 ar
    12   13   12 1
    13   14    9 1
    14   15   14 1
    15   16   14 1
    16   17   14 1
    17   10   12 ar
@<TRIPOS>SUBSTRUCTURE
     1 RES1 1

@<TRIPOS>CRYSIN
  13.6516    6.3323   15.5730  90.0000  90.0000  90.0000  61 1

