# MOL2 file generated by ConQuest
# Please check atom types

@<TRIPOS>MOLECULE
NITPOL
    15    15     1
SMALL
NO_CHARGES
****
Generated from CSD

@<TRIPOS>ATOM
      1 C1         1.1995    3.4541    0.7642 C.ar      1 RES1    0.0000
      2 C2         1.3505    4.8003    1.0902 C.ar      1 RES1    0.0000
      3 C3         2.6197    5.3350    1.1355 C.ar      1 RES1    0.0000
      4 C4         3.7296    4.5257    0.8666 C.ar      1 RES1    0.0000
      5 C5         3.5606    3.1784    0.5439 C.ar      1 RES1    0.0000
      6 C6         2.2897    2.6370    0.4791 C.ar      1 RES1    0.0000
      7 H1         5.5793    4.6024    0.7418 H         1 RES1    0.0000
      8 H2         0.5928    5.3139    1.2303 H         1 RES1    0.0000
      9 H3         2.7555    6.2589    1.3605 H         1 RES1    0.0000
     10 H4         4.2842    2.6347    0.3944 H         1 RES1    0.0000
     11 H5         2.0874    1.7676    0.2750 H         1 RES1    0.0000
     12 N1        -0.1383    2.8960    0.7468 N.pl3     1 RES1    0.0000
     13 O1        -1.0853    3.6019    1.1373 O.2       1 RES1    0.0000
     14 O2        -0.2905    1.7298    0.3492 O.2       1 RES1    0.0000
     15 O3         4.9480    5.1260    0.9318 O.3       1 RES1    0.0000
@<TRIPOS>BOND
     1    1    2 ar
     2    2    3 ar
     3    3    4 ar
     4    4    5 ar
     5    5    6 ar
     6    6    1 ar
     7    7   15 1
     8    8    2 1
     9    9    3 1
    10   10    5 1
    11   11    6 1
    12   12    1 1
    13   13   12 2
    14   14   12 2
    15   15    4 1
@<TRIPOS>SUBSTRUCTURE
     1 RES1 1

@<TRIPOS>CRYSIN
  15.4030   11.1170    3.7850  90.0000 107.0600  90.0000  14 2

