# MOL2 file generated by ConQuest
# Please check atom types

@<TRIPOS>MOLECULE
NITPOL08
    15    15     1
SMALL
NO_CHARGES
****
Generated from CSD

@<TRIPOS>ATOM
      1 N1        -1.3996    8.1661   14.4905 N.pl3     1 RES1    0.0000
      2 O1        -0.1386    5.9509    9.5772 O.3       1 RES1    0.0000
      3 O2        -2.0623    7.4852   15.2775 O.2       1 RES1    0.0000
      4 O3        -1.0419    9.3154   14.7691 O.2       1 RES1    0.0000
      5 C1        -0.4185    6.5384   10.7566 C.ar      1 RES1    0.0000
      6 C2        -0.1410    7.8810   11.0294 C.ar      1 RES1    0.0000
      7 H1         0.2578    8.4258   10.3615 H         1 RES1    0.0000
      8 C3        -0.4417    8.4170   12.2578 C.ar      1 RES1    0.0000
      9 H2        -0.2496    9.3275   12.4479 H         1 RES1    0.0000
     10 C4        -1.0315    7.6041   13.2199 C.ar      1 RES1    0.0000
     11 C5        -1.3134    6.2625   12.9702 C.ar      1 RES1    0.0000
     12 H3        -1.7158    5.7207   13.6386 H         1 RES1    0.0000
     13 C6        -0.9999    5.7383   11.7435 C.ar      1 RES1    0.0000
     14 H4        -1.1795    4.8235   11.5625 H         1 RES1    0.0000
     15 H5         0.2397    6.4882    9.0232 H         1 RES1    0.0000
@<TRIPOS>BOND
     1    1    3 2
     2    2    5 1
     3    4    1 2
     4    5    6 ar
     5    6    7 1
     6    8    6 ar
     7    9    8 1
     8   10    1 1
     9   11   10 ar
    10   12   11 1
    11   13    5 ar
    12   14   13 1
    13   15    2 1
    14    8   10 ar
    15   11   13 ar
@<TRIPOS>SUBSTRUCTURE
     1 RES1 1

@<TRIPOS>CRYSIN
   3.6780   11.0910   14.6270  90.0000  92.7500  90.0000 231 1

