# MOL2 file generated by ConQuest
# Please check atom types

@<TRIPOS>MOLECULE
NITPOL06
    15    15     1
SMALL
NO_CHARGES
****
Generated from CSD

@<TRIPOS>ATOM
      1 O1         0.2754   -0.1033    2.1116 O.3       1 RES1    0.0000
      2 O2         4.3236    1.8100    6.3838 O.2       1 RES1    0.0000
      3 O3         2.7912    3.2674    6.6940 O.2       1 RES1    0.0000
      4 N1         3.2330    2.2765    6.1156 N.pl3     1 RES1    0.0000
      5 C1         0.9481    0.5093    3.1095 C.ar      1 RES1    0.0000
      6 C2         0.4554    1.6088    3.7798 C.ar      1 RES1    0.0000
      7 C3         1.1929    2.1821    4.7685 C.ar      1 RES1    0.0000
      8 C4         2.4262    1.6640    5.0890 C.ar      1 RES1    0.0000
      9 C5         2.9216    0.5529    4.4363 C.ar      1 RES1    0.0000
     10 C6         2.1731   -0.0205    3.4578 C.ar      1 RES1    0.0000
     11 H1         0.8836    2.9113    5.2131 H         1 RES1    0.0000
     12 H2         3.8323    0.1781    4.7433 H         1 RES1    0.0000
     13 H3        -0.3614    2.0032    3.5632 H         1 RES1    0.0000
     14 H4         2.4514   -0.7657    2.9904 H         1 RES1    0.0000
     15 H5        -0.4310    0.3650    1.9592 H         1 RES1    0.0000
@<TRIPOS>BOND
     1    1    5 1
     2    2    4 2
     3    3    4 2
     4    4    8 1
     5    5    6 ar
     6    6    7 ar
     7    7    8 ar
     8    8    9 ar
     9    9   10 ar
    10   10    5 ar
    11   11    7 1
    12   12    9 1
    13   13    6 1
    14   14   10 1
    15   15    1 1
@<TRIPOS>SUBSTRUCTURE
     1 RES1 1

@<TRIPOS>CRYSIN
   6.1460    8.9030   11.7630  90.0000 103.0900  90.0000  14 1

