# MOL2 file generated by ConQuest
# Please check atom types

@<TRIPOS>MOLECULE
NITPOL09
    15    15     1
SMALL
NO_CHARGES
****
Generated from CSD

@<TRIPOS>ATOM
      1 N1        -1.6810    2.7011   14.7480 N.pl3     1 RES1    0.0000
      2 O1        -0.3131    0.4750    9.8705 O.3       1 RES1    0.0000
      3 O2        -2.3149    2.0001   15.5349 O.2       1 RES1    0.0000
      4 O3        -1.3781    3.8471   15.0105 O.2       1 RES1    0.0000
      5 C1        -0.6231    1.0771   11.0469 C.ar      1 RES1    0.0000
      6 C2        -0.3774    2.4083   11.2933 C.ar      1 RES1    0.0000
      7 C3        -0.7100    2.9541   12.5200 C.ar      1 RES1    0.0000
      8 C4        -1.2943    2.1431   13.4680 C.ar      1 RES1    0.0000
      9 C5        -1.5367    0.8098   13.2380 C.ar      1 RES1    0.0000
     10 C6        -1.1970    0.2784   12.0192 C.ar      1 RES1    0.0000
     11 H1        -1.9193    0.2884   13.9789 H         1 RES1    0.0000
     12 H2        -1.3864   -0.7210   11.8761 H         1 RES1    0.0000
     13 H3        -0.5049    3.8826   12.8238 H         1 RES1    0.0000
     14 H4         0.0017    2.9286   10.6470 H         1 RES1    0.0000
     15 H5         0.0895    1.1537    9.2551 H         1 RES1    0.0000
@<TRIPOS>BOND
     1    1    3 2
     2    2    5 1
     3    4    1 2
     4    5    6 ar
     5    6    7 ar
     6    7    8 ar
     7    8    1 1
     8    9    8 ar
     9   10    5 ar
    10   11    9 1
    11   12   10 1
    12   13    7 1
    13   14    6 1
    14   15    2 1
    15    9   10 ar
@<TRIPOS>SUBSTRUCTURE
     1 RES1 1

@<TRIPOS>CRYSIN
   3.8310   11.0930   14.8350  90.0000  93.4500  90.0000 231 1

