# MOL2 file generated by ConQuest
# Please check atom types

@<TRIPOS>MOLECULE
NITPOL02
    15    15     1
SMALL
NO_CHARGES
****
Generated from CSD

@<TRIPOS>ATOM
      1 O1        -0.1471    5.9633    9.5795 O.3       1 RES1    0.0000
      2 O2        -2.0816    7.4983   15.2929 O.2       1 RES1    0.0000
      3 O3        -1.0488    9.3368   14.7839 O.2       1 RES1    0.0000
      4 N1        -1.4089    8.1830   14.5162 N.pl3     1 RES1    0.0000
      5 C1        -0.4230    6.5502   10.7628 C.ar      1 RES1    0.0000
      6 C2        -0.1481    7.8985   11.0290 C.ar      1 RES1    0.0000
      7 C3        -0.4506    8.4387   12.2738 C.ar      1 RES1    0.0000
      8 C4        -1.0439    7.6184   13.2348 C.ar      1 RES1    0.0000
      9 C5        -1.3249    6.2734   12.9876 C.ar      1 RES1    0.0000
     10 C6        -1.0088    5.7410   11.7502 C.ar      1 RES1    0.0000
     11 H1         0.2789    6.5980    8.9988 H         1 RES1    0.0000
     12 H2         0.3013    8.5209   10.2626 H         1 RES1    0.0000
     13 H3        -0.2291    9.4768   12.4947 H         1 RES1    0.0000
     14 H4        -1.7831    5.6554   13.7526 H         1 RES1    0.0000
     15 H5        -1.2143    4.6962   11.5410 H         1 RES1    0.0000
@<TRIPOS>BOND
     1    1    5 1
     2    2    4 2
     3    3    4 2
     4    4    8 1
     5    5    6 ar
     6    6    7 ar
     7    7    8 ar
     8    8    9 ar
     9    9   10 ar
    10   10    5 ar
    11   11    1 1
    12   12    6 1
    13   13    7 1
    14   14    9 1
    15   15   10 1
@<TRIPOS>SUBSTRUCTURE
     1 RES1 1

@<TRIPOS>CRYSIN
   3.6812   11.1152   14.6449  90.0000  92.8040  90.0000 231 1

