# MOL2 file generated by ConQuest
# Please check atom types

@<TRIPOS>MOLECULE
NITPOL03
    15    15     1
SMALL
NO_CHARGES
****
Generated from CSD

@<TRIPOS>ATOM
      1 O1         1.5768   -0.2085   -3.5800 O.3       1 RES1    0.0000
      2 O2         5.7130    1.8292    0.6536 O.2       1 RES1    0.0000
      3 O3         4.1415    3.3040    0.9680 O.2       1 RES1    0.0000
      4 N1         4.5939    2.2869    0.3964 N.pl3     1 RES1    0.0000
      5 C1         2.2623    0.4206   -2.5896 C.ar      1 RES1    0.0000
      6 C2         1.7408    1.5305   -1.8911 C.ar      1 RES1    0.0000
      7 C3         2.4977    2.1402   -0.8950 C.ar      1 RES1    0.0000
      8 C4         3.7752    1.6374   -0.6120 C.ar      1 RES1    0.0000
      9 C5         4.2998    0.5187   -1.2768 C.ar      1 RES1    0.0000
     10 C6         3.5316   -0.0937   -2.2617 C.ar      1 RES1    0.0000
     11 H1         0.8796    0.3676   -3.9023 H         1 RES1    0.0000
     12 H2         0.7519    1.9069   -2.1303 H         1 RES1    0.0000
     13 H3         2.1052    2.9912   -0.3470 H         1 RES1    0.0000
     14 H4         5.2841    0.1379   -1.0264 H         1 RES1    0.0000
     15 H5         3.9119   -0.9685   -2.7794 H         1 RES1    0.0000
@<TRIPOS>BOND
     1    1    5 1
     2    2    4 2
     3    3    4 2
     4    4    8 1
     5    5    6 ar
     6    6    7 ar
     7    7    8 ar
     8    8    9 ar
     9    9   10 ar
    10   10    5 ar
    11   11    1 1
    12   12    6 1
    13   13    7 1
    14   14    9 1
    15   15   10 1
@<TRIPOS>SUBSTRUCTURE
     1 RES1 1

@<TRIPOS>CRYSIN
   6.1664    8.8366   11.5435  90.0000 103.3900  90.0000  14 1

