# MOL2 file generated by ConQuest
# Please check atom types

@<TRIPOS>MOLECULE
NITRBE01
    14    14     1
SMALL
NO_CHARGES
****
Generated from CSD

@<TRIPOS>ATOM
      1 N1         1.3494    4.7632    2.4554 N.pl3     1 RES1    0.0000
      2 O1         1.6548    4.5256    3.6151 O.2       1 RES1    0.0000
      3 O2         1.5574    5.8459    1.9132 O.2       1 RES1    0.0000
      4 C1         0.7019    3.7031    1.6789 C.ar      1 RES1    0.0000
      5 C2         0.4022    3.9507    0.3498 C.ar      1 RES1    0.0000
      6 H1         0.6182    4.7443   -0.0250 H         1 RES1    0.0000
      7 C3        -0.2125    2.9473   -0.3767 C.ar      1 RES1    0.0000
      8 H2        -0.4878    3.1120   -1.3551 H         1 RES1    0.0000
      9 C4        -0.5078    1.7298    0.2221 C.ar      1 RES1    0.0000
     10 H3        -0.9459    1.0540   -0.2896 H         1 RES1    0.0000
     11 C5        -0.1828    1.5005    1.5505 C.ar      1 RES1    0.0000
     12 H4        -0.3505    0.6724    1.9751 H         1 RES1    0.0000
     13 C6         0.4306    2.4910    2.2972 C.ar      1 RES1    0.0000
     14 H5         0.6600    2.3236    3.1840 H         1 RES1    0.0000
@<TRIPOS>BOND
     1    1    2 2
     2    3    1 2
     3    4    1 1
     4    5    4 ar
     5    6    5 1
     6    7    5 ar
     7    8    7 1
     8    9    7 ar
     9   10    9 1
    10   11    9 ar
    11   12   11 1
    12   13    4 ar
    13   14   13 1
    14   11   13 ar
@<TRIPOS>SUBSTRUCTURE
     1 RES1 1

@<TRIPOS>CRYSIN
   3.8014   11.6153   12.9843  90.0000  94.9840  90.0000  14 1

