# MOL2 file generated by ConQuest
# Please check atom types

@<TRIPOS>MOLECULE
NITRBE
     9     9     1
SMALL
NO_CHARGES
****
Generated from CSD

@<TRIPOS>ATOM
      1 C1         0.7077    3.7082    1.7130 C.ar      1 RES1    0.0000
      2 C2         0.4790    3.9785    0.3835 C.ar      1 RES1    0.0000
      3 C3        -0.1864    2.9742   -0.3400 C.ar      1 RES1    0.0000
      4 C4        -0.4981    1.7661    0.2346 C.ar      1 RES1    0.0000
      5 C5        -0.2097    1.5133    1.5299 C.ar      1 RES1    0.0000
      6 C6         0.4095    2.5409    2.3390 C.ar      1 RES1    0.0000
      7 N1         1.3841    4.7788    2.4905 N.pl3     1 RES1    0.0000
      8 O1         1.6104    4.5435    3.6620 O.2       1 RES1    0.0000
      9 O2         1.6127    5.8273    1.9555 O.2       1 RES1    0.0000
@<TRIPOS>BOND
     1    1    2 ar
     2    2    3 ar
     3    3    4 ar
     4    4    5 ar
     5    5    6 ar
     6    6    1 ar
     7    7    1 1
     8    8    7 2
     9    9    7 2
@<TRIPOS>SUBSTRUCTURE
     1 RES1 1

@<TRIPOS>CRYSIN
   3.8600   11.6500   13.2400  90.0000  95.5800  90.0000  14 1

