# MOL2 file generated by ConQuest
# Please check atom types

@<TRIPOS>MOLECULE
NIVBOJ
    21    22     1
SMALL
NO_CHARGES
****
Generated from CSD

@<TRIPOS>ATOM
      1 O1         0.7920   -2.6385    6.3717 O.3       1 RES1    0.0000
      2 O2         1.2798   -3.5022    3.9514 O.2       1 RES1    0.0000
      3 O3         3.2890   -2.7091    3.9703 O.2       1 RES1    0.0000
      4 O4         2.4718    1.3905    6.2977 O.2       1 RES1    0.0000
      5 O5         3.5469   -0.3310    7.0184 O.2       1 RES1    0.0000
      6 N1         2.1799   -2.8706    4.4487 N.pl3     1 RES1    0.0000
      7 N2         2.6763    0.1978    6.3528 N.pl3     1 RES1    0.0000
      8 C1         1.9526   -2.1625    5.7800 C.3       1 RES1    0.0000
      9 C2         1.7796   -0.6652    5.4826 C.3       1 RES1    0.0000
     10 C3         0.3198   -0.4628    5.7815 C.ar      1 RES1    0.0000
     11 C4        -0.5094    0.6303    5.6305 C.ar      1 RES1    0.0000
     12 C5        -1.8468    0.4747    5.9578 C.ar      1 RES1    0.0000
     13 C6        -2.3252   -0.7411    6.4236 C.ar      1 RES1    0.0000
     14 C7        -1.4973   -1.8342    6.5920 C.ar      1 RES1    0.0000
     15 C8        -0.1771   -1.6522    6.2584 C.ar      1 RES1    0.0000
     16 H1         2.7353   -2.3069    6.3858 H         1 RES1    0.0000
     17 H2         1.9605   -0.4833    4.5148 H         1 RES1    0.0000
     18 H3        -0.1739    1.4610    5.3142 H         1 RES1    0.0000
     19 H4        -2.4425    1.2085    5.8618 H         1 RES1    0.0000
     20 H5        -3.2491   -0.8241    6.6329 H         1 RES1    0.0000
     21 H6        -1.8224   -2.6636    6.9224 H         1 RES1    0.0000
@<TRIPOS>BOND
     1    1    8 1
     2    2    6 2
     3    3    6 2
     4    4    7 2
     5    5    7 2
     6    6    8 1
     7    7    9 1
     8    8    9 1
     9    9   10 1
    10   10   11 ar
    11   11   12 ar
    12   12   13 ar
    13   13   14 ar
    14   14   15 ar
    15   15    1 1
    16   16    8 1
    17   17    9 1
    18   18   11 1
    19   19   12 1
    20   20   13 1
    21   21   14 1
    22   10   15 ar
@<TRIPOS>SUBSTRUCTURE
     1 RES1 1

@<TRIPOS>CRYSIN
  16.1490    6.5930   15.7750  90.0000  94.0100  90.0000  15 1

