# MOL2 file generated by ConQuest
# Please check atom types

@<TRIPOS>MOLECULE
NIVCAW
    22    24     1
SMALL
USER_CHARGES
****
Generated from CSD

@<TRIPOS>ATOM
      1 O1         7.3622    1.2525    7.4579 O.3       1 RES1    0.0000
      2 O2         3.6559   -1.8432    4.5224 O.2       1 RES1    0.0000
      3 O3         4.2362   -2.6754    6.4564 O.2       1 RES1    0.0000
      4 O4         4.7926    0.5746    3.9537 O.2       1 RES1   -1.0000
      5 O5         6.5334    0.9992    5.3024 O.3       1 RES1    0.0000
      6 N1         4.3171   -1.8373    5.5523 N.pl3     1 RES1    0.0000
      7 N2         5.4029    0.1880    4.9384 N.pl3     1 RES1    1.0000
      8 C1         7.2206    0.3384    6.3944 C.3       1 RES1    0.0000
      9 C2         6.2877   -0.8059    6.8506 C.3       1 RES1    0.0000
     10 C3         5.7948   -0.2849    8.1859 C.ar      1 RES1    0.0000
     11 C4         4.8885   -0.7909    9.1068 C.ar      1 RES1    0.0000
     12 C5         4.7125   -0.1017   10.2978 C.ar      1 RES1    0.0000
     13 C6         5.4157    1.0662   10.5561 C.ar      1 RES1    0.0000
     14 C7         6.3053    1.5958    9.6301 C.ar      1 RES1    0.0000
     15 C8         6.4606    0.8895    8.4593 C.ar      1 RES1    0.0000
     16 C9         5.2941   -0.8177    5.7603 C.2       1 RES1    0.0000
     17 H1         8.1086   -0.0150    6.1008 H         1 RES1    0.0000
     18 H2         6.7690   -1.6777    6.9362 H         1 RES1    0.0000
     19 H3         4.4032   -1.5872    8.9273 H         1 RES1    0.0000
     20 H4         4.1027   -0.4343   10.9453 H         1 RES1    0.0000
     21 H5         5.2850    1.5128   11.3847 H         1 RES1    0.0000
     22 H6         6.7805    2.4017    9.7962 H         1 RES1    0.0000
@<TRIPOS>BOND
     1    1    8 1
     2    2    6 2
     3    3    6 2
     4    4    7 1
     5    5    7 1
     6    6   16 1
     7    7   16 2
     8    8    5 1
     9    9    8 1
    10   10    9 1
    11   11   10 ar
    12   12   11 ar
    13   13   12 ar
    14   14   13 ar
    15   15    1 1
    16   16    9 1
    17   17    8 1
    18   18    9 1
    19   19   11 1
    20   20   12 1
    21   21   13 1
    22   22   14 1
    23   10   15 ar
    24   14   15 ar
@<TRIPOS>SUBSTRUCTURE
     1 RES1 1

@<TRIPOS>CRYSIN
   9.8090    5.3550   17.1000  90.0000 101.2000  90.0000 231 1

