# MOL2 file generated by ConQuest
# Please check atom types

@<TRIPOS>MOLECULE
NIVJEI
    41    45     1
SMALL
NO_CHARGES
****
Generated from CSD

@<TRIPOS>ATOM
      1 O1         3.7952    8.2532    0.4067 O.3       1 RES1    0.0000
      2 O2         1.9158    6.9910    0.8461 O.3       1 RES1    0.0000
      3 O3         6.0913    4.1769    7.2510 O.2       1 RES1    0.0000
      4 O4         7.7745    3.5984    2.2756 O.3       1 RES1    0.0000
      5 O5         6.7844    6.7599    4.6192 O.3       1 RES1    0.0000
      6 O6         2.3968    2.7940    4.9514 O.3       1 RES1    0.0000
      7 N1         5.2353    4.1445    6.2533 N.pl3     1 RES1    0.0000
      8 C1         4.5085    2.8526    3.2820 C.2       1 RES1    0.0000
      9 H1         3.7802    2.3493    2.9974 H         1 RES1    0.0000
     10 C2         5.7299    2.4867    2.9375 C.2       1 RES1    0.0000
     11 H2         5.8145    1.7524    2.3740 H         1 RES1    0.0000
     12 C3         7.0015    3.1686    3.3904 C.3       1 RES1    0.0000
     13 H3         7.5320    2.5147    3.8919 H         1 RES1    0.0000
     14 C4         6.7766    4.4019    4.3019 C.3       1 RES1    0.0000
     15 H4         7.4974    4.4448    4.9648 H         1 RES1    0.0000
     16 C5         5.4887    4.2207    4.9998 C.2       1 RES1    0.0000
     17 C6         6.6607    5.7691    3.5971 C.3       1 RES1    0.0000
     18 H5         7.4006    5.8671    2.9624 H         1 RES1    0.0000
     19 C7         5.3480    5.9836    2.8675 C.ar      1 RES1    0.0000
     20 C8         5.2947    7.0330    1.9335 C.ar      1 RES1    0.0000
     21 H6         6.0514    7.5328    1.7257 H         1 RES1    0.0000
     22 C9         4.0940    7.2921    1.3440 C.ar      1 RES1    0.0000
     23 C10        2.9649    6.5455    1.6139 C.ar      1 RES1    0.0000
     24 C11        2.9766    5.5100    2.5095 C.ar      1 RES1    0.0000
     25 H7         2.2158    5.0015    2.6778 H         1 RES1    0.0000
     26 C12        4.1970    5.2527    3.1623 C.ar      1 RES1    0.0000
     27 C13        4.2803    4.0868    4.1378 C.3       1 RES1    0.0000
     28 C14        3.1175    3.9817    5.1737 C.3       1 RES1    0.0000
     29 H8         2.5200    4.7538    5.0823 H         1 RES1    0.0000
     30 C15        3.8023    4.0194    6.5414 C.3       1 RES1    0.0000
     31 H9         3.4903    4.7774    7.0598 H         1 RES1    0.0000
     32 H10        3.6227    3.2053    7.0372 H         1 RES1    0.0000
     33 C16        2.3888    8.2348    0.3151 C.3       1 RES1    0.0000
     34 H11        2.1153    8.3259   -0.6110 H         1 RES1    0.0000
     35 H12        2.0141    8.9745    0.8188 H         1 RES1    0.0000
     36 C17        8.4501    2.5340    1.6139 C.3       1 RES1    0.0000
     37 H13        8.8112    1.9292    2.2667 H         1 RES1    0.0000
     38 H14        9.1635    2.8911    1.0797 H         1 RES1    0.0000
     39 H15        7.8319    2.0640    1.0503 H         1 RES1    0.0000
     40 H16        7.4061    7.4138    4.3482 H         1 RES1    0.0000
     41 H17        1.7785    2.7397    5.4888 H         1 RES1    0.0000
@<TRIPOS>BOND
     1    1   22 1
     2    2   23 1
     3    3    7 1
     4    4   12 1
     5    5   17 1
     6    6   28 1
     7    7   16 2
     8    8    9 1
     9   10    8 2
    10   11   10 1
    11   12   10 1
    12   13   12 1
    13   14   12 1
    14   15   14 1
    15   16   14 1
    16   17   14 1
    17   18   17 1
    18   19   17 1
    19   20   19 ar
    20   21   20 1
    21   22   20 ar
    22   23   22 ar
    23   24   23 ar
    24   25   24 1
    25   26   19 ar
    26   27    8 1
    27   28   27 1
    28   29   28 1
    29   30    7 1
    30   31   30 1
    31   32   30 1
    32   33    1 1
    33   34   33 1
    34   35   33 1
    35   36    4 1
    36   37   36 1
    37   38   36 1
    38   39   36 1
    39   40    5 1
    40   41    6 1
    41    2   33 1
    42   16   27 1
    43   24   26 ar
    44   26   27 1
    45   28   30 1
@<TRIPOS>SUBSTRUCTURE
     1 RES1 1

@<TRIPOS>CRYSIN
   7.6310    8.7530   11.3080  90.0000  92.8600  90.0000   4 1

