# MOL2 file generated by ConQuest
# Please check atom types

@<TRIPOS>MOLECULE
NIVPAJ
    20    20     1
SMALL
NO_CHARGES
****
Generated from CSD

@<TRIPOS>ATOM
      1 C1         6.0565    4.8121    5.2998 C.ar      1 RES1    0.0000
      2 C2         5.4741    5.1398    4.1076 C.ar      1 RES1    0.0000
      3 C3         6.2191    5.2745    2.9138 C.ar      1 RES1    0.0000
      4 C4         7.6101    5.0480    3.0100 C.ar      1 RES1    0.0000
      5 C5         8.2052    4.7134    4.2409 C.ar      1 RES1    0.0000
      6 C6         7.4426    4.5952    5.3649 C.ar      1 RES1    0.0000
      7 C7         5.2408    4.6921    6.5579 C.3       1 RES1    0.0000
      8 O1         7.9770    5.4325    0.7643 O.2       1 RES1    0.0000
      9 O2         9.6753    4.9723    2.0046 O.2       1 RES1    0.0000
     10 O3         3.8724    4.7335    6.2897 O.3       1 RES1    0.0000
     11 N1         5.5670    5.5907    1.7798 N.3       1 RES1    0.0000
     12 N2         8.4669    5.1530    1.8782 N.pl3     1 RES1    0.0000
     13 H1         4.5972    5.3007    4.0464 H         1 RES1    0.0000
     14 H2         9.1398    4.5834    4.3099 H         1 RES1    0.0000
     15 H3         7.8514    4.3370    6.1626 H         1 RES1    0.0000
     16 H4         6.0431    5.8118    1.0620 H         1 RES1    0.0000
     17 H5         4.7609    5.8250    1.8371 H         1 RES1    0.0000
     18 H6         3.4027    4.9907    6.9920 H         1 RES1    0.0000
     19 H7         5.4670    3.8767    7.0385 H         1 RES1    0.0000
     20 H8         5.4011    5.4445    7.1393 H         1 RES1    0.0000
@<TRIPOS>BOND
     1    1    2 ar
     2    2    3 ar
     3    3    4 ar
     4    4    5 ar
     5    5    6 ar
     6    6    1 ar
     7    7    1 1
     8    8   12 2
     9    9   12 2
    10   10    7 1
    11   11    3 1
    12   12    4 1
    13   13    2 1
    14   14    5 1
    15   15    6 1
    16   16   11 1
    17   17   11 1
    18   18   10 1
    19   19    7 1
    20   20    7 1
@<TRIPOS>SUBSTRUCTURE
     1 RES1 1

@<TRIPOS>CRYSIN
   7.1900    7.2830    7.8880  84.0300  79.4300  63.5700   2 1

