# MOL2 file generated by ConQuest
# Please check atom types

@<TRIPOS>MOLECULE
NIVZUP
    32    33     1
SMALL
NO_CHARGES
****
Generated from CSD

@<TRIPOS>ATOM
      1 O1         2.9806    4.8367    1.5209 O.3       1 RES1    0.0000
      2 N1         5.2926    4.0275    0.8280 N.2       1 RES1    0.0000
      3 O2         6.5549    3.6347    0.3840 O.3       1 RES1    0.0000
      4 H1         6.4740    3.0421   -0.1780 H         1 RES1    0.0000
      5 C1         7.2230    5.5009    3.1426 C.2       1 RES1    0.0000
      6 C2         9.0367    7.3278    3.3335 C.ar      1 RES1    0.0000
      7 H2         8.7954    7.8100    2.5763 H         1 RES1    0.0000
      8 C3         8.7402    5.4795    4.8394 C.ar      1 RES1    0.0000
      9 O3         3.8317    6.4464    2.7865 O.2       1 RES1    0.0000
     10 N2         7.8737    4.4329    4.9788 N.pl3     1 RES1    0.0000
     11 H3         7.8888    3.8600    5.6202 H         1 RES1    0.0000
     12 C4         8.3414    6.1795    3.6961 C.ar      1 RES1    0.0000
     13 C5         6.5198    5.9058    1.8963 C.3       1 RES1    0.0000
     14 H4         7.1472    5.8538    1.1584 H         1 RES1    0.0000
     15 H5         6.2499    6.8333    1.9842 H         1 RES1    0.0000
     16 C6        10.0808    7.7303    4.1101 C.ar      1 RES1    0.0000
     17 H6        10.5390    8.5072    3.8827 H         1 RES1    0.0000
     18 C7         9.8119    5.8815    5.6331 C.ar      1 RES1    0.0000
     19 H7        10.0610    5.4073    6.3925 H         1 RES1    0.0000
     20 C8         6.9821    4.4335    3.9535 C.2       1 RES1    0.0000
     21 H8         6.3119    3.8022    3.8248 H         1 RES1    0.0000
     22 C9         5.3186    5.0966    1.5509 C.2       1 RES1    0.0000
     23 C10        3.9895    5.5407    2.0250 C.2       1 RES1    0.0000
     24 C11        1.6208    5.2583    1.8491 C.3       1 RES1    0.0000
     25 H9         1.4822    5.2150    2.8080 H         1 RES1    0.0000
     26 H10        1.4799    6.1738    1.5595 H         1 RES1    0.0000
     27 C12        0.6825    4.3729    1.1691 C.3       1 RES1    0.0000
     28 H11        0.7902    4.4601    0.2188 H         1 RES1    0.0000
     29 H12       -0.2155    4.6114    1.4136 H         1 RES1    0.0000
     30 H13        0.8536    3.4649    1.4287 H         1 RES1    0.0000
     31 C13       10.4821    7.0089    5.2384 C.ar      1 RES1    0.0000
     32 H14       11.2150    7.2995    5.7318 H         1 RES1    0.0000
@<TRIPOS>BOND
     1    1   23 1
     2    2    3 1
     3    3    4 1
     4    5   12 1
     5    6    7 1
     6    8   10 1
     7    9   23 2
     8   10   11 1
     9   12    6 ar
    10   13    5 1
    11   14   13 1
    12   15   13 1
    13   16    6 ar
    14   17   16 1
    15   18    8 ar
    16   19   18 1
    17   20    5 2
    18   21   20 1
    19   22    2 2
    20   23   22 1
    21   24    1 1
    22   25   24 1
    23   26   24 1
    24   27   24 1
    25   28   27 1
    26   29   27 1
    27   30   27 1
    28   31   16 ar
    29   32   31 1
    30    8   12 ar
    31   10   20 1
    32   13   22 1
    33   18   31 ar
@<TRIPOS>SUBSTRUCTURE
     1 RES1 1

@<TRIPOS>CRYSIN
  10.1380    5.7758   21.7400  90.0000  99.3480  90.0000 231 1

