# MOL2 file generated by ConQuest
# Please check atom types

@<TRIPOS>MOLECULE
NIWBAY
    96   100     2
SMALL
NO_CHARGES
****
Generated from CSD

@<TRIPOS>ATOM
      1 C1         2.2468    5.2834    4.5146 C.ar      1 RES1    0.0000
      2 H1         1.3259    5.4085    4.5427 H         1 RES1    0.0000
      3 C2         3.1005    6.3270    4.7044 C.ar      1 RES1    0.0000
      4 H2         2.7484    7.1719    4.8685 H         1 RES1    0.0000
      5 C3         4.4616    6.1735    4.6628 C.ar      1 RES1    0.0000
      6 H3         5.0193    6.9053    4.7975 H         1 RES1    0.0000
      7 C4         4.9963    4.9346    4.4190 C.ar      1 RES1    0.0000
      8 H4         5.9191    4.8258    4.3688 H         1 RES1    0.0000
      9 C5         4.1653    3.8554    4.2488 C.ar      1 RES1    0.0000
     10 C6         2.7863    4.0357    4.2794 C.ar      1 RES1    0.0000
     11 C7         3.0308    1.8278    3.6499 C.3       1 RES1    0.0000
     12 H5         2.8751    1.0179    4.1802 H         1 RES1    0.0000
     13 C8         4.4774    2.4030    3.9977 C.3       1 RES1    0.0000
     14 C9         5.3824    2.2111    2.7901 C.3       1 RES1    0.0000
     15 H6         6.2034    2.7116    2.9162 H         1 RES1    0.0000
     16 H7         5.6110    1.2716    2.7019 H         1 RES1    0.0000
     17 C10        4.6985    2.6758    1.5481 C.2       1 RES1    0.0000
     18 C11        5.4398    3.4156    0.5144 C.2       1 RES1    0.0000
     19 C12        5.3605    4.5688   -1.5383 C.3       1 RES1    0.0000
     20 H8         5.7575    3.9115   -2.1311 H         1 RES1    0.0000
     21 H9         6.0716    5.1240   -1.1819 H         1 RES1    0.0000
     22 C13        4.4117    5.4040   -2.2916 C.3       1 RES1    0.0000
     23 H10        3.7251    4.8497   -2.6676 H         1 RES1    0.0000
     24 H11        4.8766    5.8614   -2.9958 H         1 RES1    0.0000
     25 H12        4.0149    6.0486   -1.7000 H         1 RES1    0.0000
     26 C14        4.9576    1.6539    5.2543 C.3       1 RES1    0.0000
     27 H13        4.1966    1.5262    5.8410 H         1 RES1    0.0000
     28 H14        5.2663    0.7757    4.9849 H         1 RES1    0.0000
     29 C15        6.0463    2.3119    6.0382 C.2       1 RES1    0.0000
     30 C16        5.6631    3.2932    7.0890 C.2       1 RES1    0.0000
     31 C17        6.3313    4.9405    8.6004 C.3       1 RES1    0.0000
     32 H15        5.9002    5.6822    8.1473 H         1 RES1    0.0000
     33 H16        5.7238    4.5890    9.2704 H         1 RES1    0.0000
     34 C18        7.4863    5.3369    9.1663 C.3       1 RES1    0.0000
     35 H17        8.0029    4.5648    9.4100 H         1 RES1    0.0000
     36 H18        7.2972    5.8563    9.9501 H         1 RES1    0.0000
     37 H19        7.9827    5.8698    8.5404 H         1 RES1    0.0000
     38 N1         2.1755    2.8360    4.1030 N.3       1 RES1    0.0000
     39 H20        1.3382    2.7077    4.2561 H         1 RES1    0.0000
     40 N2         3.4588    2.3706    1.2885 N.2       1 RES1    0.0000
     41 N3         7.3041    2.0286    5.9831 N.2       1 RES1    0.0000
     42 O1         2.8725    1.5103    2.2561 O.3       1 RES1    0.0000
     43 O2         4.6770    3.8960   -0.4532 O.3       1 RES1    0.0000
     44 O3         6.6213    3.5629    0.5561 O.2       1 RES1    0.0000
     45 O4         6.7067    3.8912    7.6365 O.3       1 RES1    0.0000
     46 O5         4.5243    3.4735    7.3952 O.2       1 RES1    0.0000
     47 O6         7.6134    1.1000    4.9898 O.3       1 RES1    0.0000
     48 H21        8.3142    0.7205    5.1796 H         1 RES1    0.0000
     49 C19       12.5519    4.5070   -0.7667 C.ar      2 RES2    0.0000
     50 H22       13.4715    4.5950   -0.8671 H         2 RES2    0.0000
     51 C20       11.6881    5.4817   -1.2505 C.ar      2 RES2    0.0000
     52 H23       12.0351    6.2270   -1.6853 H         2 RES2    0.0000
     53 C21       10.3371    5.3603   -1.0950 C.ar      2 RES2    0.0000
     54 H24        9.7675    6.0270   -1.4036 H         2 RES2    0.0000
     55 C22        9.8326    4.2439   -0.4801 C.ar      2 RES2    0.0000
     56 H25        8.9103    4.1638   -0.3919 H         2 RES2    0.0000
     57 C23       10.6329    3.2367    0.0159 C.ar      2 RES2    0.0000
     58 C24       12.0125    3.4006   -0.1335 C.ar      2 RES2    0.0000
     59 C25       11.7693    1.5139    1.1721 C.3       2 RES2    0.0000
     60 H26       11.8925    0.5689    0.9443 H         2 RES2    0.0000
     61 C26       10.3241    1.9641    0.7214 C.3       2 RES2    0.0000
     62 C27        9.4476    2.1767    1.9462 C.3       2 RES2    0.0000
     63 H27        8.6257    2.6208    1.6841 H         2 RES2    0.0000
     64 H28        9.2163    1.3182    2.3332 H         2 RES2    0.0000
     65 C28       10.1489    2.9934    2.9468 C.2       2 RES2    0.0000
     66 C29        9.4817    4.0170    3.7099 C.2       2 RES2    0.0000
     67 C30        9.5261    5.5169    5.5507 C.3       2 RES2    0.0000
     68 H29        8.7239    5.1503    5.9537 H         2 RES2    0.0000
     69 H30        9.2783    6.2928    5.0228 H         2 RES2    0.0000
     70 C31       10.4842    5.9028    6.5967 C.3       2 RES2    0.0000
     71 H31       10.6032    5.1712    7.2066 H         2 RES2    0.0000
     72 H32       10.1484    6.6660    7.0731 H         2 RES2    0.0000
     73 H33       11.3268    6.1242    6.1925 H         2 RES2    0.0000
     74 C32        9.8474    0.8412   -0.2352 C.3       2 RES2    0.0000
     75 H34       10.4745    0.7845   -0.9737 H         2 RES2    0.0000
     76 H35        9.8857   -0.0015    0.2425 H         2 RES2    0.0000
     77 C33        8.4503    0.9979   -0.8108 C.2       2 RES2    0.0000
     78 C34        8.2041    1.4892   -2.1789 C.2       2 RES2    0.0000
     79 C35        9.2265    2.3524   -4.1459 C.3       2 RES2    0.0000
     80 H36        8.5666    1.8249   -4.6248 H         2 RES2    0.0000
     81 H37       10.0806    2.2480   -4.5929 H         2 RES2    0.0000
     82 C36        8.8364    3.7486   -4.1496 C.3       2 RES2    0.0000
     83 H38        7.9441    3.8336   -3.8066 H         2 RES2    0.0000
     84 H39        8.8680    4.0882   -5.0473 H         2 RES2    0.0000
     85 H40        9.4397    4.2514   -3.5972 H         2 RES2    0.0000
     86 N4        12.6426    2.2937    0.3834 N.3       2 RES2    0.0000
     87 H41       13.4679    2.0989    0.2437 H         2 RES2    0.0000
     88 N5        11.3791    2.7849    3.2616 N.2       2 RES2    0.0000
     89 N6         7.3975    0.5046   -0.2903 N.2       2 RES2    0.0000
     90 O7        11.9781    1.6826    2.5880 O.3       2 RES2    0.0000
     91 O8        10.1660    4.5162    4.7032 O.3       2 RES2    0.0000
     92 O9         8.3459    4.3554    3.4637 O.2       2 RES2    0.0000
     93 O10        9.3266    1.8889   -2.7803 O.3       2 RES2    0.0000
     94 O11        7.1205    1.5399   -2.6933 O.2       2 RES2    0.0000
     95 O12        7.5600   -0.0761    0.9480 O.3       2 RES2    0.0000
     96 H42        6.8537   -0.4183    1.1844 H         2 RES2    0.0000
@<TRIPOS>BOND
     1    1    2 1
     2    3    1 ar
     3    4    3 1
     4    5    3 ar
     5    6    5 1
     6    7    5 ar
     7    8    7 1
     8    9    7 ar
     9   10    1 ar
    10   11   12 1
    11   13    9 1
    12   14   13 1
    13   15   14 1
    14   16   14 1
    15   17   14 1
    16   18   17 1
    17   19   20 1
    18   21   19 1
    19   22   19 1
    20   23   22 1
    21   24   22 1
    22   25   22 1
    23   26   13 1
    24   27   26 1
    25   28   26 1
    26   29   26 1
    27   30   29 1
    28   31   32 1
    29   33   31 1
    30   34   31 1
    31   35   34 1
    32   36   34 1
    33   37   34 1
    34   38   10 1
    35   39   38 1
    36   40   17 2
    37   41   29 2
    38   42   11 1
    39   43   18 1
    40   44   18 2
    41   45   30 1
    42   46   30 2
    43   47   41 1
    44   48   47 1
    45   49   50 1
    46   51   49 ar
    47   52   51 1
    48   53   51 ar
    49   54   53 1
    50   55   53 ar
    51   56   55 1
    52   57   55 ar
    53   58   49 ar
    54   59   60 1
    55   61   57 1
    56   62   61 1
    57   63   62 1
    58   64   62 1
    59   65   62 1
    60   66   65 1
    61   67   68 1
    62   69   67 1
    63   70   67 1
    64   71   70 1
    65   72   70 1
    66   73   70 1
    67   74   61 1
    68   75   74 1
    69   76   74 1
    70   77   74 1
    71   78   77 1
    72   79   80 1
    73   81   79 1
    74   82   79 1
    75   83   82 1
    76   84   82 1
    77   85   82 1
    78   86   58 1
    79   87   86 1
    80   88   65 2
    81   89   77 2
    82   90   59 1
    83   91   66 1
    84   92   66 2
    85   93   78 1
    86   94   78 2
    87   95   89 1
    88   96   95 1
    89    9   10 ar
    90   11   13 1
    91   11   38 1
    92   19   43 1
    93   31   45 1
    94   40   42 1
    95   57   58 ar
    96   59   61 1
    97   59   86 1
    98   67   91 1
    99   79   93 1
   100   88   90 1
@<TRIPOS>SUBSTRUCTURE
     1 RES1 1
     2 RES2 49

@<TRIPOS>CRYSIN
  12.2750   13.0550   13.6840  69.6250  67.9710  71.4270   2 1

