# MOL2 file generated by ConQuest
# Please check atom types

@<TRIPOS>MOLECULE
NIWFAB
    72    80     4
SMALL
NO_CHARGES
****
Generated from CSD

@<TRIPOS>ATOM
      1 N1        -1.2470    1.2368    6.7013 N.pl3     1 RES1    0.0000
      2 C1        -1.0343    2.4079    5.0296 C.2       1 RES1    0.0000
      3 C2        -0.5005    3.2653    3.8231 C.2       1 RES1    0.0000
      4 C3        -1.4229    4.0309    3.0236 C.2       1 RES1    0.0000
      5 N2        -0.7043    4.6118    2.1441 N.2       1 RES1    0.0000
      6 O1         0.6485    4.2014    2.4785 O.3       1 RES1    0.0000
      7 N3         0.7583    3.5446    3.6210 N.2       1 RES1    0.0000
      8 N4        -2.8686    4.0682    2.9843 N.pl3     1 RES1    0.0000
      9 C4         0.9684    2.7308    6.8103 C.2       1 RES1    0.0000
     10 C5         1.7366    2.0938    7.7479 C.2       1 RES1    0.0000
     11 N5         2.7110    2.9723    8.1143 N.2       1 RES1    0.0000
     12 O2         2.6276    4.0660    7.3002 O.3       1 RES1    0.0000
     13 N6         1.2328    3.8817    6.6155 N.2       1 RES1    0.0000
     14 N7         1.8525    0.8255    8.3032 N.pl3     1 RES1    0.0000
     15 O3        -1.0249    0.6256    7.5880 O.2       1 RES1    0.0000
     16 O4        -2.6233    1.1819    5.8873 O.3       1 RES1    0.0000
     17 C6        -0.4451    2.0616    6.2652 C.2       1 RES1    0.0000
     18 N8        -2.0784    1.8212    4.9715 N.2       1 RES1    0.0000
     19 C7        -3.4449    8.8875   -1.5423 C.2       2 RES2    0.0000
     20 C8        -4.0335    9.7016   -2.4712 C.2       2 RES2    0.0000
     21 C9        -5.3613    9.1592   -2.9931 C.2       2 RES2    0.0000
     22 C10       -6.1654    9.9834   -3.9248 C.2       2 RES2    0.0000
     23 N9        -7.0924    9.2819   -4.1865 N.2       2 RES2    0.0000
     24 O5        -6.9523    7.9802   -3.6530 O.3       2 RES2    0.0000
     25 N10       -5.7594    8.0010   -2.9654 N.2       2 RES2    0.0000
     26 N11       -6.1284   11.2838   -4.2752 N.pl3     2 RES2    0.0000
     27 N12       -3.4353   10.7214   -3.0236 N.2       2 RES2    0.0000
     28 O6        -2.2189   10.7713   -2.1587 O.3       2 RES2    0.0000
     29 N13       -2.2124    9.5853   -1.3155 N.pl3     2 RES2    0.0000
     30 O7        -1.2053    9.5915   -0.7661 O.2       2 RES2    0.0000
     31 C11       -3.6641    7.7117   -0.6018 C.2       2 RES2    0.0000
     32 C12       -2.7366    6.7080   -0.0930 C.2       2 RES2    0.0000
     33 N14       -3.5324    5.9803    0.7704 N.2       2 RES2    0.0000
     34 O8        -4.7671    6.4771    0.5669 O.3       2 RES2    0.0000
     35 N15       -4.8161    7.6077   -0.2122 N.2       2 RES2    0.0000
     36 N16       -1.4630    6.6441   -0.3053 N.pl3     2 RES2    0.0000
     37 C13        0.5630    8.3052    3.8376 C.2       3 RES3    0.0000
     38 C14       -0.0871    8.9257    2.6456 C.2       3 RES3    0.0000
     39 C15        0.1791    9.9743    1.8752 C.2       3 RES3    0.0000
     40 C16       -0.5598   11.1250    1.4827 C.2       3 RES3    0.0000
     41 N17        0.0592   11.9382    0.7414 N.2       3 RES3    0.0000
     42 O9         1.4406   11.4923    0.7399 O.3       3 RES3    0.0000
     43 N18        1.5081   10.3298    1.5118 N.2       3 RES3    0.0000
     44 N19       -2.0092   11.4248    1.5728 N.pl3     3 RES3    0.0000
     45 O10       -1.2960    7.6628    3.1544 O.3       3 RES3    0.0000
     46 N20       -0.2783    7.2735    3.9830 N.pl3     3 RES3    0.0000
     47 O11       -0.2656    6.5612    4.7970 O.2       3 RES3    0.0000
     48 C17        1.9527    8.6807    4.4482 C.2       3 RES3    0.0000
     49 N21        2.2721    9.8399    4.3319 N.2       3 RES3    0.0000
     50 O12        3.5420    9.9467    5.0485 O.3       3 RES3    0.0000
     51 N22        3.8141    8.7340    5.7375 N.2       3 RES3    0.0000
     52 N23        2.6722    6.6711    5.6401 N.pl3     3 RES3    0.0000
     53 C18        2.6497    7.8710    5.3203 C.2       3 RES3    0.0000
     54 N24       -1.5760    8.7206    2.4712 N.2       3 RES3    0.0000
     55 C19       -4.7865    5.0272   -3.7359 C.2       4 RES4    0.0000
     56 C20       -5.3673    5.3390   -5.1023 C.2       4 RES4    0.0000
     57 C21       -6.6848    4.9565   -5.5820 C.2       4 RES4    0.0000
     58 C22       -7.6677    5.5144   -6.4833 C.2       4 RES4    0.0000
     59 N25       -8.4719    4.7496   -6.6577 N.2       4 RES4    0.0000
     60 O13       -8.1407    3.5045   -5.8829 O.3       4 RES4    0.0000
     61 N26       -7.1140    3.7021   -5.1895 N.2       4 RES4    0.0000
     62 N27       -7.4897    6.7404   -6.9484 N.pl3     4 RES4    0.0000
     63 C23       -5.1132    4.2160   -2.5831 C.2       4 RES4    0.0000
     64 N28       -4.9379    3.0732   -0.7414 N.2       4 RES4    0.0000
     65 N29       -2.9193    3.4296   -1.6862 N.pl3     4 RES4    0.0000
     66 N30       -3.7807    5.8370   -3.8231 N.pl3     4 RES4    0.0000
     67 O14       -2.8497    6.1210   -3.0977 O.2       4 RES4    0.0000
     68 O15       -3.6533    6.7762   -4.8435 O.3       4 RES4    0.0000
     69 N31       -6.2501    4.1084   -2.3258 N.2       4 RES4    0.0000
     70 N32       -4.8490    6.5231   -5.6692 N.2       4 RES4    0.0000
     71 O16       -6.3965    3.1589   -1.2065 O.3       4 RES4    0.0000
     72 C24       -4.1461    3.5249   -1.6673 C.2       4 RES4    0.0000
@<TRIPOS>BOND
     1    1   15 1
     2    2    3 1
     3    3    4 1
     4    4    5 2
     5    5    6 1
     6    6    7 1
     7    7    3 2
     8    8    4 1
     9    9   10 1
    10   10   11 2
    11   11   12 1
    12   12   13 1
    13   13    9 2
    14   14   10 1
    15   16    1 1
    16   17    1 2
    17   18    2 2
    18   19   20 1
    19   20   21 1
    20   21   22 1
    21   22   23 2
    22   23   24 1
    23   24   25 1
    24   25   21 2
    25   26   22 1
    26   27   20 2
    27   28   27 1
    28   29   19 2
    29   30   29 1
    30   31   19 1
    31   32   31 1
    32   33   32 2
    33   34   33 1
    34   35   31 2
    35   36   32 1
    36   37   38 1
    37   38   39 1
    38   39   40 1
    39   40   41 2
    40   41   42 1
    41   42   43 1
    42   43   39 2
    43   44   40 1
    44   45   46 1
    45   46   37 2
    46   47   46 1
    47   48   37 1
    48   49   48 2
    49   50   49 1
    50   51   50 1
    51   52   53 1
    52   53   48 1
    53   54   38 2
    54   55   56 1
    55   56   57 1
    56   57   58 1
    57   58   59 2
    58   59   60 1
    59   60   61 1
    60   61   57 2
    61   62   58 1
    62   63   55 1
    63   64   71 1
    64   65   72 1
    65   66   55 2
    66   67   66 1
    67   68   66 1
    68   69   63 2
    69   70   56 2
    70   71   69 1
    71   72   63 1
    72    2   17 1
    73    9   17 1
    74   16   18 1
    75   28   29 1
    76   34   35 1
    77   45   54 1
    78   51   53 2
    79   64   72 2
    80   68   70 1
@<TRIPOS>SUBSTRUCTURE
     1 RES1 1
     2 RES2 19
     3 RES3 37
     4 RES4 55

@<TRIPOS>CRYSIN
   6.4000   10.6090   14.6340  83.5300  87.2700  77.7400   1 1

