# MOL2 file generated by ConQuest
# Please check atom types

@<TRIPOS>MOLECULE
NIWFAB01
    18    20     1
SMALL
NO_CHARGES
****
Generated from CSD

@<TRIPOS>ATOM
      1 O1         3.4109    0.9186    7.3763 O.3       1 RES1    0.0000
      2 O2         2.8711    5.7160    7.2986 O.2       1 RES1    0.0000
      3 O3         1.0683    5.9349    8.6443 O.3       1 RES1    0.0000
      4 O4         0.5204    1.2855   11.7719 O.3       1 RES1    0.0000
      5 N1         4.5713    1.6971    7.1863 N.2       1 RES1    0.0000
      6 N2         2.4247    1.6981    7.9320 N.2       1 RES1    0.0000
      7 N3         5.2115    3.8768    7.7623 N.pl3     1 RES1    0.0000
      8 N4         2.1460    5.1584    8.0934 N.pl3     1 RES1    0.0000
      9 N5         0.3936    5.1574    9.5347 N.2       1 RES1    0.0000
     10 N6         1.2413    1.9374   10.8111 N.2       1 RES1    0.0000
     11 N7        -0.6715    1.9861   12.0648 N.2       1 RES1    0.0000
     12 N8        -1.6422    3.9206   11.2031 N.pl3     1 RES1    0.0000
     13 C1         4.3050    2.8862    7.6679 C.2       1 RES1    0.0000
     14 C2         2.9306    2.8765    8.1077 C.2       1 RES1    0.0000
     15 C3         2.1002    3.9498    8.6180 C.2       1 RES1    0.0000
     16 C4         0.9964    3.9595    9.5299 C.2       1 RES1    0.0000
     17 C5         0.5389    2.9738   10.4884 C.2       1 RES1    0.0000
     18 C6        -0.6679    3.0224   11.2700 C.2       1 RES1    0.0000
@<TRIPOS>BOND
     1    1    5 1
     2    2    8 1
     3    3    8 1
     4    4   10 1
     5    5   13 2
     6    6    1 1
     7    7   13 1
     8    8   15 2
     9    9    3 1
    10   10   17 2
    11   11    4 1
    12   12   18 1
    13   13   14 1
    14   14    6 2
    15   15   14 1
    16   16    9 2
    17   17   16 1
    18   18   11 2
    19   15   16 1
    20   17   18 1
@<TRIPOS>SUBSTRUCTURE
     1 RES1 1

@<TRIPOS>CRYSIN
   8.2550    9.7310   11.9580  90.0000  91.9300  90.0000  14 1

