# MOL2 file generated by ConQuest
# Please check atom types

@<TRIPOS>MOLECULE
NIWQUG
    52    52     2
SMALL
NO_CHARGES
****
Generated from CSD

@<TRIPOS>ATOM
      1 C1        19.0672    6.1476    4.5280 C.ar      1 RES1    0.0000
      2 C2        18.7871    7.1967    3.6889 C.ar      1 RES1    0.0000
      3 H1        19.4618    7.7694    3.4033 H         1 RES1    0.0000
      4 C3        17.4902    7.3855    3.2789 C.ar      1 RES1    0.0000
      5 H2        17.2881    8.0952    2.7142 H         1 RES1    0.0000
      6 C4        16.4765    6.5331    3.6954 C.ar      1 RES1    0.0000
      7 C5        16.8027    5.4803    4.5303 C.ar      1 RES1    0.0000
      8 H3        16.1344    4.8946    4.8015 H         1 RES1    0.0000
      9 C6        18.0822    5.2774    4.9632 C.ar      1 RES1    0.0000
     10 H4        18.2874    4.5729    5.5354 H         1 RES1    0.0000
     11 C7        15.0523    6.7532    3.2486 C.3       1 RES1    0.0000
     12 H5        14.4746    6.7370    4.0277 H         1 RES1    0.0000
     13 H6        14.9823    7.6345    2.8485 H         1 RES1    0.0000
     14 C8        14.5574    5.7334    2.2584 C.2       1 RES1    0.0000
     15 C9        12.6494    5.0991    0.9926 C.3       1 RES1    0.0000
     16 H7        12.6335    4.1859    1.3210 H         1 RES1    0.0000
     17 H8        13.1459    5.1200    0.1592 H         1 RES1    0.0000
     18 C10       11.2618    5.6037    0.7861 C.3       1 RES1    0.0000
     19 H9        10.7701    5.5342    1.6071 H         1 RES1    0.0000
     20 H10       10.8289    5.0797    0.1070 H         1 RES1    0.0000
     21 H11       11.2936    6.5221    0.5075 H         1 RES1    0.0000
     22 C11       15.3324    1.7928    8.0291 C.ar      2 RES2    0.0000
     23 C12       15.0746    0.6961    8.8339 C.ar      2 RES2    0.0000
     24 H12       15.7588    0.1151    9.0780 H         2 RES2    0.0000
     25 C13       13.7840    0.4832    9.2668 C.ar      2 RES2    0.0000
     26 H13       13.6010   -0.2385    9.8243 H         2 RES2    0.0000
     27 C14       12.7576    1.3231    8.8857 C.ar      2 RES2    0.0000
     28 C15       13.0536    2.3905    8.0455 C.ar      2 RES2    0.0000
     29 H14       12.3677    2.9522    7.7669 H         2 RES2    0.0000
     30 C16       14.3410    2.6374    7.6169 C.ar      2 RES2    0.0000
     31 H15       14.5303    3.3596    7.0629 H         2 RES2    0.0000
     32 C17       11.3541    1.0596    9.3218 C.3       2 RES2    0.0000
     33 H16       11.3111    0.1762    9.7223 H         2 RES2    0.0000
     34 H17       10.7796    1.0564    8.5406 H         2 RES2    0.0000
     35 C18       10.8226    2.0647   10.3099 C.2       2 RES2    0.0000
     36 C19        8.9066    2.7085   11.5484 C.3       2 RES2    0.0000
     37 H18        8.8812    3.6138   11.2026 H         2 RES2    0.0000
     38 H19        9.4031    2.7122   12.3818 H         2 RES2    0.0000
     39 C20        7.5206    2.2038   11.7772 C.3       2 RES2    0.0000
     40 H20        7.0241    2.2488   10.9563 H         2 RES2    0.0000
     41 H21        7.0893    2.7451   12.4440 H         2 RES2    0.0000
     42 H22        7.5572    1.2939   12.0808 H         2 RES2    0.0000
     43 N1        20.4485    5.9112    4.9632 N.pl3     1 RES1    0.0000
     44 N2        16.7152    2.0595    7.6020 N.pl3     2 RES2    0.0000
     45 O1        21.3253    6.6214    4.5183 O.2       1 RES1    0.0000
     46 O2        20.6728    5.0389    5.7603 O.2       1 RES1    0.0000
     47 O3        15.1901    4.8485    1.7716 O.2       1 RES1    0.0000
     48 O4        13.2697    5.9803    1.9753 O.3       1 RES1    0.0000
     49 O5        16.9173    3.0155    6.8805 O.2       2 RES2    0.0000
     50 O6        17.6080    1.3315    7.9993 O.2       2 RES2    0.0000
     51 O7        11.4430    2.9857   10.7951 O.2       2 RES2    0.0000
     52 O8         9.5431    1.8226   10.5898 O.3       2 RES2    0.0000
@<TRIPOS>BOND
     1    1    2 ar
     2    2    3 1
     3    4    2 ar
     4    5    4 1
     5    6    4 ar
     6    7    6 ar
     7    8    7 1
     8    9    1 ar
     9   10    9 1
    10   11    6 1
    11   12   11 1
    12   13   11 1
    13   14   11 1
    14   15   16 1
    15   17   15 1
    16   18   15 1
    17   19   18 1
    18   20   18 1
    19   21   18 1
    20   22   23 ar
    21   23   24 1
    22   25   23 ar
    23   26   25 1
    24   27   25 ar
    25   28   27 ar
    26   29   28 1
    27   30   22 ar
    28   31   30 1
    29   32   27 1
    30   33   32 1
    31   34   32 1
    32   35   32 1
    33   36   37 1
    34   38   36 1
    35   39   36 1
    36   40   39 1
    37   41   39 1
    38   42   39 1
    39   43    1 1
    40   44   22 1
    41   45   43 2
    42   46   43 2
    43   47   14 2
    44   48   14 1
    45   49   44 2
    46   50   44 2
    47   51   35 2
    48   52   35 1
    49    7    9 ar
    50   15   48 1
    51   28   30 ar
    52   36   52 1
@<TRIPOS>SUBSTRUCTURE
     1 RES1 1
     2 RES2 22

@<TRIPOS>CRYSIN
  15.9132    5.2298   24.8780  90.0000  90.0000  90.0000  29 1

