# MOL2 file generated by ConQuest
# Please check atom types

@<TRIPOS>MOLECULE
NIWROB03
    31    33     1
SMALL
NO_CHARGES
****
Generated from CSD

@<TRIPOS>ATOM
      1 O1         0.4152   11.5304   -1.0829 O.2       1 RES1    0.0000
      2 O2         1.8709   12.9698   -1.6156 O.2       1 RES1    0.0000
      3 O3         4.8259    8.6814    5.3835 O.2       1 RES1    0.0000
      4 C1         2.4190    8.8621    2.7082 C.3       1 RES1    0.0000
      5 H1         1.4563    9.0007    2.8317 H         1 RES1    0.0000
      6 N1         2.6123    7.5165    2.2202 N.3       1 RES1    0.0000
      7 N2         3.0591    8.9769    4.0193 N.am      1 RES1    0.0000
      8 N3         1.5155   12.0165   -0.9817 N.pl3     1 RES1    0.0000
      9 C2         2.4746   11.4285   -0.0418 C.ar      1 RES1    0.0000
     10 C3         2.0194   10.4877    0.8487 C.ar      1 RES1    0.0000
     11 H2         1.1233   10.2407    0.8591 H         1 RES1    0.0000
     12 C4         2.9199    9.9144    1.7305 C.ar      1 RES1    0.0000
     13 C5         3.8162    6.8922    2.3969 C.ar      1 RES1    0.0000
     14 C6         4.6622    7.3021    3.4459 C.ar      1 RES1    0.0000
     15 C7         5.8654    6.6496    3.6641 C.ar      1 RES1    0.0000
     16 H3         6.4222    6.9323    4.3525 H         1 RES1    0.0000
     17 C8         6.2450    5.5925    2.8775 C.ar      1 RES1    0.0000
     18 H4         7.0578    5.1645    3.0214 H         1 RES1    0.0000
     19 C9         4.2099    8.3734    4.3467 C.2       1 RES1    0.0000
     20 C10        5.3949    5.1696    1.8597 C.ar      1 RES1    0.0000
     21 H5         5.6397    4.4413    1.3366 H         1 RES1    0.0000
     22 C11        4.2053    5.8023    1.6118 C.ar      1 RES1    0.0000
     23 H6         3.6569    5.5068    0.9216 H         1 RES1    0.0000
     24 C12        4.2435   10.3049    1.6698 C.ar      1 RES1    0.0000
     25 H7         4.8573    9.9243    2.2560 H         1 RES1    0.0000
     26 C13        4.6735   11.2447    0.7607 C.ar      1 RES1    0.0000
     27 H8         5.5719   11.4837    0.7330 H         1 RES1    0.0000
     28 C14        3.7873   11.8305   -0.1033 C.ar      1 RES1    0.0000
     29 H9         4.0646   12.4778   -0.7107 H         1 RES1    0.0000
     30 H10        2.1557    7.3103    1.5408 H         1 RES1    0.0000
     31 H11        2.7920    9.6227    4.5154 H         1 RES1    0.0000
@<TRIPOS>BOND
     1    1    8 2
     2    2    8 2
     3    3   19 2
     4    4    5 1
     5    6    4 1
     6    7    4 1
     7    8    9 1
     8    9   10 ar
     9   10   11 1
    10   12    4 1
    11   13    6 1
    12   14   13 ar
    13   15   14 ar
    14   16   15 1
    15   17   15 ar
    16   18   17 1
    17   19    7 1
    18   20   17 ar
    19   21   20 1
    20   22   13 ar
    21   23   22 1
    22   24   12 ar
    23   25   24 1
    24   26   24 ar
    25   27   26 1
    26   28    9 ar
    27   29   28 1
    28   30    6 1
    29   31    7 1
    30   10   12 ar
    31   14   19 1
    32   20   22 ar
    33   26   28 ar
@<TRIPOS>SUBSTRUCTURE
     1 RES1 1

@<TRIPOS>CRYSIN
  11.0477    9.9203   11.8791  90.0000 110.0760  90.0000 231 1

