# MOL2 file generated by ConQuest
# Please check atom types

@<TRIPOS>MOLECULE
NIWROB
    31    33     1
SMALL
NO_CHARGES
****
Generated from CSD

@<TRIPOS>ATOM
      1 O1         4.1362    3.7062    0.1936 O.2       1 RES1    0.0000
      2 O2         7.1862    8.1082    7.0842 O.2       1 RES1    0.0000
      3 O3         8.6212    6.5653    6.6293 O.2       1 RES1    0.0000
      4 N1         5.9313    3.9775    1.5446 N.am      1 RES1    0.0000
      5 H1         6.1917    4.6187    1.0400 H         1 RES1    0.0000
      6 N2         6.3856    2.5000    3.3441 N.3       1 RES1    0.0000
      7 H2         6.8301    2.3197    4.0491 H         1 RES1    0.0000
      8 N3         7.5218    7.0866    6.4988 N.pl3     1 RES1    0.0000
      9 C1         4.7683    3.3847    1.2229 C.2       1 RES1    0.0000
     10 C2         4.3211    2.2982    2.1228 C.ar      1 RES1    0.0000
     11 C3         5.1729    1.8808    3.1661 C.ar      1 RES1    0.0000
     12 C4         4.7909    0.7747    3.9494 C.ar      1 RES1    0.0000
     13 H3         5.3427    0.4754    4.6350 H         1 RES1    0.0000
     14 C5         3.5922    0.1359    3.6950 C.ar      1 RES1    0.0000
     15 H4         3.3493   -0.5977    4.2119 H         1 RES1    0.0000
     16 C6         2.7398    0.5669    2.6819 C.ar      1 RES1    0.0000
     17 H5         1.9292    0.1361    2.5340 H         1 RES1    0.0000
     18 C7         3.1141    1.6423    1.8991 C.ar      1 RES1    0.0000
     19 H6         2.5536    1.9311    1.2161 H         1 RES1    0.0000
     20 C8         6.5783    3.8576    2.8535 C.3       1 RES1    0.0000
     21 H7         7.5407    3.9934    2.7234 H         1 RES1    0.0000
     22 C9         6.0888    4.9166    3.8386 C.ar      1 RES1    0.0000
     23 C10        7.0034    5.5153    4.6975 C.ar      1 RES1    0.0000
     24 H8         7.9017    5.2755    4.6738 H         1 RES1    0.0000
     25 C11        6.5533    6.4717    5.5854 C.ar      1 RES1    0.0000
     26 C12        5.2315    6.8678    5.6607 C.ar      1 RES1    0.0000
     27 H9         4.9609    7.5281    6.2564 H         1 RES1    0.0000
     28 C13        4.3294    6.2516    4.8227 C.ar      1 RES1    0.0000
     29 H10        3.4301    6.4827    4.8632 H         1 RES1    0.0000
     30 C14        4.7516    5.2891    3.9192 C.ar      1 RES1    0.0000
     31 H11        4.1307    4.8859    3.3569 H         1 RES1    0.0000
@<TRIPOS>BOND
     1    1    9 2
     2    2    8 2
     3    3    8 2
     4    4    5 1
     5    6    7 1
     6    8   25 1
     7    9    4 1
     8   10    9 1
     9   11    6 1
    10   12   11 ar
    11   13   12 1
    12   14   12 ar
    13   15   14 1
    14   16   14 ar
    15   17   16 1
    16   18   10 ar
    17   19   18 1
    18   20    4 1
    19   21   20 1
    20   22   20 1
    21   23   22 ar
    22   24   23 1
    23   25   23 ar
    24   26   25 ar
    25   27   26 1
    26   28   26 ar
    27   29   28 1
    28   30   22 ar
    29   31   30 1
    30    6   20 1
    31   10   11 ar
    32   16   18 ar
    33   28   30 ar
@<TRIPOS>SUBSTRUCTURE
     1 RES1 1

@<TRIPOS>CRYSIN
  10.9766    9.8626   11.7636  90.0000 109.6970  90.0000 231 1

