# MOL2 file generated by ConQuest
# Please check atom types

@<TRIPOS>MOLECULE
NIWROB02
    31    33     1
SMALL
NO_CHARGES
****
Generated from CSD

@<TRIPOS>ATOM
      1 O1         4.1369    3.6973    0.1923 O.2       1 RES1    0.0000
      2 C1         4.3171    2.2934    2.1191 C.ar      1 RES1    0.0000
      3 N1         6.3760    2.4949    3.3434 N.pl3     1 RES1    0.0000
      4 H1         7.0300    2.0760    3.7577 H         1 RES1    0.0000
      5 N2         5.9288    3.9695    1.5408 N.am      1 RES1    0.0000
      6 H2         6.3264    4.4618    0.9286 H         1 RES1    0.0000
      7 O2         8.6110    6.5483    6.6189 O.2       1 RES1    0.0000
      8 N3         7.5143    7.0780    6.4863 N.pl3     1 RES1    0.0000
      9 C2         6.9977    5.4999    4.6885 C.ar      1 RES1    0.0000
     10 H3         7.9152    5.2564    4.6631 H         1 RES1    0.0000
     11 C3         3.1057    1.6365    1.8958 C.ar      1 RES1    0.0000
     12 H4         2.5327    1.9344    1.1984 H         1 RES1    0.0000
     13 C4         4.7652    3.3760    1.2182 C.2       1 RES1    0.0000
     14 C5         4.7829    0.7686    3.9436 C.ar      1 RES1    0.0000
     15 H5         5.3465    0.4632    4.6443 H         1 RES1    0.0000
     16 C6         6.0803    4.9016    3.8340 C.ar      1 RES1    0.0000
     17 C7         6.5450    6.4575    5.5768 C.ar      1 RES1    0.0000
     18 C8         3.5821    0.1285    3.6898 C.ar      1 RES1    0.0000
     19 H6         3.3341   -0.6205    4.2187 H         1 RES1    0.0000
     20 C9         5.1663    1.8718    3.1615 C.ar      1 RES1    0.0000
     21 C10        4.7381    5.2719    3.9157 C.ar      1 RES1    0.0000
     22 H7         4.1035    4.8581    3.3431 H         1 RES1    0.0000
     23 C11        6.5733    3.8453    2.8510 C.3       1 RES1    0.0000
     24 H8         7.5554    3.9829    2.7218 H         1 RES1    0.0000
     25 C12        2.7273    0.5591    2.6740 C.ar      1 RES1    0.0000
     26 H9         1.8996    0.1190    2.5206 H         1 RES1    0.0000
     27 C13        5.2197    6.8557    5.6592 C.ar      1 RES1    0.0000
     28 H10        4.9444    7.5291    6.2694 H         1 RES1    0.0000
     29 O3         7.1763    8.1016    7.0649 O.2       1 RES1    0.0000
     30 C14        4.3161    6.2363    4.8205 C.ar      1 RES1    0.0000
     31 H11        3.3972    6.4720    4.8621 H         1 RES1    0.0000
@<TRIPOS>BOND
     1    1   13 2
     2    2   11 ar
     3    3    4 1
     4    5    6 1
     5    7    8 2
     6    8   17 1
     7    9   10 1
     8   11   12 1
     9   13    2 1
    10   14   15 1
    11   16    9 ar
    12   17    9 ar
    13   18   14 ar
    14   19   18 1
    15   20    2 ar
    16   21   16 ar
    17   22   21 1
    18   23    3 1
    19   24   23 1
    20   25   11 ar
    21   26   25 1
    22   27   17 ar
    23   28   27 1
    24   29    8 2
    25   30   21 ar
    26   31   30 1
    27    3   20 1
    28    5   13 1
    29    5   23 1
    30   14   20 ar
    31   16   23 1
    32   18   25 ar
    33   27   30 ar
@<TRIPOS>SUBSTRUCTURE
     1 RES1 1

@<TRIPOS>CRYSIN
  10.9782    9.8343   11.7533  90.0000 109.8460  90.0000 231 1

