# MOL2 file generated by ConQuest
# Please check atom types

@<TRIPOS>MOLECULE
NIXPUF
    19    18     1
SMALL
NO_CHARGES
****
Generated from CSD

@<TRIPOS>ATOM
      1 O1         1.2275    3.2554    5.3933 O.3       1 RES1    0.0000
      2 O2         3.0610    4.2115    6.4886 O.3       1 RES1    0.0000
      3 O3         5.4331    3.6979    6.9642 O.2       1 RES1    0.0000
      4 O4         0.6641    1.5441    3.7332 O.2       1 RES1    0.0000
      5 N1         4.5318    3.0045    7.5024 N.pl3     1 RES1    0.0000
      6 N2         1.2993    2.5637    3.3546 N.pl3     1 RES1    0.0000
      7 N3         3.2837    3.1392    7.3591 N.2       1 RES1    0.0000
      8 N4         1.6616    3.5256    4.1014 N.2       1 RES1    0.0000
      9 C1         1.6688    4.2993    6.2534 C.3       1 RES1    0.0000
     10 C2         4.9276    1.8912    8.3831 C.3       1 RES1    0.0000
     11 C3         1.6882    2.6724    1.9451 C.3       1 RES1    0.0000
     12 H1         4.2250    1.5441    8.7874 H         1 RES1    0.0000
     13 H2         5.6095    2.1329    8.7686 H         1 RES1    0.0000
     14 H3         5.3524    1.3040    7.8054 H         1 RES1    0.0000
     15 H4         1.2013    4.1580    7.0912 H         1 RES1    0.0000
     16 H5         1.5472    5.1617    5.8148 H         1 RES1    0.0000
     17 H6         2.1902    2.0551    1.7726 H         1 RES1    0.0000
     18 H7         2.1123    3.3859    1.7460 H         1 RES1    0.0000
     19 H8         0.9243    2.5336    1.4164 H         1 RES1    0.0000
@<TRIPOS>BOND
     1    1    8 1
     2    2    7 1
     3    3    5 1
     4    4    6 1
     5    5    7 2
     6    6    8 2
     7    9    1 1
     8   10    5 1
     9   11    6 1
    10   12   10 1
    11   13   10 1
    12   14   10 1
    13   15    9 1
    14   16    9 1
    15   17   11 1
    16   18   11 1
    17   19   11 1
    18    2    9 1
@<TRIPOS>SUBSTRUCTURE
     1 RES1 1

@<TRIPOS>CRYSIN
   9.9800    8.3650    8.5840  90.0000  90.0000  90.6500  14 3

