# MOL2 file generated by ConQuest
# Please check atom types

@<TRIPOS>MOLECULE
NIXQAM
    42    44     2
SMALL
NO_CHARGES
****
Generated from CSD

@<TRIPOS>ATOM
      1 O1         8.8204    0.0763    2.2853 O.3       1 RES1    0.0000
      2 O2         8.4371    1.8966    3.8702 O.2       1 RES1    0.0000
      3 O3         9.4278   -2.1702    1.9560 O.3       1 RES1    0.0000
      4 O4         9.4646   -4.4572    2.8478 O.2       1 RES1    0.0000
      5 O5         1.2324    3.2394    2.8675 O.3       2 RES2    0.0000
      6 O6         0.8664    0.9590    3.6841 O.2       2 RES2    0.0000
      7 O7         1.8190    5.4572    3.3634 O.3       2 RES2    0.0000
      8 O8         1.8397    7.2687    4.9907 O.2       2 RES2    0.0000
      9 N1         9.9265    0.4318    3.0400 N.2       1 RES1    0.0000
     10 N2         9.5736    1.4013    3.8281 N.pl3     1 RES1    0.0000
     11 N3         8.1566   -2.7291    2.2074 N.2       1 RES1    0.0000
     12 N4         8.3629   -3.8996    2.6727 N.pl3     1 RES1    0.0000
     13 N5         2.3355    2.6201    3.4581 N.2       2 RES2    0.0000
     14 N6         2.0004    1.4569    3.8356 N.pl3     2 RES2    0.0000
     15 N7         0.7453    6.8135    4.6499 N.pl3     2 RES2    0.0000
     16 N8         0.5472    5.8738    3.8026 N.2       2 RES2    0.0000
     17 C1         9.1912   -0.9007    1.3233 C.3       1 RES1    0.0000
     18 C2        10.6301    1.9020    4.6923 C.ar      1 RES1    0.0000
     19 C3        10.3566    3.0482    5.3966 C.ar      1 RES1    0.0000
     20 C4        11.3362    3.5518    6.2209 C.ar      1 RES1    0.0000
     21 C5        12.5524    2.9047    6.3860 C.ar      1 RES1    0.0000
     22 C6        12.7715    1.7549    5.6634 C.ar      1 RES1    0.0000
     23 C7        11.8311    1.2295    4.8293 C.ar      1 RES1    0.0000
     24 C8         7.1367   -4.6316    2.9999 C.ar      1 RES1    0.0000
     25 C9         7.2789   -5.9682    3.2947 C.ar      1 RES1    0.0000
     26 C10        6.1512   -6.6949    3.6109 C.ar      1 RES1    0.0000
     27 C11        4.9210   -6.0620    3.6414 C.ar      1 RES1    0.0000
     28 C12        4.7875   -4.7212    3.3626 C.ar      1 RES1    0.0000
     29 C13        5.9224   -3.9939    3.0523 C.ar      1 RES1    0.0000
     30 C14        1.5732    4.4877    2.3419 C.3       2 RES2    0.0000
     31 C15        3.0461    0.6763    4.4729 C.ar      2 RES2    0.0000
     32 C16        2.8077   -0.6496    4.7059 C.ar      2 RES2    0.0000
     33 C17        3.7676   -1.4382    5.3293 C.ar      2 RES2    0.0000
     34 C18        4.9827   -0.8645    5.6882 C.ar      2 RES2    0.0000
     35 C19        5.1951    0.4768    5.4563 C.ar      2 RES2    0.0000
     36 C20        4.2463    1.2518    4.8400 C.ar      2 RES2    0.0000
     37 C21       -0.4927    7.3762    5.2441 C.ar      2 RES2    0.0000
     38 C22       -0.3536    8.5145    5.9790 C.ar      2 RES2    0.0000
     39 C23       -1.4988    9.0665    6.5349 C.ar      2 RES2    0.0000
     40 C24       -2.7131    8.4796    6.3466 C.ar      2 RES2    0.0000
     41 C25       -2.8129    7.3339    5.5994 C.ar      2 RES2    0.0000
     42 C26       -1.7089    6.7733    5.0418 C.ar      2 RES2    0.0000
@<TRIPOS>BOND
     1    1    9 1
     2    2   10 1
     3    3   11 1
     4    4   12 1
     5    5   13 1
     6    6   14 1
     7    7   16 1
     8    8   15 1
     9    9   10 2
    10   10   18 1
    11   11   12 2
    12   12   24 1
    13   13   14 2
    14   14   31 1
    15   15   16 2
    16   17    1 1
    17   18   19 ar
    18   19   20 ar
    19   20   21 ar
    20   21   22 ar
    21   22   23 ar
    22   23   18 ar
    23   24   25 ar
    24   25   26 ar
    25   26   27 ar
    26   27   28 ar
    27   28   29 ar
    28   29   24 ar
    29   30    5 1
    30   31   32 ar
    31   32   33 ar
    32   33   34 ar
    33   34   35 ar
    34   35   36 ar
    35   36   31 ar
    36   37   15 1
    37   38   37 ar
    38   39   38 ar
    39   40   39 ar
    40   41   40 ar
    41   42   37 ar
    42    3   17 1
    43    7   30 1
    44   41   42 ar
@<TRIPOS>SUBSTRUCTURE
     1 RES1 1
     2 RES2 5

@<TRIPOS>CRYSIN
  15.1610   11.1540    4.0980 100.4600  97.4600  88.8500   1 1

