# MOL2 file generated by ConQuest
# Please check atom types

@<TRIPOS>MOLECULE
NIXQAM01
    21    22     1
SMALL
NO_CHARGES
****
Generated from CSD

@<TRIPOS>ATOM
      1 O1         7.2158    6.6184    1.0196 O.3       1 RES1    0.0000
      2 O2         7.0114    8.7024    2.2838 O.2       1 RES1    0.0000
      3 N1         8.4155    7.1142    1.5454 N.2       1 RES1    0.0000
      4 N2         8.1389    8.1935    2.1777 N.pl3     1 RES1    0.0000
      5 C1         7.5165    5.4843    0.2209 C.3       1 RES1    0.0000
      6 C2         9.2904    8.8494    2.8002 C.ar      1 RES1    0.0000
      7 C3         9.0920   10.1064    3.3042 C.ar      1 RES1    0.0000
      8 C4        10.1533   10.7579    3.9013 C.ar      1 RES1    0.0000
      9 C5        11.3860   10.1393    3.9919 C.ar      1 RES1    0.0000
     10 C6        11.5514    8.8735    3.4853 C.ar      1 RES1    0.0000
     11 C7        10.5111    8.2154    2.8903 C.ar      1 RES1    0.0000
     12 O1M        7.8172    4.3501    1.0196 O.3       1 RES1    0.0000
     13 N1M        6.6175    3.8543    1.5454 N.2       1 RES1    0.0000
     14 N2M        6.8941    2.7750    2.1777 N.pl3     1 RES1    0.0000
     15 O2M        8.0216    2.2661    2.2838 O.2       1 RES1    0.0000
     16 C2M        5.7426    2.1191    2.8002 C.ar      1 RES1    0.0000
     17 C3M        5.9410    0.8621    3.3042 C.ar      1 RES1    0.0000
     18 C4M        4.8797    0.2106    3.9013 C.ar      1 RES1    0.0000
     19 C5M        3.6470    0.8292    3.9919 C.ar      1 RES1    0.0000
     20 C6M        3.4816    2.0950    3.4853 C.ar      1 RES1    0.0000
     21 C7M        4.5219    2.7531    2.8903 C.ar      1 RES1    0.0000
@<TRIPOS>BOND
     1    1    3 1
     2    2    4 1
     3    3    4 2
     4    4    6 1
     5    5    1 1
     6    6    7 ar
     7    7    8 ar
     8    8    9 ar
     9    9   10 ar
    10   10   11 ar
    11   11    6 ar
    12   12    5 1
    13   13   12 1
    14   14   13 2
    15   15   14 1
    16   16   14 1
    17   17   16 ar
    18   18   17 ar
    19   19   18 ar
    20   20   19 ar
    21   21   16 ar
    22   20   21 ar
@<TRIPOS>SUBSTRUCTURE
     1 RES1 1

@<TRIPOS>CRYSIN
  30.0660   21.9370    4.0980  90.0000  90.0000  90.0000  43 1

