# MOL2 file generated by ConQuest
# Please check atom types

@<TRIPOS>MOLECULE
NIXWUO
    24    26     1
SMALL
NO_CHARGES
****
Generated from CSD

@<TRIPOS>ATOM
      1 C1         2.6434    7.1343    6.4775 C.2       1 RES1    0.0000
      2 C2         3.9353    5.4288    2.8279 C.ar      1 RES1    0.0000
      3 C3         4.5815    6.5989    3.2133 C.ar      1 RES1    0.0000
      4 C4         4.2392    7.2537    4.3997 C.ar      1 RES1    0.0000
      5 C5         3.2363    6.7029    5.1867 C.ar      1 RES1    0.0000
      6 C6         1.6165    6.1309    6.8392 C.ar      1 RES1    0.0000
      7 C7         0.7744    6.0410    7.9327 C.ar      1 RES1    0.0000
      8 C8        -0.0855    4.9429    8.0204 C.ar      1 RES1    0.0000
      9 C9        -0.0850    3.9612    7.0334 C.ar      1 RES1    0.0000
     10 C10        0.7633    4.0525    5.9319 C.ar      1 RES1    0.0000
     11 C11        1.6097    5.1415    5.8352 C.ar      1 RES1    0.0000
     12 C12        2.5939    5.5084    4.8076 C.ar      1 RES1    0.0000
     13 C13        2.9343    4.8675    3.6227 C.ar      1 RES1    0.0000
     14 H1         4.3112    9.4545    7.4803 H         1 RES1    0.0000
     15 H2         4.1782    5.0061    2.0127 H         1 RES1    0.0000
     16 H3         5.2661    6.9582    2.6617 H         1 RES1    0.0000
     17 H4         4.6809    8.0528    4.6600 H         1 RES1    0.0000
     18 H5         0.7806    6.7086    8.6085 H         1 RES1    0.0000
     19 H6        -0.6760    4.8655    8.7607 H         1 RES1    0.0000
     20 H7        -0.6716    3.2179    7.1118 H         1 RES1    0.0000
     21 H8         0.7600    3.3806    5.2609 H         1 RES1    0.0000
     22 H9         2.4965    4.0668    3.3604 H         1 RES1    0.0000
     23 N1         2.9089    8.1321    7.2480 N.2       1 RES1    0.0000
     24 O1         3.9262    8.9441    6.7326 O.3       1 RES1    0.0000
@<TRIPOS>BOND
     1    1    5 1
     2    2    3 ar
     3    3    4 ar
     4    4    5 ar
     5    5   12 ar
     6    6    1 1
     7    7    6 ar
     8    8    7 ar
     9    9    8 ar
    10   10    9 ar
    11   11    6 ar
    12   12   11 1
    13   13    2 ar
    14   14   24 1
    15   15    2 1
    16   16    3 1
    17   17    4 1
    18   18    7 1
    19   19    8 1
    20   20    9 1
    21   21   10 1
    22   22   13 1
    23   23    1 2
    24   24   23 1
    25   10   11 ar
    26   12   13 ar
@<TRIPOS>SUBSTRUCTURE
     1 RES1 1

@<TRIPOS>CRYSIN
   4.8009   12.2309   16.0247  90.0000  90.0000  90.0000  19 1

