# MOL2 file generated by ConQuest
# Please check atom types

@<TRIPOS>MOLECULE
NIXXEZ
    29    30     1
SMALL
NO_CHARGES
****
Generated from CSD

@<TRIPOS>ATOM
      1 O1         9.1369    1.2228   11.8900 O.2       1 RES1    0.0000
      2 O2         7.3412    0.0557   11.1440 O.3       1 RES1    0.0000
      3 O3         9.5586   -0.2167    5.1539 O.2       1 RES1    0.0000
      4 O4         5.3184    1.6992   10.3588 O.2       1 RES1    0.0000
      5 O5         4.4704    0.6879    8.6418 O.2       1 RES1    0.0000
      6 N1         5.4239    1.0244    9.3433 N.pl3     1 RES1    0.0000
      7 C1         8.1615    0.5691   12.1375 C.2       1 RES1    0.0000
      8 C2         7.6357    0.2230   13.4709 C.ar      1 RES1    0.0000
      9 C3         6.3912   -0.4003   13.6236 C.ar      1 RES1    0.0000
     10 H1         5.8743   -0.6333   12.8619 H         1 RES1    0.0000
     11 C4         5.9188   -0.6752   14.9040 C.ar      1 RES1    0.0000
     12 H2         5.0756   -1.0967   15.0216 H         1 RES1    0.0000
     13 C5         6.6829   -0.3321   16.0060 C.ar      1 RES1    0.0000
     14 H3         6.3560   -0.5127   16.8804 H         1 RES1    0.0000
     15 C6         7.9130    0.2679   15.8502 C.ar      1 RES1    0.0000
     16 H4         8.4342    0.4845   16.6152 H         1 RES1    0.0000
     17 C7         8.3909    0.5554   14.5850 C.ar      1 RES1    0.0000
     18 H5         9.2341    0.9798   14.4803 H         1 RES1    0.0000
     19 C8         7.7129    0.1729    9.8230 C.ar      1 RES1    0.0000
     20 C9         6.7525    0.5988    8.9158 C.ar      1 RES1    0.0000
     21 C10        7.0241    0.6181    7.5442 C.ar      1 RES1    0.0000
     22 H6         6.3618    0.9079    6.9267 H         1 RES1    0.0000
     23 C11        8.2567    0.2141    7.0990 C.ar      1 RES1    0.0000
     24 C12        9.2211   -0.2215    8.0124 C.ar      1 RES1    0.0000
     25 H7        10.0744   -0.4979    7.7000 H         1 RES1    0.0000
     26 C13        8.9440   -0.2538    9.3690 C.ar      1 RES1    0.0000
     27 H8         9.5974   -0.5676    9.9840 H         1 RES1    0.0000
     28 C14        8.5479    0.2285    5.6449 C.2       1 RES1    0.0000
     29 H9         7.8508    0.6678    5.1011 H         1 RES1    0.0000
@<TRIPOS>BOND
     1    1    7 2
     2    2    7 1
     3    3   28 2
     4    4    6 2
     5    5    6 2
     6    6   20 1
     7    7    8 1
     8    8    9 ar
     9    9   10 1
    10   11    9 ar
    11   12   11 1
    12   13   11 ar
    13   14   13 1
    14   15   13 ar
    15   16   15 1
    16   17    8 ar
    17   18   17 1
    18   19    2 1
    19   20   19 ar
    20   21   20 ar
    21   22   21 1
    22   23   21 ar
    23   24   23 ar
    24   25   24 1
    25   26   19 ar
    26   27   26 1
    27   28   23 1
    28   29   28 1
    29   15   17 ar
    30   24   26 ar
@<TRIPOS>SUBSTRUCTURE
     1 RES1 1

@<TRIPOS>CRYSIN
  11.3478    3.7101   27.7230  90.0000  94.9790  90.0000  14 1

