# MOL2 file generated by ConQuest
# Please check atom types

@<TRIPOS>MOLECULE
NIZWUQ01
    43    46     1
SMALL
NO_CHARGES
****
Generated from CSD

@<TRIPOS>ATOM
      1 C1         5.9291    0.7950    2.2681 C.3       1 RES1    0.0000
      2 H1         6.7452    1.2232    1.9672 H         1 RES1    0.0000
      3 H2         5.9363   -0.1319    1.9811 H         1 RES1    0.0000
      4 C2         5.7859    0.8955    3.7728 C.3       1 RES1    0.0000
      5 H3         6.3059    0.2060    4.2158 H         1 RES1    0.0000
      6 H4         6.0783    1.7637    4.0904 H         1 RES1    0.0000
      7 C3         4.3069    0.7014    4.0166 C.3       1 RES1    0.0000
      8 H5         4.0939   -0.2383    4.1238 H         1 RES1    0.0000
      9 H6         4.0173    1.1849    4.8065 H         1 RES1    0.0000
     10 C4         3.6707    1.2589    2.7836 C.3       1 RES1    0.0000
     11 H7         3.2271    2.1084    2.9870 H         1 RES1    0.0000
     12 C5         2.7907    0.7865    0.7635 C.3       1 RES1    0.0000
     13 H8         2.3262    1.6445    0.6701 H         1 RES1    0.0000
     14 C6         4.2803    0.9831    0.4681 C.3       1 RES1    0.0000
     15 H9         4.6866    0.1124    0.2800 H         1 RES1    0.0000
     16 C7         4.5464    1.9220   -0.6980 C.ar      1 RES1    0.0000
     17 C8         4.7082    3.2822   -0.5029 C.ar      1 RES1    0.0000
     18 H10        4.7519    3.6337    0.3567 H         1 RES1    0.0000
     19 C9         4.8018    4.1104   -1.6063 C.ar      1 RES1    0.0000
     20 C10        4.7558    3.6516   -2.8964 C.ar      1 RES1    0.0000
     21 H11        4.7958    4.2364   -3.6181 H         1 RES1    0.0000
     22 C11        4.6501    2.2923   -3.0845 C.ar      1 RES1    0.0000
     23 H12        4.6428    1.9441   -3.9469 H         1 RES1    0.0000
     24 C12        4.5539    1.4453   -2.0062 C.ar      1 RES1    0.0000
     25 H13        4.4924    0.5294   -2.1553 H         1 RES1    0.0000
     26 C13        2.1102   -0.2307   -0.0808 C.ar      1 RES1    0.0000
     27 C14        2.1826   -1.5798    0.2271 C.ar      1 RES1    0.0000
     28 H14        2.6542   -1.8726    0.9738 H         1 RES1    0.0000
     29 C15        1.5439   -2.4727   -0.5893 C.ar      1 RES1    0.0000
     30 C16        0.8525   -2.0871   -1.7108 C.ar      1 RES1    0.0000
     31 H15        0.4387   -2.7153   -2.2584 H         1 RES1    0.0000
     32 C17        0.7889   -0.7542   -2.0006 C.ar      1 RES1    0.0000
     33 H16        0.3186   -0.4665   -2.7488 H         1 RES1    0.0000
     34 C18        1.4133    0.1660   -1.1912 C.ar      1 RES1    0.0000
     35 H17        1.3637    1.0699   -1.4029 H         1 RES1    0.0000
     36 N1         4.7782    1.4785    1.7638 N.3       1 RES1    0.0000
     37 N2         4.9527    5.5566   -1.3681 N.pl3     1 RES1    0.0000
     38 N3         1.5787   -3.9053   -0.2354 N.pl3     1 RES1    0.0000
     39 O1         2.7676    0.3822    2.1470 O.3       1 RES1    0.0000
     40 O2         5.2868    5.9371   -0.2689 O.2       1 RES1    0.0000
     41 O3         4.7189    6.3150   -2.2960 O.2       1 RES1    0.0000
     42 O4         2.0140   -4.2176    0.8610 O.2       1 RES1    0.0000
     43 O5         1.1791   -4.7096   -1.0546 O.2       1 RES1    0.0000
@<TRIPOS>BOND
     1    1    2 1
     2    3    1 1
     3    4    1 1
     4    5    4 1
     5    6    4 1
     6    7    4 1
     7    8    7 1
     8    9    7 1
     9   10    7 1
    10   11   10 1
    11   12   13 1
    12   14   12 1
    13   15   14 1
    14   16   14 1
    15   17   16 ar
    16   18   17 1
    17   19   17 ar
    18   20   19 ar
    19   21   20 1
    20   22   20 ar
    21   23   22 1
    22   24   16 ar
    23   25   24 1
    24   26   12 1
    25   27   26 ar
    26   28   27 1
    27   29   27 ar
    28   30   29 ar
    29   31   30 1
    30   32   30 ar
    31   33   32 1
    32   34   26 ar
    33   35   34 1
    34   36    1 1
    35   37   19 1
    36   38   29 1
    37   39   10 1
    38   40   37 2
    39   41   37 2
    40   42   38 2
    41   43   38 2
    42   10   36 1
    43   12   39 1
    44   14   36 1
    45   22   24 ar
    46   32   34 ar
@<TRIPOS>SUBSTRUCTURE
     1 RES1 1

@<TRIPOS>CRYSIN
  28.4250    8.5119   15.7044  90.0000 117.4850  90.0000  15 1

