# MOL2 file generated by ConQuest
# Please check atom types

@<TRIPOS>MOLECULE
NIZWUQ
    43    46     1
SMALL
NO_CHARGES
****
Generated from CSD

@<TRIPOS>ATOM
      1 C1        19.5900   -2.4847   14.5371 C.ar      1 RES1    0.0000
      2 C2        18.9518   -1.5866   13.7141 C.ar      1 RES1    0.0000
      3 H1        18.4779   -1.8760   12.9678 H         1 RES1    0.0000
      4 C3        19.0298   -0.2383   14.0279 C.ar      1 RES1    0.0000
      5 C4        19.7279    0.1592   15.1467 C.ar      1 RES1    0.0000
      6 H2        19.7835    1.0640   15.3560 H         1 RES1    0.0000
      7 C5        20.2876   -2.0871   15.6601 C.ar      1 RES1    0.0000
      8 H3        20.7072   -2.7145   16.2055 H         1 RES1    0.0000
      9 C6        20.3494   -0.7618   15.9544 C.ar      1 RES1    0.0000
     10 H4        20.8110   -0.4767   16.7091 H         1 RES1    0.0000
     11 C7        16.8636    0.9806   13.4769 C.3       1 RES1    0.0000
     12 H5        16.4555    0.1081   13.6611 H         1 RES1    0.0000
     13 C8        18.3618    0.7840   13.1742 C.3       1 RES1    0.0000
     14 H6        18.8266    1.6403   13.2691 H         1 RES1    0.0000
     15 C9        16.3368    4.1045   15.5568 C.ar      1 RES1    0.0000
     16 C10       16.4326    3.2737   14.4534 C.ar      1 RES1    0.0000
     17 H7        16.3910    3.6236   13.5941 H         1 RES1    0.0000
     18 C11       16.5905    1.9143   14.6529 C.ar      1 RES1    0.0000
     19 C12       16.5884    1.4453   15.9684 C.ar      1 RES1    0.0000
     20 H8        16.6572    0.5303   16.1218 H         1 RES1    0.0000
     21 C13       16.3807    3.6389   16.8472 C.ar      1 RES1    0.0000
     22 H9        16.3387    4.2237   17.5698 H         1 RES1    0.0000
     23 C14       16.4855    2.2880   17.0383 C.ar      1 RES1    0.0000
     24 H10       16.4894    1.9416   17.9018 H         1 RES1    0.0000
     25 N1        19.5614   -3.9053   14.1814 N.pl3     1 RES1    0.0000
     26 N2        16.1847    5.5439   15.3211 N.pl3     1 RES1    0.0000
     27 O1        19.1262   -4.2228   13.0835 O.2       1 RES1    0.0000
     28 O2        19.9624   -4.7088   14.9933 O.2       1 RES1    0.0000
     29 O3        15.8487    5.9201   14.2204 O.2       1 RES1    0.0000
     30 O4        16.4184    6.3065   16.2404 O.2       1 RES1    0.0000
     31 O5        18.3905    0.3805   11.8113 O.3       1 RES1    0.0000
     32 N3        16.3771    1.4734   12.1810 N.3       1 RES1    0.0000
     33 C15       16.8395    0.6920    9.9267 C.3       1 RES1    0.0000
     34 H11       17.1246    1.1755    9.1357 H         1 RES1    0.0000
     35 H12       17.0540   -0.2477    9.8207 H         1 RES1    0.0000
     36 C16       15.3636    0.8887   10.1834 C.3       1 RES1    0.0000
     37 H13       15.0734    1.7586    9.8681 H         1 RES1    0.0000
     38 H14       14.8441    0.2034    9.7356 H         1 RES1    0.0000
     39 C17       15.2124    0.7857   11.6704 C.3       1 RES1    0.0000
     40 H15       14.3976    1.2155   11.9676 H         1 RES1    0.0000
     41 H16       15.2030   -0.1422   11.9550 H         1 RES1    0.0000
     42 C18       17.4751    1.2606   11.1738 C.3       1 RES1    0.0000
     43 H17       17.9157    2.1127   10.9687 H         1 RES1    0.0000
@<TRIPOS>BOND
     1    1    2 ar
     2    2    3 1
     3    4    2 ar
     4    5    4 ar
     5    6    5 1
     6    7    1 ar
     7    8    7 1
     8    9    5 ar
     9   10    9 1
    10   11   12 1
    11   13    4 1
    12   14   13 1
    13   15   16 ar
    14   16   17 1
    15   18   11 1
    16   19   18 ar
    17   20   19 1
    18   21   15 ar
    19   22   21 1
    20   23   19 ar
    21   24   23 1
    22   25    1 1
    23   26   15 1
    24   27   25 2
    25   28   25 2
    26   29   26 2
    27   30   26 2
    28   31   13 1
    29   32   11 1
    30   33   34 1
    31   35   33 1
    32   36   33 1
    33   37   36 1
    34   38   36 1
    35   39   32 1
    36   40   39 1
    37   41   39 1
    38   42   31 1
    39   43   42 1
    40    7    9 ar
    41   11   13 1
    42   16   18 ar
    43   21   23 ar
    44   32   42 1
    45   33   42 1
    46   36   39 1
@<TRIPOS>SUBSTRUCTURE
     1 RES1 1

@<TRIPOS>CRYSIN
  28.4290    8.5120   15.7378  90.0000 117.5770  90.0000  15 1

