# MOL2 file generated by ConQuest
# Please check atom types

@<TRIPOS>MOLECULE
NIZWEZ
   150   158     2
SMALL
NO_CHARGES
****
Generated from CSD

@<TRIPOS>ATOM
      1 O1         0.1703    0.4194    8.8559 O.2       1 RES1    0.0000
      2 O2         1.4182    3.8702    6.0487 O.2       1 RES1    0.0000
      3 O3         8.0722   -0.6339   -3.9720 O.2       1 RES1    0.0000
      4 O4         6.7292    3.3336   -1.9996 O.2       1 RES1    0.0000
      5 O5         2.7937    6.7251   -0.7098 O.2       2 RES2    0.0000
      6 O6         1.4993    3.1882    1.9536 O.2       2 RES2    0.0000
      7 N1         3.7818   -0.1552    2.3133 N.ar      1 RES1    0.0000
      8 N2         1.0718    0.1473    4.0597 N.pl3     1 RES1    0.0000
      9 N3         0.7487   -0.9078    4.8563 N.2       1 RES1    0.0000
     10 N4         0.5213    1.5853    8.4485 N.pl3     1 RES1    0.0000
     11 N5         1.1107    3.2119    7.1141 N.pl3     1 RES1    0.0000
     12 N6         6.6840    0.0100    0.6508 N.pl3     1 RES1    0.0000
     13 N7         7.1081   -1.1703    0.1218 N.2       1 RES1    0.0000
     14 N8         7.7617    0.6003   -3.8143 N.pl3     1 RES1    0.0000
     15 N9         7.0931    2.4793   -2.8852 N.pl3     1 RES1    0.0000
     16 N10       -1.0294    7.2898    5.8006 N.ar      2 RES2    0.0000
     17 N11        1.6602    6.9533    4.0013 N.pl3     2 RES2    0.0000
     18 N12        2.0232    7.9970    3.2265 N.2       2 RES2    0.0000
     19 N13        2.5196    5.5383   -0.3330 N.pl3     2 RES2    0.0000
     20 N14        1.8775    3.8622    0.9207 N.pl3     2 RES2    0.0000
     21 C1         2.6645   -0.8755    2.5124 C.ar      1 RES1    0.0000
     22 C2         2.6826   -2.2559    2.6571 C.ar      1 RES1    0.0000
     23 C3         3.8867   -2.9292    2.5801 C.ar      1 RES1    0.0000
     24 C4         5.0483   -2.1956    2.3277 C.ar      1 RES1    0.0000
     25 C5         4.9434   -0.8079    2.2279 C.ar      1 RES1    0.0000
     26 C6         1.3818   -0.0950    2.6653 C.3       1 RES1    0.0000
     27 C7         1.1372    1.3172    4.7254 C.2       1 RES1    0.0000
     28 C8         0.8339    1.0243    6.0647 C.2       1 RES1    0.0000
     29 C9         0.5995   -0.3866    6.0630 C.2       1 RES1    0.0000
     30 C10        0.7981    1.9181    7.1626 C.2       1 RES1    0.0000
     31 C11        0.8822    2.6804    9.3991 C.3       1 RES1    0.0000
     32 C12        2.2624    2.3210    9.9365 C.3       1 RES1    0.0000
     33 C13       -0.1365    2.7442   10.5284 C.3       1 RES1    0.0000
     34 C14        0.8841    3.9079    8.4313 C.3       1 RES1    0.0000
     35 C15        1.9818    4.9200    8.6731 C.3       1 RES1    0.0000
     36 C16       -0.4837    4.5972    8.3443 C.3       1 RES1    0.0000
     37 C17        6.1856    0.0312    2.0270 C.3       1 RES1    0.0000
     38 C18        7.4353   -0.8600   -1.1337 C.2       1 RES1    0.0000
     39 C19        7.2178    0.5016   -1.4063 C.2       1 RES1    0.0000
     40 C20        6.7369    1.0204   -0.2179 C.2       1 RES1    0.0000
     41 C21        7.3725    1.1734   -2.6583 C.2       1 RES1    0.0000
     42 C22        7.5007    1.5003   -4.9918 C.3       1 RES1    0.0000
     43 C23        6.1711    1.0418   -5.5760 C.3       1 RES1    0.0000
     44 C24        8.6246    1.3416   -6.0090 C.3       1 RES1    0.0000
     45 C25        7.4361    2.9029   -4.2918 C.3       1 RES1    0.0000
     46 C26        6.3817    3.8389   -4.8205 C.3       1 RES1    0.0000
     47 C27        8.7942    3.6056   -4.2054 C.3       1 RES1    0.0000
     48 C28        0.1092    7.9599    5.6201 C.ar      2 RES2    0.0000
     49 C29        0.1489    9.3585    5.6092 C.ar      2 RES2    0.0000
     50 C30       -1.0294   10.0571    5.8006 C.ar      2 RES2    0.0000
     51 C31        1.3551    7.1474    5.4222 C.3       2 RES2    0.0000
     52 C32        1.6445    5.7871    3.3398 C.2       2 RES2    0.0000
     53 C33        2.0124    6.0850    2.0258 C.2       2 RES2    0.0000
     54 C34        2.2414    7.4702    2.0284 C.2       2 RES2    0.0000
     55 C35        2.1233    5.1873    0.9177 C.2       2 RES2    0.0000
     56 C36        2.3161    4.4330   -1.3130 C.3       2 RES2    0.0000
     57 C37        0.9827    4.7071   -2.0019 C.3       2 RES2    0.0000
     58 C38        3.4342    4.4249   -2.3453 C.3       2 RES2    0.0000
     59 C39        2.2947    3.2095   -0.3571 C.3       2 RES2    0.0000
     60 C40        3.6694    2.5991   -0.0981 C.3       2 RES2    0.0000
     61 C41        1.2940    2.1107   -0.7409 C.3       2 RES2    0.0000
     62 H1         1.8708   -2.7279    2.8029 H         1 RES1    0.0000
     63 H2         3.9208   -3.8715    2.6938 H         1 RES1    0.0000
     64 H3         5.8879   -2.6303    2.2344 H         1 RES1    0.0000
     65 H4         1.4735    0.7379    2.2182 H         1 RES1    0.0000
     66 H5         0.6729   -0.5901    2.2715 H         1 RES1    0.0000
     67 H6         1.3488    2.1677    4.3621 H         1 RES1    0.0000
     68 H7         0.3719   -0.8912    6.8355 H         1 RES1    0.0000
     69 H8         2.5459    2.9924   10.5455 H         1 RES1    0.0000
     70 H9         2.2130    1.4854   10.3854 H         1 RES1    0.0000
     71 H10        2.8839    2.2599    9.2207 H         1 RES1    0.0000
     72 H11        0.0993    3.4469   11.1209 H         1 RES1    0.0000
     73 H12       -0.1377    1.9194   11.0003 H         1 RES1    0.0000
     74 H13       -1.0038    2.9070   10.1743 H         1 RES1    0.0000
     75 H14        1.8394    5.3582    9.5037 H         1 RES1    0.0000
     76 H15        2.8165    4.4670    8.6940 H         1 RES1    0.0000
     77 H16        1.9846    5.5617    7.9724 H         1 RES1    0.0000
     78 H17       -0.6634    5.0448    9.1627 H         1 RES1    0.0000
     79 H18       -0.4765    5.2266    7.6336 H         1 RES1    0.0000
     80 H19       -1.1573    3.9461    8.1858 H         1 RES1    0.0000
     81 H20        6.8668   -0.2944    2.6033 H         1 RES1    0.0000
     82 H21        5.9818    0.9306    2.2553 H         1 RES1    0.0000
     83 H22        7.7740   -1.4827   -1.7657 H         1 RES1    0.0000
     84 H23        6.4887    1.9222   -0.0510 H         1 RES1    0.0000
     85 H24        5.9516    1.5790   -6.3273 H         1 RES1    0.0000
     86 H25        6.2430    0.1343   -5.8447 H         1 RES1    0.0000
     87 H26        5.4907    1.1245   -4.9189 H         1 RES1    0.0000
     88 H27        8.4611    1.9100   -6.7519 H         1 RES1    0.0000
     89 H28        9.4527    1.5749   -5.6080 H         1 RES1    0.0000
     90 H29        8.6581    0.4381   -6.3018 H         1 RES1    0.0000
     91 H30        6.6034    4.1034   -5.7055 H         1 RES1    0.0000
     92 H31        6.3292    4.6067   -4.2646 H         1 RES1    0.0000
     93 H32        5.5428    3.3940   -4.8261 H         1 RES1    0.0000
     94 H33        9.0592    3.8945   -5.0697 H         1 RES1    0.0000
     95 H34        9.4429    3.0033   -3.8586 H         1 RES1    0.0000
     96 H35        8.7217    4.3571   -3.6289 H         1 RES1    0.0000
     97 H36        0.9697    9.8170    5.4735 H         2 RES2    0.0000
     98 H37       -1.0294   11.0066    5.8006 H         2 RES2    0.0000
     99 H38        2.0847    7.5991    5.8331 H         2 RES2    0.0000
    100 H39        1.2385    6.2982    5.8308 H         2 RES2    0.0000
    101 H40        1.4257    4.9322    3.6915 H         2 RES2    0.0000
    102 H41        2.5201    7.9681    1.2692 H         2 RES2    0.0000
    103 H42        0.8110    4.0234   -2.6381 H         2 RES2    0.0000
    104 H43        1.0164    5.5481   -2.4432 H         2 RES2    0.0000
    105 H44        0.2875    4.7179   -1.3527 H         2 RES2    0.0000
    106 H45        3.2865    3.7168   -2.9606 H         2 RES2    0.0000
    107 H46        3.4448    5.2524   -2.8121 H         2 RES2    0.0000
    108 H47        4.2683    4.2974   -1.9096 H         2 RES2    0.0000
    109 H48        3.9711    2.1704   -0.8887 H         2 RES2    0.0000
    110 H49        4.2855    3.2787    0.1485 H         2 RES2    0.0000
    111 H50        3.6035    1.9615    0.6033 H         2 RES2    0.0000
    112 H51        1.5681    1.7038   -1.5546 H         2 RES2    0.0000
    113 H52        0.4337    2.4973   -0.8539 H         2 RES2    0.0000
    114 H53        1.2599    1.4555   -0.0557 H         2 RES2    0.0000
    115 O5B       -4.8525    6.7251   12.3110 O.2       2 RES2    0.0000
    116 O6B       -3.5581    3.1882    9.6476 O.2       2 RES2    0.0000
    117 N11B      -3.7190    6.9533    7.6000 N.pl3     2 RES2    0.0000
    118 N12B      -4.0820    7.9970    8.3747 N.2       2 RES2    0.0000
    119 N13B      -4.5784    5.5383   11.9342 N.pl3     2 RES2    0.0000
    120 N14B      -3.9363    3.8622   10.6806 N.pl3     2 RES2    0.0000
    121 C28B      -2.1680    7.9599    5.9811 C.ar      2 RES2    0.0000
    122 C29B      -2.2076    9.3585    5.9920 C.ar      2 RES2    0.0000
    123 C31B      -3.4138    7.1474    6.1791 C.3       2 RES2    0.0000
    124 C32B      -3.7032    5.7871    8.2615 C.2       2 RES2    0.0000
    125 C33B      -4.0712    6.0850    9.5754 C.2       2 RES2    0.0000
    126 C34B      -4.3001    7.4702    9.5729 C.2       2 RES2    0.0000
    127 C35B      -4.1821    5.1873   10.6836 C.2       2 RES2    0.0000
    128 C36B      -4.3749    4.4330   12.9143 C.3       2 RES2    0.0000
    129 C37B      -3.0414    4.7071   13.6032 C.3       2 RES2    0.0000
    130 C38B      -5.4930    4.4249   13.9465 C.3       2 RES2    0.0000
    131 C39B      -4.3535    3.2095   11.9583 C.3       2 RES2    0.0000
    132 C40B      -5.7282    2.5991   11.6994 C.3       2 RES2    0.0000
    133 C41B      -3.3527    2.1107   12.3421 C.3       2 RES2    0.0000
    134 H36B      -3.0284    9.8170    6.1278 H         2 RES2    0.0000
    135 H38B      -4.1434    7.5991    5.7681 H         2 RES2    0.0000
    136 H39B      -3.2973    6.2982    5.7705 H         2 RES2    0.0000
    137 H40B      -3.4844    4.9322    7.9097 H         2 RES2    0.0000
    138 H41B      -4.5789    7.9681   10.3321 H         2 RES2    0.0000
    139 H42B      -2.8698    4.0234   14.2394 H         2 RES2    0.0000
    140 H43B      -3.0752    5.5481   14.0445 H         2 RES2    0.0000
    141 H44B      -2.3463    4.7179   12.9539 H         2 RES2    0.0000
    142 H45B      -5.3453    3.7168   14.5619 H         2 RES2    0.0000
    143 H46B      -5.5036    5.2524   14.4134 H         2 RES2    0.0000
    144 H47B      -6.3271    4.2974   13.5108 H         2 RES2    0.0000
    145 H48B      -6.0299    2.1704   12.4899 H         2 RES2    0.0000
    146 H49B      -6.3442    3.2787   11.4527 H         2 RES2    0.0000
    147 H50B      -5.6623    1.9615   10.9980 H         2 RES2    0.0000
    148 H51B      -3.6269    1.7038   13.1558 H         2 RES2    0.0000
    149 H52B      -2.4925    2.4973   12.4551 H         2 RES2    0.0000
    150 H53B      -3.3187    1.4555   11.6569 H         2 RES2    0.0000
@<TRIPOS>BOND
     1    1   10 1
     2    2   11 2
     3    3   14 1
     4    4   15 2
     5    5   19 1
     6    6   20 2
     7    7   21 ar
     8    8    9 1
     9    9   29 2
    10   10   30 2
    11   11   30 1
    12   12   13 1
    13   13   38 2
    14   14   41 2
    15   15   41 1
    16   16   48 ar
    17   17   18 1
    18   18   54 2
    19   19   55 2
    20   20   55 1
    21   21   22 ar
    22   22   23 ar
    23   23   24 ar
    24   24   25 ar
    25   25    7 ar
    26   26    8 1
    27   27    8 1
    28   28   27 2
    29   29   28 1
    30   30   28 1
    31   31   10 1
    32   32   31 1
    33   33   31 1
    34   34   11 1
    35   35   34 1
    36   36   34 1
    37   37   12 1
    38   38   39 1
    39   39   40 2
    40   40   12 1
    41   41   39 1
    42   42   14 1
    43   43   42 1
    44   44   42 1
    45   45   15 1
    46   46   45 1
    47   47   45 1
    48   48   49 ar
    49   49   50 ar
    50   50   98 1
    51   51   17 1
    52   52   17 1
    53   53   52 2
    54   54   53 1
    55   55   53 1
    56   56   19 1
    57   57   56 1
    58   58   56 1
    59   59   20 1
    60   60   59 1
    61   61   59 1
    62   62   22 1
    63   63   23 1
    64   64   24 1
    65   65   26 1
    66   66   26 1
    67   67   27 1
    68   68   29 1
    69   69   32 1
    70   70   32 1
    71   71   32 1
    72   72   33 1
    73   73   33 1
    74   74   33 1
    75   75   35 1
    76   76   35 1
    77   77   35 1
    78   78   36 1
    79   79   36 1
    80   80   36 1
    81   81   37 1
    82   82   37 1
    83   83   38 1
    84   84   40 1
    85   85   43 1
    86   86   43 1
    87   87   43 1
    88   88   44 1
    89   89   44 1
    90   90   44 1
    91   91   46 1
    92   92   46 1
    93   93   46 1
    94   94   47 1
    95   95   47 1
    96   96   47 1
    97   97   49 1
    98   99   51 1
    99  100   51 1
   100  101   52 1
   101  102   54 1
   102  103   57 1
   103  104   57 1
   104  105   57 1
   105  106   58 1
   106  107   58 1
   107  108   58 1
   108  109   60 1
   109  110   60 1
   110  111   60 1
   111  112   61 1
   112  113   61 1
   113  114   61 1
   114  115  119 1
   115  116  120 2
   116  117  118 1
   117  118  126 2
   118  119  127 2
   119  120  127 1
   120  121   16 ar
   121  122   50 ar
   122  123  117 1
   123  124  117 1
   124  125  124 2
   125  126  125 1
   126  127  125 1
   127  128  119 1
   128  129  128 1
   129  130  128 1
   130  131  120 1
   131  132  131 1
   132  133  131 1
   133  134  122 1
   134  135  123 1
   135  136  123 1
   136  137  124 1
   137  138  126 1
   138  139  129 1
   139  140  129 1
   140  141  129 1
   141  142  130 1
   142  143  130 1
   143  144  130 1
   144  145  132 1
   145  146  132 1
   146  147  132 1
   147  148  133 1
   148  149  133 1
   149  150  133 1
   150   21   26 1
   151   25   37 1
   152   31   34 1
   153   42   45 1
   154   48   51 1
   155   56   59 1
   156  121  122 ar
   157  121  123 1
   158  128  131 1
@<TRIPOS>SUBSTRUCTURE
     1 RES1 1
     2 RES2 5

@<TRIPOS>CRYSIN
  26.3720   13.5650   23.5650  90.0000 100.0630  90.0000  15 1

