# MOL2 file generated by ConQuest
# Please check atom types

@<TRIPOS>MOLECULE
NMALAM01
    15    14     1
SMALL
NO_CHARGES
****
Generated from CSD

@<TRIPOS>ATOM
      1 C1         3.2079    3.0774    2.5013 C.2       1 RES1    0.0000
      2 C2         2.1701    2.1027    2.7318 C.2       1 RES1    0.0000
      3 C3         1.3692    2.2073    3.9403 C.2       1 RES1    0.0000
      4 N1         3.9822    3.1037    1.4487 N.3       1 RES1    0.0000
      5 H1         4.5785    3.7284    1.3901 H         1 RES1    0.0000
      6 H2         3.8838    2.5385    0.8420 H         1 RES1    0.0000
      7 N2         1.9376    1.1002    1.8063 N.pl3     1 RES1    0.0000
      8 N3         0.4038    1.3689    4.2379 N.am      1 RES1    0.0000
      9 H3         0.2026    0.7536    3.7099 H         1 RES1    0.0000
     10 H4         0.0000    1.4874    4.9750 H         1 RES1    0.0000
     11 O1         3.3928    3.9947    3.3985 O.3       1 RES1    0.0000
     12 H5         2.6149    3.7185    4.1155 H         1 RES1    0.0000
     13 O2         1.6249    3.1662    4.7463 O.2       1 RES1    0.0000
     14 O3         2.6511    1.0005    0.7964 O.2       1 RES1    0.0000
     15 O4         1.0079    0.2851    1.9915 O.2       1 RES1    0.0000
@<TRIPOS>BOND
     1    1    2 2
     2    2    3 1
     3    3    8 1
     4    4    1 1
     5    5    4 1
     6    6    4 1
     7    7    2 1
     8    8    9 1
     9   10    8 1
    10   11    1 1
    11   12   11 1
    12   13    3 2
    13   14    7 2
    14   15    7 2
@<TRIPOS>SUBSTRUCTURE
     1 RES1 1

@<TRIPOS>CRYSIN
   4.8246    4.9580   21.9260  90.0000  90.0000  90.0000  19 1

