# MOL2 file generated by ConQuest
# Please check atom types

@<TRIPOS>MOLECULE
NMANBA
    28    28     1
SMALL
NO_CHARGES
****
Generated from CSD

@<TRIPOS>ATOM
      1 C1         2.5201   -0.3538   -3.3207 C.ar      1 RES1    0.0000
      2 C2         2.9788    0.6981   -2.4625 C.ar      1 RES1    0.0000
      3 C3         2.4137    1.9881   -2.7234 C.ar      1 RES1    0.0000
      4 C4         1.3558    2.1756   -3.6001 C.ar      1 RES1    0.0000
      5 C5         0.8767    1.1096   -4.3033 C.ar      1 RES1    0.0000
      6 C6         1.4880   -0.1568   -4.2023 C.ar      1 RES1    0.0000
      7 C7         3.2377   -1.6815   -3.4256 C.2       1 RES1    0.0000
      8 C8         3.0315   -4.1036   -3.5786 C.3       1 RES1    0.0000
      9 C9         4.1958   -0.7842   -0.8601 C.3       1 RES1    0.0000
     10 H1         0.9525    2.9598   -3.7070 H         1 RES1    0.0000
     11 H2         5.0587   -1.1202   -1.3043 H         1 RES1    0.0000
     12 H3         1.3040   -0.9905   -4.8741 H         1 RES1    0.0000
     13 H4         1.5722   -2.6532   -3.1677 H         1 RES1    0.0000
     14 H5         4.1801    1.0731   -0.9317 H         1 RES1    0.0000
     15 H6         3.3755   -4.1744   -4.5799 H         1 RES1    0.0000
     16 H7         2.3397   -4.7050   -3.6286 H         1 RES1    0.0000
     17 H8         3.7547   -4.2569   -2.6969 H         1 RES1    0.0000
     18 H9         4.3003   -0.5896    0.1079 H         1 RES1    0.0000
     19 H10        3.4680   -1.4386   -1.0395 H         1 RES1    0.0000
     20 N1         2.4711   -2.7723   -3.3501 N.am      1 RES1    0.0000
     21 N2         3.8305    0.4964   -1.4446 N.3       1 RES1    0.0000
     22 N3         2.8669    3.1921   -2.0418 N.pl3     1 RES1    0.0000
     23 N4        -0.2423    1.2900   -5.1781 N.pl3     1 RES1    0.0000
     24 O1         4.4575   -1.7287   -3.6207 O.2       1 RES1    0.0000
     25 O2         2.2917    4.2510   -2.2586 O.2       1 RES1    0.0000
     26 O3         3.8444    3.1249   -1.2798 O.2       1 RES1    0.0000
     27 O4        -0.5965    0.3231   -5.8734 O.2       1 RES1    0.0000
     28 O5        -0.8064    2.3737   -5.2114 O.2       1 RES1    0.0000
@<TRIPOS>BOND
     1    1    2 ar
     2    2    3 ar
     3    3    4 ar
     4    4    5 ar
     5    5    6 ar
     6    6    1 ar
     7    7    1 1
     8    8   15 1
     9    9   11 1
    10   10    4 1
    11   12    6 1
    12   13   20 1
    13   14   21 1
    14   16    8 1
    15   17    8 1
    16   18    9 1
    17   19    9 1
    18   20    7 1
    19   21    2 1
    20   22    3 1
    21   23    5 1
    22   24    7 2
    23   25   22 2
    24   26   22 2
    25   27   23 2
    26   28   23 2
    27    8   20 1
    28    9   21 1
@<TRIPOS>SUBSTRUCTURE
     1 RES1 1

@<TRIPOS>CRYSIN
   9.2480   11.7920    9.8070  90.0000  90.0000  90.0000  33 1

