# MOL2 file generated by ConQuest
# Please check atom types

@<TRIPOS>MOLECULE
NMBYAN25
    66    62     3
SMALL
NO_CHARGES
****
Generated from CSD

@<TRIPOS>ATOM
      1 N1         5.8738    6.5448    1.6301 N.2       1 RES1    0.0000
      2 N2         5.5588   10.2706   -3.6504 N.pl3     1 RES1    0.0000
      3 O1         4.9129    9.6963   -4.5061 O.2       1 RES1    0.0000
      4 O2         6.0905   11.3502   -3.8189 O.2       1 RES1    0.0000
      5 C1         6.0472    8.3618    0.0767 C.ar      1 RES1    0.0000
      6 C2         6.6146    9.6041   -0.1568 C.ar      1 RES1    0.0000
      7 C3         6.4513   10.2478   -1.3706 C.ar      1 RES1    0.0000
      8 C4         5.7113    9.6121   -2.3405 C.ar      1 RES1    0.0000
      9 C5         5.1208    8.3880   -2.1403 C.ar      1 RES1    0.0000
     10 C6         5.2885    7.7563   -0.9257 C.ar      1 RES1    0.0000
     11 C7         6.2759    7.7039    1.3713 C.2       1 RES1    0.0000
     12 C8         6.1565    5.9726    2.9012 C.ar      1 RES1    0.0000
     13 C9         6.2482    4.5951    2.9701 C.ar      1 RES1    0.0000
     14 C10        6.5411    3.9660    4.1683 C.ar      1 RES1    0.0000
     15 C11        6.7467    4.6826    5.3324 C.ar      1 RES1    0.0000
     16 C12        6.6214    6.0584    5.2635 C.ar      1 RES1    0.0000
     17 C13        6.3285    6.7075    4.0750 C.ar      1 RES1    0.0000
     18 C14        7.0612    3.9791    6.6263 C.3       1 RES1    0.0000
     19 H1         7.1370   10.0330    0.5263 H         1 RES1    0.0000
     20 H2         6.8593   11.1083   -1.5336 H         1 RES1    0.0000
     21 H3         4.6104    7.9705   -2.8336 H         1 RES1    0.0000
     22 H4         4.8550    6.9308   -0.7723 H         1 RES1    0.0000
     23 H5         6.8310    8.2074    1.9601 H         1 RES1    0.0000
     24 H6         6.1457    4.0700    2.1829 H         1 RES1    0.0000
     25 H7         6.6193    2.9837    4.1376 H         1 RES1    0.0000
     26 H8         6.7297    6.5847    6.0512 H         1 RES1    0.0000
     27 H9         6.2122    7.6747    4.0802 H         1 RES1    0.0000
     28 H10        6.3379    3.3556    6.8754 H         1 RES1    0.0000
     29 H11        7.3415    4.6604    7.4085 H         1 RES1    0.0000
     30 H12        7.8646    3.3340    6.4790 H         1 RES1    0.0000
     31 H13        7.9959    3.9781    6.8208 Du        3 SUP3    0.0000
     32 H14        6.9308    3.0539    6.4244 Du        3 SUP3    0.0000
     33 H15        6.4826    4.2592    7.4085 Du        3 SUP3    0.0000
     34 N3         2.9068    7.9573    5.5017 N.2       2 RES2    0.0000
     35 N4         2.7547    4.1584   10.7031 N.pl3     2 RES2    0.0000
     36 O3         2.1289    4.7123   11.5950 O.2       2 RES2    0.0000
     37 O4         3.3140    3.0899   10.8469 O.2       2 RES2    0.0000
     38 C15        3.0154    6.0583    6.9538 C.ar      2 RES2    0.0000
     39 C16        3.5568    4.7954    7.1335 C.ar      2 RES2    0.0000
     40 C17        3.4794    4.1589    8.3619 C.ar      2 RES2    0.0000
     41 C18        2.8247    4.8134    9.3909 C.ar      2 RES2    0.0000
     42 C19        2.2496    6.0540    9.2375 C.ar      2 RES2    0.0000
     43 C20        2.3488    6.6845    8.0121 C.ar      2 RES2    0.0000
     44 C21        3.1552    6.7303    5.6477 C.2       2 RES2    0.0000
     45 C22        3.0248    8.5616    4.2233 C.ar      2 RES2    0.0000
     46 C23        3.5138    9.8550    4.1585 C.ar      2 RES2    0.0000
     47 C24        3.5809   10.5245    2.9496 C.ar      2 RES2    0.0000
     48 C25        3.1557    9.9303    1.7726 C.ar      2 RES2    0.0000
     49 C26        2.6735    8.6344    1.8419 C.ar      2 RES2    0.0000
     50 C27        2.6045    7.9436    3.0464 C.ar      2 RES2    0.0000
     51 C28        3.1628   10.6973    0.4742 C.3       2 RES2    0.0000
     52 H16        4.0269    4.3711    6.4312 H         2 RES2    0.0000
     53 H17        3.8798    3.3059    8.5034 H         2 RES2    0.0000
     54 H18        1.7596    6.4861    9.9660 H         2 RES2    0.0000
     55 H19        1.9343    7.5429    7.8910 H         2 RES2    0.0000
     56 H20        3.4987    6.1623    4.9181 H         2 RES2    0.0000
     57 H21        3.8076   10.2651    4.9618 H         2 RES2    0.0000
     58 H22        3.9078   11.4592    2.9825 H         2 RES2    0.0000
     59 H23        2.3591    8.2028    1.0238 H         2 RES2    0.0000
     60 H24        2.1951    7.0331    3.0659 H         2 RES2    0.0000
     61 H25        3.2579   10.0955   -0.2734 H         2 RES2    0.0000
     62 H26        4.0005   11.2419    0.4784 H         2 RES2    0.0000
     63 H27        2.3332   11.2627    0.4237 H         2 RES2    0.0000
     64 H28        3.2710   11.7144    0.6288 Du        3 SUP3    0.0000
     65 H29        2.4020   10.3713   -0.2734 Du        3 SUP3    0.0000
     66 H30        3.9400   10.5890   -0.0957 Du        3 SUP3    0.0000
@<TRIPOS>BOND
     1    1   11 2
     2    2    3 2
     3    4    2 2
     4    5    6 ar
     5    6    7 ar
     6    7    8 ar
     7    8    2 1
     8    9    8 ar
     9   10    5 ar
    10   11    5 1
    11   12    1 1
    12   13   12 ar
    13   14   13 ar
    14   15   14 ar
    15   16   15 ar
    16   17   12 ar
    17   18   15 1
    18   19    6 1
    19   20    7 1
    20   21    9 1
    21   22   10 1
    22   23   11 1
    23   24   13 1
    24   25   14 1
    25   26   16 1
    26   27   17 1
    27   28   18 1
    28   29   18 1
    29   30   18 1
    30   34   44 2
    31   35   36 2
    32   37   35 2
    33   38   39 ar
    34   39   40 ar
    35   40   41 ar
    36   41   35 1
    37   42   41 ar
    38   43   38 ar
    39   44   38 1
    40   45   34 1
    41   46   45 ar
    42   47   46 ar
    43   48   47 ar
    44   49   48 ar
    45   50   45 ar
    46   51   48 1
    47   52   39 1
    48   53   40 1
    49   54   42 1
    50   55   43 1
    51   56   44 1
    52   57   46 1
    53   58   47 1
    54   59   49 1
    55   60   50 1
    56   61   51 1
    57   62   51 1
    58   63   51 1
    59    9   10 ar
    60   16   17 ar
    61   42   43 ar
    62   49   50 ar
@<TRIPOS>SUBSTRUCTURE
     1 RES1 1
     2 RES2 34
     3 SUP3 31

@<TRIPOS>CRYSIN
   7.1098   12.5649   14.3814  72.6170  83.9260  86.1440   2 1

