# MOL2 file generated by ConQuest
# Please check atom types

@<TRIPOS>MOLECULE
NMBYAN
    60    62     2
SMALL
NO_CHARGES
****
Generated from CSD

@<TRIPOS>ATOM
      1 O1         0.3193   -2.3278    2.7678 O.2       1 RES1    0.0000
      2 O2        -1.2208   -2.9618    1.4305 O.2       1 RES1    0.0000
      3 O3        -1.0820   -3.6480   -2.0960 O.2       2 RES2    0.0000
      4 O4        -2.8019   -4.4113   -1.1006 O.2       2 RES2    0.0000
      5 N1        -0.2000   -3.1563    2.0360 N.pl3     1 RES1    0.0000
      6 N2         3.5978   -8.3565    1.6672 N.2       1 RES1    0.0000
      7 N3        -2.1938   -3.5056   -1.6368 N.pl3     2 RES2    0.0000
      8 N4        -5.8838    1.8013   -1.7202 N.2       2 RES2    0.0000
      9 C1         0.4543   -4.4692    1.8855 C.ar      1 RES1    0.0000
     10 C2         1.6616   -4.6739    2.5269 C.ar      1 RES1    0.0000
     11 C3         2.3099   -5.9016    2.3750 C.ar      1 RES1    0.0000
     12 C4         1.7177   -6.8846    1.5619 C.ar      1 RES1    0.0000
     13 C5         0.4974   -6.6457    0.9502 C.ar      1 RES1    0.0000
     14 C6        -0.1379   -5.4132    1.0964 C.ar      1 RES1    0.0000
     15 C7         2.4064   -8.1640    1.3429 C.2       1 RES1    0.0000
     16 C8         4.2060   -9.6117    1.4849 C.ar      1 RES1    0.0000
     17 C9         5.5430   -9.6260    1.0808 C.ar      1 RES1    0.0000
     18 C10        6.2201  -10.8442    0.9438 C.ar      1 RES1    0.0000
     19 C11        5.5824  -12.0512    1.2306 C.ar      1 RES1    0.0000
     20 C12        4.2615  -12.0199    1.6142 C.ar      1 RES1    0.0000
     21 C13        3.5561  -10.8190    1.7597 C.ar      1 RES1    0.0000
     22 C14        6.3576  -13.3566    1.1338 C.3       1 RES1    0.0000
     23 C15       -2.8289   -2.1981   -1.7138 C.ar      2 RES2    0.0000
     24 C16       -4.0965   -2.0390   -1.1812 C.ar      2 RES2    0.0000
     25 C17       -4.7264   -0.8056   -1.2737 C.ar      2 RES2    0.0000
     26 C18       -4.0627    0.2494   -1.9144 C.ar      2 RES2    0.0000
     27 C19       -2.7768    0.0691   -2.4097 C.ar      2 RES2    0.0000
     28 C20       -2.1326   -1.1718   -2.3249 C.ar      2 RES2    0.0000
     29 C21       -4.6980    1.5627   -2.0713 C.2       2 RES2    0.0000
     30 C22       -6.4386    3.0846   -1.9257 C.ar      2 RES2    0.0000
     31 C23       -7.8104    3.1644   -2.0960 C.ar      2 RES2    0.0000
     32 C24       -8.4261    4.3869   -2.3263 C.ar      2 RES2    0.0000
     33 C25       -7.6929    5.5583   -2.3708 C.ar      2 RES2    0.0000
     34 C26       -6.3025    5.4968   -2.1758 C.ar      2 RES2    0.0000
     35 C27       -5.6904    4.2574   -1.9243 C.ar      2 RES2    0.0000
     36 C28       -8.3713    6.8903   -2.6287 C.3       2 RES2    0.0000
     37 H1        -9.1249    6.7578   -2.5290 H         2 RES2    0.0000
     38 H2        -0.0021   -7.2702    0.4521 H         1 RES1    0.0000
     39 H3        -4.1009    2.1495   -2.3878 H         2 RES2    0.0000
     40 H4         1.8817   -8.8225    0.9325 H         1 RES1    0.0000
     41 H5        -4.7120    4.2067   -1.7732 H         2 RES2    0.0000
     42 H6        -9.4449    4.4912   -2.4937 H         2 RES2    0.0000
     43 H7        -8.4452    2.3289   -1.9427 H         2 RES2    0.0000
     44 H8         5.9668   -8.6965    0.9042 H         1 RES1    0.0000
     45 H9        -0.9103   -5.2287    0.4804 H         1 RES1    0.0000
     46 H10        2.0014   -4.0065    3.0518 H         1 RES1    0.0000
     47 H11        6.8955  -13.2680    1.7025 H         1 RES1    0.0000
     48 H12       -7.8562    7.4756   -2.5785 H         2 RES2    0.0000
     49 H13        7.2072  -10.7051    0.6641 H         1 RES1    0.0000
     50 H14       -5.6076    6.2752   -2.1970 H         2 RES2    0.0000
     51 H15       -1.2093   -1.2539   -2.6774 H         2 RES2    0.0000
     52 H16        2.5525  -10.7878    2.1900 H         1 RES1    0.0000
     53 H17       -4.5528   -2.8739   -0.6852 H         2 RES2    0.0000
     54 H18        5.8966  -13.9038    1.6036 H         1 RES1    0.0000
     55 H19       -2.2514    0.8516   -2.9035 H         2 RES2    0.0000
     56 H20       -5.7290   -0.7141   -0.9042 H         2 RES2    0.0000
     57 H21        3.7707  -12.8331    1.9003 H         1 RES1    0.0000
     58 H22        3.1341   -6.0658    2.9176 H         1 RES1    0.0000
     59 H23        6.5071  -13.6185    0.4168 H         1 RES1    0.0000
     60 H24       -8.7301    7.0228   -3.4898 H         2 RES2    0.0000
@<TRIPOS>BOND
     1    1    5 2
     2    2    5 2
     3    3    7 2
     4    4    7 2
     5    5    9 1
     6    6   15 2
     7    7   23 1
     8    8   29 2
     9    9   10 ar
    10   10   11 ar
    11   11   12 ar
    12   12   13 ar
    13   13   14 ar
    14   14    9 ar
    15   15   12 1
    16   16    6 1
    17   17   16 ar
    18   18   17 ar
    19   19   18 ar
    20   20   19 ar
    21   21   16 ar
    22   22   19 1
    23   23   24 ar
    24   24   25 ar
    25   25   26 ar
    26   26   27 ar
    27   27   28 ar
    28   28   23 ar
    29   29   26 1
    30   30    8 1
    31   31   30 ar
    32   32   31 ar
    33   33   32 ar
    34   34   33 ar
    35   35   30 ar
    36   36   33 1
    37   37   36 1
    38   38   13 1
    39   39   29 1
    40   40   15 1
    41   41   35 1
    42   42   32 1
    43   43   31 1
    44   44   17 1
    45   45   14 1
    46   46   10 1
    47   47   22 1
    48   48   36 1
    49   49   18 1
    50   50   34 1
    51   51   28 1
    52   52   21 1
    53   53   24 1
    54   54   22 1
    55   55   27 1
    56   56   25 1
    57   57   20 1
    58   58   11 1
    59   59   22 1
    60   60   36 1
    61   20   21 ar
    62   34   35 ar
@<TRIPOS>SUBSTRUCTURE
     1 RES1 1
     2 RES2 3

@<TRIPOS>CRYSIN
  12.5610   14.3720    7.1080  96.0200  93.7200  72.6500   2 1

