# MOL2 file generated by ConQuest
# Please check atom types

@<TRIPOS>MOLECULE
NMBYAN26
    66    62     3
SMALL
NO_CHARGES
****
Generated from CSD

@<TRIPOS>ATOM
      1 N1         5.8876    6.3765    1.6957 N.2       1 RES1    0.0000
      2 N2         5.6020   10.0888   -3.6118 N.pl3     1 RES1    0.0000
      3 O1         4.9670    9.4966   -4.4834 O.2       1 RES1    0.0000
      4 O2         6.1274   11.1883   -3.7812 O.2       1 RES1    0.0000
      5 C1         6.0903    8.1889    0.1249 C.ar      1 RES1    0.0000
      6 C2         6.6804    9.4359   -0.1141 C.ar      1 RES1    0.0000
      7 C3         6.5151   10.0785   -1.3345 C.ar      1 RES1    0.0000
      8 C4         5.7511    9.4454   -2.3012 C.ar      1 RES1    0.0000
      9 C5         5.1361    8.2152   -2.0936 C.ar      1 RES1    0.0000
     10 C6         5.3078    7.5885   -0.8703 C.ar      1 RES1    0.0000
     11 C7         6.3286    7.5443    1.4222 C.2       1 RES1    0.0000
     12 C8         6.1900    5.8198    2.9652 C.ar      1 RES1    0.0000
     13 C9         6.2342    4.4243    3.0470 C.ar      1 RES1    0.0000
     14 C10        6.5524    3.8020    4.2472 C.ar      1 RES1    0.0000
     15 C11        6.8251    4.5401    5.4017 C.ar      1 RES1    0.0000
     16 C12        6.7373    5.9342    5.3235 C.ar      1 RES1    0.0000
     17 C13        6.4194    6.5720    4.1279 C.ar      1 RES1    0.0000
     18 C14        7.1771    3.8369    6.6849 C.3       1 RES1    0.0000
     19 H1         6.5827    3.0876    6.8677 H         1 RES1    0.0000
     20 H2         7.1895    4.4475    7.4678 H         1 RES1    0.0000
     21 H3         8.0377    3.4904    6.6100 H         1 RES1    0.0000
     22 H4         8.1239    4.0275    7.1732 Du        3 SUP3    0.0000
     23 H5         7.9195    2.9616    6.5186 Du        3 SUP3    0.0000
     24 H6         6.5715    3.7884    7.3641 Du        3 SUP3    0.0000
     25 H7         7.2448    9.8621    0.5714 H         1 RES1    0.0000
     26 H8         6.9454   10.9270   -1.5110 H         1 RES1    0.0000
     27 H9         4.5719    7.8200   -2.7766 H         1 RES1    0.0000
     28 H10        4.8621    6.7584   -0.7119 H         1 RES1    0.0000
     29 H11        6.8955    8.0491    2.0388 H         1 RES1    0.0000
     30 H12        6.0603    3.9190    2.2447 H         1 RES1    0.0000
     31 H13        6.5949    2.8363    4.2753 H         1 RES1    0.0000
     32 H14        6.8845    6.4573    6.1259 H         1 RES1    0.0000
     33 H15        6.3030    7.5316    4.1253 H         1 RES1    0.0000
     34 N3         3.1311    7.7515    5.5012 N.2       2 RES2    0.0000
     35 N4         2.9739    3.9337   10.6975 N.pl3     2 RES2    0.0000
     36 O3         2.3455    4.4918   11.5936 O.2       2 RES2    0.0000
     37 O4         3.5545    2.8600   10.8438 O.2       2 RES2    0.0000
     38 C15        3.2097    5.8337    6.9350 C.ar      2 RES2    0.0000
     39 C16        3.7644    4.5627    7.1139 C.ar      2 RES2    0.0000
     40 C17        3.6963    3.9277    8.3500 C.ar      2 RES2    0.0000
     41 C18        3.0382    4.5835    9.3819 C.ar      2 RES2    0.0000
     42 C19        2.4447    5.8327    9.2303 C.ar      2 RES2    0.0000
     43 C20        2.5423    6.4599    7.9968 C.ar      2 RES2    0.0000
     44 C21        3.3486    6.4999    5.6291 C.2       2 RES2    0.0000
     45 C22        3.2358    8.3497    4.2227 C.ar      2 RES2    0.0000
     46 C23        3.7711    9.6397    4.1523 C.ar      2 RES2    0.0000
     47 C24        3.8225   10.3115    2.9376 C.ar      2 RES2    0.0000
     48 C25        3.3297    9.7339    1.7630 C.ar      2 RES2    0.0000
     49 C26        2.8073    8.4386    1.8413 C.ar      2 RES2    0.0000
     50 C27        2.7538    7.7497    3.0533 C.ar      2 RES2    0.0000
     51 C28        3.3194   10.5040    0.4710 C.3       2 RES2    0.0000
     52 H16        3.4055    9.8827   -0.2877 H         2 RES2    0.0000
     53 H17        4.0851   11.1575    0.4746 H         2 RES2    0.0000
     54 H18        2.4299   11.0210    0.4037 H         2 RES2    0.0000
     55 H19        2.7729   11.3155    0.5728 Du        3 SUP3    0.0000
     56 H20        2.7559   10.0713   -0.3955 Du        3 SUP3    0.0000
     57 H21        4.1614   10.6136    0.0682 Du        3 SUP3    0.0000
     58 H22        4.2266    4.1339    6.3795 H         2 RES2    0.0000
     59 H23        4.1058    3.0683    8.4892 H         2 RES2    0.0000
     60 H24        1.9598    6.2470    9.9525 H         2 RES2    0.0000
     61 H25        2.1135    7.3140    7.8687 H         2 RES2    0.0000
     62 H26        3.6678    5.9342    4.8985 H         2 RES2    0.0000
     63 H27        4.1002   10.0591    4.9763 H         2 RES2    0.0000
     64 H28        4.1839   11.2232    2.9211 H         2 RES2    0.0000
     65 H29        2.4723    8.0346    1.0351 H         2 RES2    0.0000
     66 H30        2.3231    6.8534    3.0779 H         2 RES2    0.0000
@<TRIPOS>BOND
     1    1   11 2
     2    2    3 2
     3    4    2 2
     4    5    6 ar
     5    6    7 ar
     6    7    8 ar
     7    8    2 1
     8    9    8 ar
     9   10    5 ar
    10   11    5 1
    11   12    1 1
    12   13   12 ar
    13   14   13 ar
    14   15   14 ar
    15   16   15 ar
    16   17   12 ar
    17   18   15 1
    18   19   18 1
    19   20   18 1
    20   21   18 1
    21   25    6 1
    22   26    7 1
    23   27    9 1
    24   28   10 1
    25   29   11 1
    26   30   13 1
    27   31   14 1
    28   32   16 1
    29   33   17 1
    30   34   44 2
    31   35   36 2
    32   37   35 2
    33   38   39 ar
    34   39   40 ar
    35   40   41 ar
    36   41   35 1
    37   42   41 ar
    38   43   38 ar
    39   44   38 1
    40   45   34 1
    41   46   45 ar
    42   47   46 ar
    43   48   47 ar
    44   49   48 ar
    45   50   45 ar
    46   51   48 1
    47   52   51 1
    48   53   51 1
    49   54   51 1
    50   58   39 1
    51   59   40 1
    52   60   42 1
    53   61   43 1
    54   62   44 1
    55   63   46 1
    56   64   47 1
    57   65   49 1
    58   66   50 1
    59    9   10 ar
    60   16   17 ar
    61   42   43 ar
    62   49   50 ar
@<TRIPOS>SUBSTRUCTURE
     1 RES1 1
     2 RES2 34
     3 SUP3 22

@<TRIPOS>CRYSIN
   6.9610   12.3496   14.3296  73.1680  82.7190  85.0610   2 1

