# MOL2 file generated by ConQuest
# Please check atom types

@<TRIPOS>MOLECULE
NMBZYA
    19    20     1
SMALL
NO_CHARGES
****
Generated from CSD

@<TRIPOS>ATOM
      1 C1         3.4213    1.3238    1.9105 C.ar      1 RES1    0.0000
      2 C2         8.7085    1.8597    9.2880 C.ar      1 RES1    0.0000
      3 C3         7.5512    2.5808    9.1742 C.ar      1 RES1    0.0000
      4 C4         6.8031    2.4822    7.9988 C.ar      1 RES1    0.0000
      5 C5         6.5200    1.4544    5.7262 C.2       1 RES1    0.0000
      6 C6         1.4529    0.8397    0.5418 C.3       1 RES1    0.0000
      7 C7         2.6953    1.1279    3.0846 C.ar      1 RES1    0.0000
      8 C8         3.3801    1.3039    4.3286 C.ar      1 RES1    0.0000
      9 C9         4.7657    1.6389    4.2998 C.ar      1 RES1    0.0000
     10 C10        5.3916    1.8434    3.1010 C.ar      1 RES1    0.0000
     11 C11        4.7131    1.6624    1.9147 C.ar      1 RES1    0.0000
     12 C12        7.2777    1.6425    6.9386 C.ar      1 RES1    0.0000
     13 C13        8.4913    0.8972    7.1388 C.ar      1 RES1    0.0000
     14 C14        9.2321    1.0512    8.3293 C.ar      1 RES1    0.0000
     15 N1         9.4664    1.9967   10.5732 N.pl3     1 RES1    0.0000
     16 N2         5.3432    1.8015    5.5849 N.2       1 RES1    0.0000
     17 O1         2.8639    1.2194    0.6446 O.3       1 RES1    0.0000
     18 O2        10.5553    1.5005   10.6417 O.2       1 RES1    0.0000
     19 O3         8.9873    2.6454   11.5003 O.2       1 RES1    0.0000
@<TRIPOS>BOND
     1    1    7 ar
     2    2    3 ar
     3    3    4 ar
     4    4   12 ar
     5    5   12 1
     6    6   17 1
     7    7    8 ar
     8    8    9 ar
     9    9   10 ar
    10   10   11 ar
    11   11    1 ar
    12   12   13 ar
    13   13   14 ar
    14   14    2 ar
    15   15    2 1
    16   16    5 2
    17   17    1 1
    18   18   15 2
    19   19   15 2
    20    9   16 1
@<TRIPOS>SUBSTRUCTURE
     1 RES1 1

@<TRIPOS>CRYSIN
  12.8880    7.0980   14.0660  90.0000 102.8200  90.0000  14 1

