# MOL2 file generated by ConQuest
# Please check atom types

@<TRIPOS>MOLECULE
NMBZAX01
    42    42     2
SMALL
USER_CHARGES
****
Generated from CSD

@<TRIPOS>ATOM
      1 O1         5.9283    3.1477    3.2497 O.2       1 RES1   -1.0000
      2 O2        -1.0152    6.1372    3.0724 O.2       1 RES1    0.0000
      3 O3        -0.9513    4.0130    3.4835 O.2       1 RES1    0.0000
      4 N1         6.1710    4.4160    3.2385 N.pl3     1 RES1    1.0000
      5 N2        -0.3995    5.0907    3.2609 N.pl3     1 RES1    0.0000
      6 C1         3.8282    5.1927    3.1902 C.ar      1 RES1    0.0000
      7 C2         5.2672    5.3650    3.2055 C.2       1 RES1    0.0000
      8 H1         5.5884    6.2592    3.1901 H         1 RES1    0.0000
      9 C3         7.6032    4.7669    3.2546 C.3       1 RES1    0.0000
     10 H2         8.0246    4.3850    4.0535 H         1 RES1    0.0000
     11 H3         7.7005    5.7417    3.2689 H         1 RES1    0.0000
     12 H4         8.0375    4.4069    2.4535 H         1 RES1    0.0000
     13 C4         3.1550    3.9598    3.2765 C.ar      1 RES1    0.0000
     14 H5         3.6496    3.1498    3.3243 H         1 RES1    0.0000
     15 C5         1.7638    3.9266    3.2924 C.ar      1 RES1    0.0000
     16 H6         1.3012    3.0995    3.3551 H         1 RES1    0.0000
     17 C6         1.0654    5.1202    3.2153 C.ar      1 RES1    0.0000
     18 C7         1.6954    6.3519    3.1002 C.ar      1 RES1    0.0000
     19 H7         1.1912    7.1531    3.0275 H         1 RES1    0.0000
     20 C8         3.0790    6.3797    3.0939 C.ar      1 RES1    0.0000
     21 H8         3.5302    7.2132    3.0238 H         1 RES1    0.0000
     22 O4         0.0006    4.7289    0.1197 O.2       2 RES2   -1.0000
     23 O5         6.9706    1.7843    0.2373 O.2       2 RES2    0.0000
     24 O6         6.8927    3.9410    0.0148 O.2       2 RES2    0.0000
     25 N3        -0.2278    3.4610    0.1846 N.pl3     2 RES2    1.0000
     26 N4         6.3493    2.8431    0.1389 N.pl3     2 RES2    0.0000
     27 C9         2.1227    2.7070    0.2072 C.ar      2 RES2    0.0000
     28 C10        0.6828    2.5195    0.2346 C.2       2 RES2    0.0000
     29 H9         0.3698    1.6247    0.2956 H         2 RES2    0.0000
     30 C11       -1.6545    3.0877    0.2282 C.3       2 RES2    0.0000
     31 H10       -2.0442    3.3862    1.0765 H         2 RES2    0.0000
     32 H11       -1.7399    2.1138    0.1540 H         2 RES2    0.0000
     33 H12       -2.1273    3.5142   -0.5173 H         2 RES2    0.0000
     34 C12        2.7817    3.9209   -0.0408 C.ar      2 RES2    0.0000
     35 H13        2.2782    4.7111   -0.1958 H         2 RES2    0.0000
     36 C13        4.1713    3.9670   -0.0596 C.ar      2 RES2    0.0000
     37 H14        4.6254    4.7855   -0.2229 H         2 RES2    0.0000
     38 C14        4.8826    2.7992    0.1630 C.ar      2 RES2    0.0000
     39 C15        4.2681    1.5778    0.4051 C.ar      2 RES2    0.0000
     40 H15        4.7811    0.7921    0.5543 H         2 RES2    0.0000
     41 C16        2.8817    1.5399    0.4222 C.ar      2 RES2    0.0000
     42 H16        2.4373    0.7155    0.5814 H         2 RES2    0.0000
@<TRIPOS>BOND
     1    1    4 1
     2    2    5 2
     3    3    5 2
     4    4    7 2
     5    5   17 1
     6    6    7 1
     7    7    8 1
     8    9    4 1
     9   10    9 1
    10   11    9 1
    11   12    9 1
    12   13    6 ar
    13   14   13 1
    14   15   13 ar
    15   16   15 1
    16   17   15 ar
    17   18   17 ar
    18   19   18 1
    19   20    6 ar
    20   21   20 1
    21   22   25 1
    22   23   26 2
    23   24   26 2
    24   25   28 2
    25   26   38 1
    26   27   28 1
    27   28   29 1
    28   30   25 1
    29   31   30 1
    30   32   30 1
    31   33   30 1
    32   34   27 ar
    33   35   34 1
    34   36   34 ar
    35   37   36 1
    36   38   36 ar
    37   39   38 ar
    38   40   39 1
    39   41   27 ar
    40   42   41 1
    41   18   20 ar
    42   39   41 ar
@<TRIPOS>SUBSTRUCTURE
     1 RES1 1
     2 RES2 22

@<TRIPOS>CRYSIN
  11.7011   10.9407   12.3169  90.0000  90.0000  90.0000  29 5

