# MOL2 file generated by ConQuest
# Please check atom types

@<TRIPOS>MOLECULE
NMBZAX
    42    42     2
SMALL
NO_CHARGES
****
Generated from CSD

@<TRIPOS>ATOM
      1 C1         2.0334    0.3264    3.1525 C.ar      1 RES1    0.0000
      2 C2         2.7084    1.5595    3.2294 C.ar      1 RES1    0.0000
      3 C3         4.0949    1.5914    3.2370 C.ar      1 RES1    0.0000
      4 C4         4.7876    0.3967    3.1613 C.ar      1 RES1    0.0000
      5 C5         4.1583   -0.8221    3.0491 C.ar      1 RES1    0.0000
      6 C6         2.7894   -0.8605    3.0504 C.ar      1 RES1    0.0000
      7 C7         0.5987    0.1517    3.1613 C.2       1 RES1    0.0000
      8 C8        -1.7434    0.7363    3.2269 C.3       1 RES1    0.0000
      9 H1         2.1883    2.4123    3.2773 H         1 RES1    0.0000
     10 H2         4.5845    2.4618    3.2963 H         1 RES1    0.0000
     11 H3         4.6913   -1.6650    2.9659 H         1 RES1    0.0000
     12 H4         2.3198   -1.7408    2.9797 H         1 RES1    0.0000
     13 H5         0.2653   -0.7902    3.1235 H         1 RES1    0.0000
     14 H6        -1.8455   -0.2583    3.2282 H         1 RES1    0.0000
     15 H7        -2.1707    1.1166    4.0465 H         1 RES1    0.0000
     16 H8        -2.1860    1.1166    2.4136 H         1 RES1    0.0000
     17 N1        -0.3064    1.0847    3.2130 N.pl3     1 RES1    0.0000
     18 N2         6.2598    0.4330    3.1865 N.pl3     1 RES1    0.0000
     19 O1        -0.0599    2.3596    3.2105 O.2       1 RES1    0.0000
     20 O2         6.8104    1.5023    3.4261 O.2       1 RES1    0.0000
     21 O3         6.8773   -0.6176    3.0037 O.2       1 RES1    0.0000
     22 C9         3.7580    2.7728    0.0845 C.ar      2 RES2    0.0000
     23 C10        3.0994    1.5452   -0.1450 C.ar      2 RES2    0.0000
     24 C11        1.7152    1.5056   -0.1601 C.ar      2 RES2    0.0000
     25 C12        1.0049    2.6695    0.0467 C.ar      2 RES2    0.0000
     26 C13        1.6119    3.8905    0.2699 C.ar      2 RES2    0.0000
     27 C14        2.9855    3.9256    0.2787 C.ar      2 RES2    0.0000
     28 C15        5.1891    2.9607    0.1072 C.2       2 RES2    0.0000
     29 C16        7.5359    2.4046    0.0908 C.3       2 RES2    0.0000
     30 H9         3.6288    0.7100   -0.2951 H         2 RES2    0.0000
     31 H10        1.2362    0.6429   -0.3190 H         2 RES2    0.0000
     32 H11        1.0719    4.7191    0.4212 H         2 RES2    0.0000
     33 H12        3.4469    4.8004    0.4275 H         2 RES2    0.0000
     34 H13        5.5190    3.9036    0.1639 H         2 RES2    0.0000
     35 H14        7.6157    3.3992    0.1538 H         2 RES2    0.0000
     36 H15        7.9832    2.0870   -0.7453 H         2 RES2    0.0000
     37 H16        7.9750    1.9837    0.8840 H         2 RES2    0.0000
     38 N3         6.0966    2.0233    0.0593 N.pl3     2 RES2    0.0000
     39 N4        -0.4661    2.6332    0.0177 N.pl3     2 RES2    0.0000
     40 O4         5.8688    0.7583   -0.0227 O.2       2 RES2    0.0000
     41 O5        -1.0061    1.5243   -0.0757 O.2       2 RES2    0.0000
     42 O6        -1.0930    3.6674    0.1286 O.2       2 RES2    0.0000
@<TRIPOS>BOND
     1    1    2 ar
     2    2    3 ar
     3    3    4 ar
     4    4    5 ar
     5    5    6 ar
     6    6    1 ar
     7    7    1 1
     8    8   14 1
     9    9    2 1
    10   10    3 1
    11   11    5 1
    12   12    6 1
    13   13    7 1
    14   15    8 1
    15   16    8 1
    16   17    7 2
    17   18    4 1
    18   19   17 2
    19   20   18 2
    20   21   18 2
    21   22   23 ar
    22   23   24 ar
    23   24   25 ar
    24   25   26 ar
    25   26   27 ar
    26   27   22 ar
    27   28   22 1
    28   29   35 1
    29   30   23 1
    30   31   24 1
    31   32   26 1
    32   33   27 1
    33   34   28 1
    34   36   29 1
    35   37   29 1
    36   38   28 2
    37   39   25 1
    38   40   38 2
    39   41   39 2
    40   42   39 2
    41    8   17 1
    42   29   38 1
@<TRIPOS>SUBSTRUCTURE
     1 RES1 1
     2 RES2 22

@<TRIPOS>CRYSIN
  11.7400   10.9900   12.6100  90.0000  90.0000  90.0000  29 5

