# MOL2 file generated by ConQuest
# Please check atom types

@<TRIPOS>MOLECULE
NMHXNT
    31    33     1
SMALL
NO_CHARGES
****
Generated from CSD

@<TRIPOS>ATOM
      1 C1         0.7687   -1.3900    2.1798 C.3       1 RES1    0.0000
      2 C2         1.7759   -2.0345    1.2310 C.3       1 RES1    0.0000
      3 C3         3.2438   -1.7907    1.5404 C.3       1 RES1    0.0000
      4 C4         3.6698   -0.4140    1.0145 C.3       1 RES1    0.0000
      5 C5         3.0915    0.5315    2.0973 C.3       1 RES1    0.0000
      6 C6         2.7466   -0.3994    3.2754 C.3       1 RES1    0.0000
      7 C7         1.2572   -0.6877    3.4237 C.3       1 RES1    0.0000
      8 C8         0.8505   -2.8854    2.0509 C.3       1 RES1    0.0000
      9 C9         5.1810   -0.2845    0.8495 C.3       1 RES1    0.0000
     10 H1         1.5455   -1.9749    0.2836 H         1 RES1    0.0000
     11 H2         5.4013    0.5842    0.4383 H         1 RES1    0.0000
     12 H3         5.5207   -1.0033    0.2449 H         1 RES1    0.0000
     13 H4         5.4219   -0.8509    2.7456 H         1 RES1    0.0000
     14 H5         4.0175   -2.9781    4.0862 H         1 RES1    0.0000
     15 H6         3.7963   -2.5337    1.1988 H         1 RES1    0.0000
     16 H7         3.2907   -0.2413    0.1289 H         1 RES1    0.0000
     17 H8         3.7681    1.1938    2.3718 H         1 RES1    0.0000
     18 H9         2.2779    0.9652    1.7402 H         1 RES1    0.0000
     19 H10        1.1183   -1.2192    4.2280 H         1 RES1    0.0000
     20 H11        0.7864    0.1397    3.5448 H         1 RES1    0.0000
     21 H12        0.1082   -3.2703    1.5984 H         1 RES1    0.0000
     22 H13        1.2049   -3.3274    2.9390 H         1 RES1    0.0000
     23 N1         3.5437   -1.5710    2.9635 N.3       1 RES1    0.0000
     24 N2         3.2682    0.1778    4.5928 N.pl3     1 RES1    0.0000
     25 N3        -0.3868   -0.7582    1.4966 N.pl3     1 RES1    0.0000
     26 O1         5.8899   -0.3245    2.0857 O.3       1 RES1    0.0000
     27 O2         3.1862   -2.6645    3.8130 O.3       1 RES1    0.0000
     28 O3         2.4896    0.8198    5.2554 O.2       1 RES1    0.0000
     29 O4        -0.7310    0.3562    1.8601 O.2       1 RES1    0.0000
     30 O5        -0.9301   -1.3627    0.5891 O.2       1 RES1    0.0000
     31 O6         4.4341   -0.0159    4.8829 O.2       1 RES1    0.0000
@<TRIPOS>BOND
     1    1    2 1
     2    2    3 1
     3    3    4 1
     4    4    5 1
     5    5    6 1
     6    6    7 1
     7    7    1 1
     8    8    1 1
     9    9    4 1
    10   10    2 1
    11   11    9 1
    12   12    9 1
    13   13   26 1
    14   14   27 1
    15   15    3 1
    16   16    4 1
    17   17    5 1
    18   18    5 1
    19   19    7 1
    20   20    7 1
    21   21    8 1
    22   22    8 1
    23   23    3 1
    24   24    6 1
    25   25    1 1
    26   26    9 1
    27   27   23 1
    28   28   24 2
    29   29   25 2
    30   30   25 2
    31   31   24 2
    32    2    8 1
    33    6   23 1
@<TRIPOS>SUBSTRUCTURE
     1 RES1 1

@<TRIPOS>CRYSIN
  13.3040    6.3500   13.3640  90.0000 105.3000  90.0000  14 1

