# MOL2 file generated by ConQuest
# Please check atom types

@<TRIPOS>MOLECULE
NMYPHD
    14    15     1
SMALL
NO_CHARGES
****
Generated from CSD

@<TRIPOS>ATOM
      1 C1         7.4510    1.4358    6.0199 C.2       1 RES1    0.0000
      2 C2         7.2682    1.4557    7.4858 C.ar      1 RES1    0.0000
      3 C3         7.7227    0.5628    8.4304 C.ar      1 RES1    0.0000
      4 C4         7.3918    0.8497    9.7596 C.ar      1 RES1    0.0000
      5 C5         6.6465    1.9776   10.0886 C.ar      1 RES1    0.0000
      6 C6         6.1938    2.8682    9.1272 C.ar      1 RES1    0.0000
      7 C7         6.5159    2.5760    7.7988 C.ar      1 RES1    0.0000
      8 C8         6.2043    3.2648    6.5403 C.2       1 RES1    0.0000
      9 C9         5.4903    4.3699    6.3933 C.2       1 RES1    0.0000
     10 O1         8.0135    0.7016    5.2795 O.2       1 RES1    0.0000
     11 O2         6.7824    2.5731    5.5091 O.3       1 RES1    0.0000
     12 O3         5.4816    4.4119    4.0782 O.2       1 RES1    0.0000
     13 O4         4.7329    6.1125    5.1515 O.2       1 RES1    0.0000
     14 N1         5.2222    4.9852    5.1070 N.pl3     1 RES1    0.0000
@<TRIPOS>BOND
     1    1    2 1
     2    2    3 ar
     3    3    4 ar
     4    4    5 ar
     5    5    6 ar
     6    6    7 ar
     7    7    2 ar
     8    8    7 1
     9    9    8 2
    10   10    1 2
    11   11    1 1
    12   12   14 2
    13   13   14 2
    14   14    9 1
    15    8   11 1
@<TRIPOS>SUBSTRUCTURE
     1 RES1 1

@<TRIPOS>CRYSIN
  17.4130    5.8320    7.9450  90.0000  90.0000  90.0000  19 1

