# MOL2 file generated by ConQuest
# Please check atom types

@<TRIPOS>MOLECULE
NMYPIP
    10    10     1
SMALL
NO_CHARGES
****
Generated from CSD

@<TRIPOS>ATOM
      1 C1         0.3809   -2.3480   -8.5848 C.2       1 RES1    0.0000
      2 C2         0.4679   -1.2185   -7.5891 C.3       1 RES1    0.0000
      3 C3         0.3454   -1.6326   -6.1754 C.3       1 RES1    0.0000
      4 C4         0.2458   -2.9515   -5.8441 C.3       1 RES1    0.0000
      5 C5         0.0522   -3.9587   -6.7748 C.3       1 RES1    0.0000
      6 C6         0.4791   -2.0154   -9.8664 C.2       1 RES1    0.0000
      7 N1         0.2103   -3.5759   -8.1628 N.pl3     1 RES1    0.0000
      8 N2         0.3816   -2.8679  -10.9232 N.pl3     1 RES1    0.0000
      9 O1         0.3050   -4.0989  -10.7477 O.2       1 RES1    0.0000
     10 O2         0.4101   -2.4453  -12.1122 O.2       1 RES1    0.0000
@<TRIPOS>BOND
     1    1    2 1
     2    2    3 1
     3    3    4 1
     4    4    5 1
     5    5    7 1
     6    6    1 2
     7    7    1 1
     8    8    6 1
     9    9    8 2
    10   10    8 2
@<TRIPOS>SUBSTRUCTURE
     1 RES1 1

@<TRIPOS>CRYSIN
   6.9630   10.4590   19.7170  90.0000  90.0000  90.0000  61 1

