# MOL2 file generated by ConQuest
# Please check atom types

@<TRIPOS>MOLECULE
NMZNON01
    30    31     1
SMALL
NO_CHARGES
****
Generated from CSD

@<TRIPOS>ATOM
      1 C1         2.4106    1.1252    1.3116 C.3       1 RES1    0.0000
      2 C2         2.0633    0.1302    0.2323 C.3       1 RES1    0.0000
      3 C3         1.8537   -1.2498    0.7698 C.2       1 RES1    0.0000
      4 C4         2.7542   -1.7120    1.8898 C.3       1 RES1    0.0000
      5 C5         3.0014   -0.6133    2.9048 C.3       1 RES1    0.0000
      6 C6         1.7556   -0.3056    3.6971 C.3       1 RES1    0.0000
      7 C7         1.1685    1.4406    2.1650 C.3       1 RES1    0.0000
      8 C8         3.5243    0.6541    2.1949 C.3       1 RES1    0.0000
      9 C9        -0.5720    0.3022    3.3759 C.3       1 RES1    0.0000
     10 H1        -0.8117   -0.6729    3.8438 H         1 RES1    0.0000
     11 H2        -1.1137    0.5516    2.6768 H         1 RES1    0.0000
     12 H3        -0.6229    0.9487    4.1222 H         1 RES1    0.0000
     13 H4         1.1704    0.4633    0.2891 H         1 RES1    0.0000
     14 H5         2.7938    0.1324   -0.4283 H         1 RES1    0.0000
     15 H6         2.1709   -2.5261    2.3341 H         1 RES1    0.0000
     16 H7         3.6055   -2.1510    1.5311 H         1 RES1    0.0000
     17 H8         2.0198    0.4412    4.4006 H         1 RES1    0.0000
     18 H9         1.3780   -1.0590    4.1757 H         1 RES1    0.0000
     19 H10        0.3209    1.8532    1.5953 H         1 RES1    0.0000
     20 H11        1.5102    2.2393    2.8266 H         1 RES1    0.0000
     21 H12        4.4172    0.4523    1.6703 H         1 RES1    0.0000
     22 H13        3.7376    1.3017    2.8266 H         1 RES1    0.0000
     23 N1         2.8580    2.4323    0.6574 N.pl3     1 RES1    0.0000
     24 N2         4.1171   -1.0788    3.8481 N.pl3     1 RES1    0.0000
     25 N3         0.7664    0.1997    2.7581 N.3       1 RES1    0.0000
     26 O1         3.0618    3.3611    1.3287 O.2       1 RES1    0.0000
     27 O2         3.0713    2.4544   -0.4786 O.2       1 RES1    0.0000
     28 O3         3.8358   -1.2509    5.0119 O.2       1 RES1    0.0000
     29 O4         5.2195   -1.2608    3.3706 O.2       1 RES1    0.0000
     30 O5         1.0892   -2.0330    0.2409 O.2       1 RES1    0.0000
@<TRIPOS>BOND
     1    1    2 1
     2    2    3 1
     3    3    4 1
     4    4    5 1
     5    5    6 1
     6    6   17 1
     7    7    1 1
     8    8    1 1
     9    9   10 1
    10   11    9 1
    11   12    9 1
    12   13    2 1
    13   14    2 1
    14   15    4 1
    15   16    4 1
    16   18    6 1
    17   19    7 1
    18   20    7 1
    19   21    8 1
    20   22    8 1
    21   23    1 1
    22   24    5 1
    23   25    6 1
    24   26   23 2
    25   27   23 2
    26   28   24 2
    27   29   24 2
    28   30    3 2
    29    5    8 1
    30    7   25 1
    31    9   25 1
@<TRIPOS>SUBSTRUCTURE
     1 RES1 1

@<TRIPOS>CRYSIN
  18.8770   11.0310   10.7070  90.0000  90.0000  90.0000  56 1

