# MOL2 file generated by ConQuest
# Please check atom types

@<TRIPOS>MOLECULE
NMZNON
    30    31     1
SMALL
NO_CHARGES
****
Generated from CSD

@<TRIPOS>ATOM
      1 C1         1.3069    3.0026    2.5444 C.3       1 RES1    0.0000
      2 C2         0.8806    4.4422    2.4108 C.3       1 RES1    0.0000
      3 C3        -0.5955    4.5799    2.0536 C.2       1 RES1    0.0000
      4 C4        -1.1772    3.5938    1.1213 C.3       1 RES1    0.0000
      5 C5        -0.6082    2.1826    1.3109 C.3       1 RES1    0.0000
      6 C6        -1.1309    1.5529    2.6032 C.3       1 RES1    0.0000
      7 C7         0.7854    2.3406    3.8159 C.3       1 RES1    0.0000
      8 C8         0.9117    2.1867    1.3137 C.3       1 RES1    0.0000
      9 C9        -1.3174    1.9579    4.9531 C.3       1 RES1    0.0000
     10 H1        -2.2496    2.1057    4.7551 H         1 RES1    0.0000
     11 H2        -0.9912    2.5106    5.5650 H         1 RES1    0.0000
     12 H3        -1.1270    1.0326    5.1358 H         1 RES1    0.0000
     13 H4         1.0501    4.9808    3.2255 H         1 RES1    0.0000
     14 H5         1.4926    4.9200    1.6404 H         1 RES1    0.0000
     15 H6        -2.0598    3.6040    1.0936 H         1 RES1    0.0000
     16 H7        -0.9742    3.8469    0.3392 H         1 RES1    0.0000
     17 H8         1.2559    2.6929    0.5399 H         1 RES1    0.0000
     18 H9         1.2107    1.3161    1.3566 H         1 RES1    0.0000
     19 H10       -0.8176    0.5872    2.7963 H         1 RES1    0.0000
     20 H11       -1.9921    1.4578    2.5402 H         1 RES1    0.0000
     21 H12        1.0816    2.9156    4.6305 H         1 RES1    0.0000
     22 H13        1.1355    1.4578    3.8484 H         1 RES1    0.0000
     23 N1         2.8631    2.9277    2.5921 N.pl3     1 RES1    0.0000
     24 N2        -1.0931    1.3586    0.1301 N.pl3     1 RES1    0.0000
     25 N3        -0.6695    2.3810    3.7190 N.3       1 RES1    0.0000
     26 O1         3.4826    3.9016    2.3831 O.2       1 RES1    0.0000
     27 O2         3.3584    1.8931    2.8911 O.2       1 RES1    0.0000
     28 O3        -0.3603    1.2371   -0.8195 O.2       1 RES1    0.0000
     29 O4        -2.2034    0.8868    0.1834 O.2       1 RES1    0.0000
     30 O5        -1.2328    5.5133    2.4890 O.2       1 RES1    0.0000
@<TRIPOS>BOND
     1    1    2 1
     2    2    3 1
     3    3    4 1
     4    4    5 1
     5    5    6 1
     6    6   19 1
     7    7    1 1
     8    8    1 1
     9    9   10 1
    10   11    9 1
    11   12    9 1
    12   13    2 1
    13   14    2 1
    14   15    4 1
    15   16    4 1
    16   17    8 1
    17   18    8 1
    18   20    6 1
    19   21    7 1
    20   22    7 1
    21   23    1 1
    22   24    5 1
    23   25    6 1
    24   26   23 2
    25   27   23 2
    26   28   24 2
    27   29   24 2
    28   30    3 2
    29    5    8 1
    30    7   25 1
    31    9   25 1
@<TRIPOS>SUBSTRUCTURE
     1 RES1 1

@<TRIPOS>CRYSIN
   8.0180   20.2470    8.3460  90.0000 123.9700  90.0000  14 1

