# MOL2 file generated by ConQuest
# Please check atom types

@<TRIPOS>MOLECULE
NNAPAN10
    25    27     1
SMALL
NO_CHARGES
****
Generated from CSD

@<TRIPOS>ATOM
      1 C1        -1.2182   -6.3930   -7.9073 C.ar      1 RES1    0.0000
      2 C2        -2.1923   -2.8334   -7.5480 C.ar      1 RES1    0.0000
      3 C3        -1.3404   -7.4250   -8.9413 C.2       1 RES1    0.0000
      4 C4        -2.1289   -5.8316  -10.4992 C.2       1 RES1    0.0000
      5 C5        -0.6655   -6.7067   -6.7011 C.ar      1 RES1    0.0000
      6 C6        -0.5903   -5.7496   -5.7033 C.ar      1 RES1    0.0000
      7 C7        -1.1112   -4.5078   -5.9206 C.ar      1 RES1    0.0000
      8 C8        -1.6644   -4.0945   -7.1540 C.ar      1 RES1    0.0000
      9 C9        -1.6948   -5.0922   -8.1579 C.ar      1 RES1    0.0000
     10 C10       -2.1858   -4.8075   -9.4440 C.ar      1 RES1    0.0000
     11 C11       -2.7029   -3.5939   -9.7490 C.ar      1 RES1    0.0000
     12 C12       -2.7218   -2.6051   -8.7858 C.ar      1 RES1    0.0000
     13 H1        -0.3894   -7.5175   -6.5516 H         1 RES1    0.0000
     14 H2        -0.1304   -5.9576   -4.8609 H         1 RES1    0.0000
     15 H3        -3.0154   -3.4283  -10.6125 H         1 RES1    0.0000
     16 H4        -2.9912   -1.8331   -8.9217 H         1 RES1    0.0000
     17 N1        -1.1520   -3.6354   -4.7311 N.pl3     1 RES1    0.0000
     18 N2        -2.1248   -1.6657   -6.6543 N.pl3     1 RES1    0.0000
     19 O1        -1.1155   -8.5936   -8.8432 O.2       1 RES1    0.0000
     20 O2        -1.7415   -7.0689  -10.2094 O.3       1 RES1    0.0000
     21 O3        -2.4212   -5.6861  -11.6631 O.2       1 RES1    0.0000
     22 O4        -0.1088   -3.4847   -4.1031 O.2       1 RES1    0.0000
     23 O5        -2.2281   -3.1612   -4.4095 O.2       1 RES1    0.0000
     24 O6        -3.1458   -1.0064   -6.5003 O.2       1 RES1    0.0000
     25 O7        -1.0392   -1.3995   -6.1441 O.2       1 RES1    0.0000
@<TRIPOS>BOND
     1    1    3 1
     2    2    8 ar
     3    3   19 2
     4    4   10 1
     5    5    1 ar
     6    6    5 ar
     7    7    6 ar
     8    8    7 ar
     9    9    1 ar
    10   10    9 ar
    11   11   10 ar
    12   12    2 ar
    13   13    5 1
    14   14    6 1
    15   15   11 1
    16   16   12 1
    17   17    7 1
    18   18    2 1
    19   20    3 1
    20   21    4 2
    21   22   17 2
    22   23   17 2
    23   24   18 2
    24   25   18 2
    25    4   20 1
    26    8    9 ar
    27   11   12 ar
@<TRIPOS>SUBSTRUCTURE
     1 RES1 1

@<TRIPOS>CRYSIN
   8.0960    8.8130   15.1100  90.0000  92.4700  90.0000  14 1

