# MOL2 file generated by ConQuest
# Please check atom types

@<TRIPOS>MOLECULE
NNTSED10
    22    21     1
SMALL
NO_CHARGES
****
Generated from CSD

@<TRIPOS>ATOM
      1 C1         3.7906    2.0119   -2.9924 C.3       1 RES1    0.0000
      2 C2         3.7368    3.4826   -3.3003 C.3       1 RES1    0.0000
      3 H1         4.6389    1.7478   -2.8746 H         1 RES1    0.0000
      4 H2         3.3635    1.4836   -3.6984 H         1 RES1    0.0000
      5 H3         4.1514    3.6306   -4.1492 H         1 RES1    0.0000
      6 H4         2.8736    3.8684   -3.2343 H         1 RES1    0.0000
      7 N1         3.0078    1.6610   -1.7798 N.pl3     1 RES1    0.0000
      8 N2         4.5313    4.2583   -2.3379 N.pl3     1 RES1    0.0000
      9 O1         3.1793    0.5614   -1.3186 O.2       1 RES1    0.0000
     10 O2         2.2069    2.4373   -1.3416 O.2       1 RES1    0.0000
     11 O3         5.0003    3.7275   -1.2933 O.2       1 RES1    0.0000
     12 N2B        4.7003    5.5277   -2.5835 N.pl3     1 RES1    0.0000
     13 C2B        5.4948    6.3034   -1.6211 C.3       1 RES1    0.0000
     14 O3B        4.2313    6.0585   -3.6281 O.2       1 RES1    0.0000
     15 C1B        5.4409    7.7741   -1.9290 C.3       1 RES1    0.0000
     16 H3B        5.0801    6.1554   -0.7722 H         1 RES1    0.0000
     17 H4B        6.3580    5.9176   -1.6871 H         1 RES1    0.0000
     18 H1B        4.5927    8.0382   -2.0468 H         1 RES1    0.0000
     19 H2B        5.8680    8.3024   -1.2230 H         1 RES1    0.0000
     20 N1B        6.2238    8.1250   -3.1416 N.pl3     1 RES1    0.0000
     21 O1B        6.0523    9.2246   -3.6028 O.2       1 RES1    0.0000
     22 O2B        7.0246    7.3487   -3.5798 O.2       1 RES1    0.0000
@<TRIPOS>BOND
     1    1    2 1
     2    2    5 1
     3    3    1 1
     4    4    1 1
     5    6    2 1
     6    7    1 1
     7    8    2 1
     8    9    7 2
     9   10    7 2
    10   11    8 2
    11   12    8 1
    12   13   12 1
    13   14   12 2
    14   15   13 1
    15   16   13 1
    16   17   13 1
    17   18   15 1
    18   19   15 1
    19   20   15 1
    20   21   20 2
    21   22   20 2
@<TRIPOS>SUBSTRUCTURE
     1 RES1 1

@<TRIPOS>CRYSIN
   8.7490    9.7860    4.9450  90.0000  95.6000  90.0000 231 1

