# MOL2 file generated by ConQuest
# Please check atom types

@<TRIPOS>MOLECULE
NOACTD
    11    10     1
SMALL
NO_CHARGES
****
Generated from CSD

@<TRIPOS>ATOM
      1 O1        -0.6631    1.9545    4.0443 O.2       1 RES1    0.0000
      2 O2        -0.2901    1.3343    7.1826 O.2       1 RES1    0.0000
      3 O3         1.5121    1.2267    6.0553 O.2       1 RES1    0.0000
      4 N1        -0.4285    4.1808    3.8382 N.am      1 RES1    0.0000
      5 N2         0.5142    1.8069    6.4179 N.pl3     1 RES1    0.0000
      6 C1        -0.3194    3.0407    4.4837 C.2       1 RES1    0.0000
      7 C2         0.2696    3.1668    5.8836 C.3       1 RES1    0.0000
      8 H1        -0.1663    4.9148    4.1837 H         1 RES1    0.0000
      9 H2        -0.7616    4.1767    2.9716 H         1 RES1    0.0000
     10 H3        -0.3732    3.5887    6.4755 H         1 RES1    0.0000
     11 H4         1.1269    3.6415    5.8432 H         1 RES1    0.0000
@<TRIPOS>BOND
     1    1    6 2
     2    2    5 2
     3    3    5 2
     4    4    6 1
     5    5    7 1
     6    6    7 1
     7    7   10 1
     8    8    4 1
     9    9    4 1
    10   11    7 1
@<TRIPOS>SUBSTRUCTURE
     1 RES1 1

@<TRIPOS>CRYSIN
   8.3850    5.1260   10.8120  90.0000 110.9000  90.0000  14 1

