# MOL2 file generated by ConQuest
# Please check atom types

@<TRIPOS>MOLECULE
NOBSEE
    45    48     1
SMALL
NO_CHARGES
****
Generated from CSD

@<TRIPOS>ATOM
      1 C1        -0.8832    4.8468    4.1343 C.ar      1 RES1    0.0000
      2 H1        -1.6679    5.2952    4.3574 H         1 RES1    0.0000
      3 C2        -0.7085    3.5904    4.5828 C.ar      1 RES1    0.0000
      4 H2        -1.3556    3.1937    5.1223 H         1 RES1    0.0000
      5 C3         0.4099    2.9003    4.2491 C.ar      1 RES1    0.0000
      6 H3         0.5231    2.0258    4.5438 H         1 RES1    0.0000
      7 C4         1.3741    3.4889    3.4777 C.ar      1 RES1    0.0000
      8 H4         2.1490    3.0240    3.2610 H         1 RES1    0.0000
      9 C5         1.1916    4.7675    3.0249 C.ar      1 RES1    0.0000
     10 H5         1.8426    5.1494    2.4810 H         1 RES1    0.0000
     11 C6         0.0712    5.5092    3.3455 C.ar      1 RES1    0.0000
     12 C7        -0.1405    6.8985    2.9057 C.2       1 RES1    0.0000
     13 C8         0.7212    7.9852    2.6890 C.2       1 RES1    0.0000
     14 C9        -0.1347    9.0479    2.3640 C.2       1 RES1    0.0000
     15 C10        0.1200   10.4040    2.0346 C.ar      1 RES1    0.0000
     16 C11        0.9867   10.8135    1.0466 C.ar      1 RES1    0.0000
     17 H6         1.4883   10.1678    0.6024 H         1 RES1    0.0000
     18 C12        1.1487   12.1235    0.6847 C.ar      1 RES1    0.0000
     19 H7         1.7216   12.3633   -0.0087 H         1 RES1    0.0000
     20 C13        0.4353   13.0755    1.3781 C.ar      1 RES1    0.0000
     21 H8         0.5416   13.9722    1.1592 H         1 RES1    0.0000
     22 C14       -0.4265   12.7287    2.3878 C.ar      1 RES1    0.0000
     23 H9        -0.8949   13.3873    2.8472 H         1 RES1    0.0000
     24 C15       -0.5963   11.4003    2.7150 C.ar      1 RES1    0.0000
     25 H10       -1.1877   11.1622    3.3932 H         1 RES1    0.0000
     26 C16        2.2095    8.0405    2.9555 C.3       1 RES1    0.0000
     27 H11        2.2544    9.0073    2.7908 H         1 RES1    0.0000
     28 C17        3.1152    7.7176    1.7854 C.ar      1 RES1    0.0000
     29 C18        4.4874    7.8763    1.9328 C.ar      1 RES1    0.0000
     30 H12        4.8368    8.1623    2.7453 H         1 RES1    0.0000
     31 C19        5.3247    7.6143    0.8884 C.ar      1 RES1    0.0000
     32 H13        6.2431    7.6955    1.0054 H         1 RES1    0.0000
     33 C20        4.8368    7.2379   -0.3185 C.ar      1 RES1    0.0000
     34 H14        5.4126    7.0737   -1.0314 H         1 RES1    0.0000
     35 C21        3.4861    7.1014   -0.4767 C.ar      1 RES1    0.0000
     36 H15        3.1455    6.8560   -1.3066 H         1 RES1    0.0000
     37 C22        2.6272    7.3210    0.5612 C.ar      1 RES1    0.0000
     38 H16        1.7128    7.2010    0.4399 H         1 RES1    0.0000
     39 C23        2.6048    8.1623    4.1754 C.3       1 RES1    0.0000
     40 H17        3.4831    7.9261    4.3661 H         1 RES1    0.0000
     41 N1        -1.4024    8.6309    2.3488 N.2       1 RES1    0.0000
     42 N2         1.7977    8.6309    5.2588 N.pl3     1 RES1    0.0000
     43 O1        -1.4102    7.2619    2.6955 O.3       1 RES1    0.0000
     44 O2         1.1936    7.6863    5.7767 O.2       1 RES1    0.0000
     45 O3         1.6581    9.6457    5.6012 O.2       1 RES1    0.0000
@<TRIPOS>BOND
     1    1    2 1
     2    3    1 ar
     3    4    3 1
     4    5    3 ar
     5    6    5 1
     6    7    5 ar
     7    8    7 1
     8    9    7 ar
     9   10    9 1
    10   11    1 ar
    11   12   11 1
    12   13   12 2
    13   14   13 1
    14   15   14 1
    15   16   15 ar
    16   17   16 1
    17   18   16 ar
    18   19   18 1
    19   20   18 ar
    20   21   20 1
    21   22   20 ar
    22   23   22 1
    23   24   15 ar
    24   25   24 1
    25   26   13 1
    26   27   26 1
    27   28   26 1
    28   29   28 ar
    29   30   29 1
    30   31   29 ar
    31   32   31 1
    32   33   31 ar
    33   34   33 1
    34   35   33 ar
    35   36   35 1
    36   37   28 ar
    37   38   37 1
    38   39   26 1
    39   40   39 1
    40   41   14 2
    41   42   39 1
    42   43   12 1
    43   44   42 2
    44   45   42 2
    45    9   11 ar
    46   22   24 ar
    47   35   37 ar
    48   41   43 1
@<TRIPOS>SUBSTRUCTURE
     1 RES1 1

@<TRIPOS>CRYSIN
   9.7594   18.4500   21.6680  90.0000  90.0000  90.0000  61 1

