# MOL2 file generated by ConQuest
# Please check atom types

@<TRIPOS>MOLECULE
NOCNET
     8     7     1
SMALL
NO_CHARGES
****
Generated from CSD

@<TRIPOS>ATOM
      1 O1         0.8743    6.0597    4.5798 O.2       1 RES1    0.0000
      2 O2         1.5428    7.9192    3.6594 O.2       1 RES1    0.0000
      3 N1         1.0912    6.7337    3.5817 N.pl3     1 RES1    0.0000
      4 N2         0.9369    6.2451    2.3484 N.3       1 RES1    0.0000
      5 N3        -2.2289    6.5959    0.4938 N.1       1 RES1    0.0000
      6 C1         0.2968    4.9455    2.2296 C.3       1 RES1    0.0000
      7 C2        -1.2880    5.0548    2.4087 C.3       1 RES1    0.0000
      8 C3        -1.8166    5.9361    1.3355 C.1       1 RES1    0.0000
@<TRIPOS>BOND
     1    1    3 2
     2    2    3 2
     3    3    4 1
     4    4    6 1
     5    5    8 3
     6    6    7 1
     7    7    8 1
@<TRIPOS>SUBSTRUCTURE
     1 RES1 1

@<TRIPOS>CRYSIN
   6.4300    9.8900    8.7400  90.0000  90.0000 106.0000  14 3

