# MOL2 file generated by ConQuest
# Please check atom types

@<TRIPOS>MOLECULE
NOCWIM
    63    64     2
SMALL
NO_CHARGES
****
Generated from CSD

@<TRIPOS>ATOM
      1 C1        14.0946    6.3318    7.8611 C.2       1 RES1    0.0000
      2 C2        12.7361    6.3526    8.5511 C.3       1 RES1    0.0000
      3 H1        12.0502    6.0023    7.9128 H         1 RES1    0.0000
      4 C3        12.9908    5.2866    9.6222 C.3       1 RES1    0.0000
      5 H2        12.8745    4.3978    9.1799 H         1 RES1    0.0000
      6 C4        14.4804    5.4199    9.9693 C.3       1 RES1    0.0000
      7 C5        16.4124    5.5292    8.2667 C.3       1 RES1    0.0000
      8 H3        16.9337    6.0813    8.9022 H         1 RES1    0.0000
      9 H4        16.5402    5.9082    7.3602 H         1 RES1    0.0000
     10 C6        16.9517    4.1074    8.2884 C.ar      1 RES1    0.0000
     11 C7        18.2888    3.8808    8.5538 C.ar      1 RES1    0.0000
     12 H5        18.8554    4.6228    8.7335 H         1 RES1    0.0000
     13 C8        18.8294    2.6026    8.5688 C.ar      1 RES1    0.0000
     14 H6        19.7572    2.4702    8.7185 H         1 RES1    0.0000
     15 C9        17.9850    1.5231    8.3592 C.ar      1 RES1    0.0000
     16 C10       16.6333    1.7210    8.0965 C.ar      1 RES1    0.0000
     17 H7        16.0568    0.9782    7.9604 H         1 RES1    0.0000
     18 C11       16.1352    3.0087    8.0353 C.ar      1 RES1    0.0000
     19 H8        15.2207    3.1460    7.8189 H         1 RES1    0.0000
     20 C12       19.7911   -0.0439    8.5593 C.3       1 RES1    0.0000
     21 H9        20.2787    0.2920    7.7781 H         1 RES1    0.0000
     22 H10       19.9410   -1.0077    8.6477 H         1 RES1    0.0000
     23 H11       20.1114    0.4133    9.3650 H         1 RES1    0.0000
     24 C13       12.3009    7.7408    9.0152 C.3       1 RES1    0.0000
     25 H12       12.9658    8.0999    9.6399 H         1 RES1    0.0000
     26 H13       11.4311    7.6786    9.4616 H         1 RES1    0.0000
     27 H14       12.2273    8.3352    8.2394 H         1 RES1    0.0000
     28 C14       12.4928    4.1281   11.5807 C.3       1 RES1    0.0000
     29 C15       11.8718    4.4146   12.9308 C.3       1 RES1    0.0000
     30 H15       12.1025    3.6949   13.5555 H         1 RES1    0.0000
     31 H16       10.8973    4.4656   12.8369 H         1 RES1    0.0000
     32 H17       12.2129    5.2667   13.2737 H         1 RES1    0.0000
     33 C16       11.9625    2.8252   10.9832 C.3       1 RES1    0.0000
     34 H18       12.3343    2.7031   10.0836 H         1 RES1    0.0000
     35 H19       10.9841    2.8643   10.9301 H         1 RES1    0.0000
     36 H20       12.2287    2.0728   11.5507 H         1 RES1    0.0000
     37 C17       14.7968    4.0970   10.6987 C.3       1 RES1    0.0000
     38 H21       14.6427    3.3239   10.0999 H         1 RES1    0.0000
     39 H22       15.7407    4.0826   10.9995 H         1 RES1    0.0000
     40 C18       14.8652    6.6893   10.8076 C.2       1 RES1    0.0000
     41 C19       14.9831    7.5565   13.1336 C.ar      1 RES1    0.0000
     42 C20       14.9134    8.9097   12.8328 C.ar      1 RES1    0.0000
     43 H23       14.7602    9.1826   11.9359 H         1 RES1    0.0000
     44 C21       15.0636    9.8695   13.8209 C.ar      1 RES1    0.0000
     45 H24       15.0054   10.7895   13.5908 H         1 RES1    0.0000
     46 C22       15.2980    9.5105   15.1397 C.ar      1 RES1    0.0000
     47 H25       15.4001   10.1791   15.8079 H         1 RES1    0.0000
     48 C23       15.3804    8.1844   15.4717 C.ar      1 RES1    0.0000
     49 H26       15.5430    7.9259   16.3714 H         1 RES1    0.0000
     50 C24       15.2248    7.2246   14.4877 C.ar      1 RES1    0.0000
     51 N1        14.9987    5.6066    8.6178 N.am      1 RES1    0.0000
     52 N2        14.7726    6.5504   12.1700 N.am      1 RES1    0.0000
     53 H27       14.5589    5.7518   12.4735 H         1 RES1    0.0000
     54 N3        15.3392    5.8475   14.9314 N.pl3     1 RES1    0.0000
     55 O1        18.3960    0.2074    8.3910 O.3       1 RES1    0.0000
     56 O2        14.3480    6.8504    6.7796 O.2       1 RES1    0.0000
     57 O3        12.1735    5.2810   10.7694 O.3       1 RES1    0.0000
     58 O4        13.9022    4.0483   11.8289 O.3       1 RES1    0.0000
     59 O5        15.2331    7.6930   10.2483 O.2       1 RES1    0.0000
     60 O6        15.8125    5.6249   15.9739 O.2       1 RES1    0.0000
     61 O7        15.3388    5.4653   16.0161 Du        2 SUP2    0.0000
     62 O8        14.4675    5.0082   14.4415 O.2       1 RES1    0.0000
     63 O9        16.0989    5.0816   14.0141 Du        2 SUP2    0.0000
@<TRIPOS>BOND
     1    1    2 1
     2    2    3 1
     3    4    2 1
     4    5    4 1
     5    6    4 1
     6    7    8 1
     7    9    7 1
     8   10    7 1
     9   11   10 ar
    10   12   11 1
    11   13   11 ar
    12   14   13 1
    13   15   13 ar
    14   16   15 ar
    15   17   16 1
    16   18   10 ar
    17   19   18 1
    18   20   21 1
    19   22   20 1
    20   23   20 1
    21   24    2 1
    22   25   24 1
    23   26   24 1
    24   27   24 1
    25   28   29 1
    26   29   30 1
    27   31   29 1
    28   32   29 1
    29   33   28 1
    30   34   33 1
    31   35   33 1
    32   36   33 1
    33   37    6 1
    34   38   37 1
    35   39   37 1
    36   40    6 1
    37   41   42 ar
    38   42   43 1
    39   44   42 ar
    40   45   44 1
    41   46   44 ar
    42   47   46 1
    43   48   46 ar
    44   49   48 1
    45   50   41 ar
    46   51    1 1
    47   52   40 1
    48   53   52 1
    49   54   50 1
    50   55   15 1
    51   56    1 2
    52   57    4 1
    53   58   28 1
    54   59   40 2
    55   60   54 2
    56   62   54 2
    57    6   51 1
    58    7   51 1
    59   16   18 ar
    60   20   55 1
    61   28   57 1
    62   37   58 1
    63   41   52 1
    64   48   50 ar
@<TRIPOS>SUBSTRUCTURE
     1 RES1 1
     2 SUP2 61

@<TRIPOS>CRYSIN
  20.5404    7.9786   14.1152  90.0000 105.3770  90.0000   5 1

