# MOL2 file generated by ConQuest
# Please check atom types

@<TRIPOS>MOLECULE
NOCZUA
    76    77     1
SMALL
NO_CHARGES
****
Generated from CSD

@<TRIPOS>ATOM
      1 N1         3.0272    4.7427    1.3179 N.pl3     1 RES1    0.0000
      2 H1         3.6039    4.3439    1.8159 H         1 RES1    0.0000
      3 C1         1.8450    4.2144    0.9160 C.2       1 RES1    0.0000
      4 C2         1.1998    5.1453    0.1184 C.2       1 RES1    0.0000
      5 C3         2.0338    6.2981    0.0534 C.2       1 RES1    0.0000
      6 C4         3.1648    6.0142    0.8076 C.2       1 RES1    0.0000
      7 C5         1.4324    2.8337    1.3137 C.3       1 RES1    0.0000
      8 H2         2.2286    2.2810    1.3626 H         1 RES1    0.0000
      9 H3         0.8703    2.4703    0.6119 H         1 RES1    0.0000
     10 C6         0.6704    2.7101    2.6614 C.3       1 RES1    0.0000
     11 N2        -0.6214    3.3880    2.5956 N.am      1 RES1    0.0000
     12 H4        -0.7059    4.2372    2.4898 H         1 RES1    0.0000
     13 C7         0.2237    1.2678    2.8336 C.2       1 RES1    0.0000
     14 C8        -1.1009    1.1830    2.8547 C.2       1 RES1    0.0000
     15 C9        -1.6618    2.5504    2.7165 C.2       1 RES1    0.0000
     16 O1        -2.8568    2.8580    2.7332 O.2       1 RES1    0.0000
     17 C10        1.5047    3.1971    3.8418 C.3       1 RES1    0.0000
     18 H5         2.3559    2.7530    3.8484 H         1 RES1    0.0000
     19 H6         1.0430    3.0145    4.6641 H         1 RES1    0.0000
     20 H7         1.6376    4.1443    3.7532 H         1 RES1    0.0000
     21 C11       -0.1377    4.9524   -0.5478 C.3       1 RES1    0.0000
     22 H8        -0.4855    5.8159   -0.8206 H         1 RES1    0.0000
     23 H9        -0.7592    4.5686    0.0903 H         1 RES1    0.0000
     24 C12       -0.0452    4.0480   -1.7584 C.2       1 RES1    0.0000
     25 O2        -0.0902    2.8522   -1.7201 O.2       1 RES1    0.0000
     26 O3         0.0702    4.7318   -2.8837 O.3       1 RES1    0.0000
     27 C13        0.1759    3.9439   -4.0985 C.3       1 RES1    0.0000
     28 H10        0.0757    4.6062   -4.7862 H         1 RES1    0.0000
     29 H11       -0.5346    3.3021   -4.1672 H         1 RES1    0.0000
     30 H12        1.0203    3.4987   -4.2024 H         1 RES1    0.0000
     31 C14        1.7469    7.5675   -0.6985 C.3       1 RES1    0.0000
     32 H13        2.2580    8.2884   -0.2983 H         1 RES1    0.0000
     33 H14        0.8064    7.7829   -0.5979 H         1 RES1    0.0000
     34 C15        2.0776    7.5013   -2.1886 C.3       1 RES1    0.0000
     35 H15        1.7304    6.6704   -2.5492 H         1 RES1    0.0000
     36 H16        1.6261    8.2303   -2.6417 H         1 RES1    0.0000
     37 C16        3.5304    7.5812   -2.4848 C.2       1 RES1    0.0000
     38 O4         4.3434    8.1645   -1.8308 O.2       1 RES1    0.0000
     39 O5         3.8370    6.9613   -3.6228 O.3       1 RES1    0.0000
     40 C17        5.1954    7.0438   -4.0741 C.3       1 RES1    0.0000
     41 H17        5.2608    6.4743   -4.8442 H         1 RES1    0.0000
     42 H18        5.7991    6.7340   -3.3951 H         1 RES1    0.0000
     43 H19        5.4245    7.9417   -4.3225 H         1 RES1    0.0000
     44 C18        1.2135    0.1534    2.9560 C.3       1 RES1    0.0000
     45 H20        2.0677    0.4591    2.6127 H         1 RES1    0.0000
     46 H21        0.9202   -0.5834    2.3972 H         1 RES1    0.0000
     47 C19        1.4142   -0.3569    4.3554 C.2       1 RES1    0.0000
     48 O6         0.7159   -0.1354    5.2946 O.2       1 RES1    0.0000
     49 O7         2.4838   -1.1394    4.4057 O.3       1 RES1    0.0000
     50 C20        2.7822   -1.7568    5.6757 C.3       1 RES1    0.0000
     51 H22        3.6032   -2.2428    5.5749 H         1 RES1    0.0000
     52 H23        2.0735   -2.3671    5.8937 H         1 RES1    0.0000
     53 H24        2.8766   -1.1131    6.3802 H         1 RES1    0.0000
     54 C21       -1.9746   -0.0315    2.9576 C.3       1 RES1    0.0000
     55 H25       -2.7520    0.1766    3.4992 H         1 RES1    0.0000
     56 H26       -1.4845   -0.7433    3.3982 H         1 RES1    0.0000
     57 C22       -2.4285   -0.5064    1.5870 C.3       1 RES1    0.0000
     58 H27       -2.8891    0.2289    1.1537 H         1 RES1    0.0000
     59 H28       -1.6373   -0.6992    1.0605 H         1 RES1    0.0000
     60 C23       -3.3189   -1.7030    1.5319 C.2       1 RES1    0.0000
     61 O8        -4.2044   -1.8662    0.7713 O.2       1 RES1    0.0000
     62 O9        -2.9922   -2.5960    2.4645 O.3       1 RES1    0.0000
     63 C24       -3.8002   -3.8159    2.4138 C.3       1 RES1    0.0000
     64 H29       -3.4229   -4.4022    3.0742 H         1 RES1    0.0000
     65 H30       -3.8052   -4.2556    1.5609 H         1 RES1    0.0000
     66 H31       -4.7000   -3.5896    2.6643 H         1 RES1    0.0000
     67 C25        4.3071    6.8333    1.0620 C.2       1 RES1    0.0000
     68 H32        4.3262    7.7007    0.7272 H         1 RES1    0.0000
     69 N3         5.3056    6.4057    1.7381 N.2       1 RES1    0.0000
     70 O10        6.2758    7.4814    1.8112 O.3       1 RES1    0.0000
     71 C26        7.2907    7.2191    2.6695 C.2       1 RES1    0.0000
     72 O11        7.3959    6.2131    3.2903 O.2       1 RES1    0.0000
     73 C27        8.2268    8.3750    2.7171 C.3       1 RES1    0.0000
     74 H33        9.1145    8.0103    2.6871 H         1 RES1    0.0000
     75 H34        8.0956    8.8303    3.5524 H         1 RES1    0.0000
     76 H35        8.1098    8.9954    1.9936 H         1 RES1    0.0000
@<TRIPOS>BOND
     1    1    2 1
     2    3    1 1
     3    4    3 2
     4    5    4 1
     5    6    1 1
     6    7    3 1
     7    8    7 1
     8    9    7 1
     9   10    7 1
    10   11   10 1
    11   12   11 1
    12   13   10 1
    13   14   13 2
    14   15   11 1
    15   16   15 2
    16   17   10 1
    17   18   17 1
    18   19   17 1
    19   20   17 1
    20   21    4 1
    21   22   21 1
    22   23   21 1
    23   24   21 1
    24   25   24 2
    25   26   24 1
    26   27   26 1
    27   28   27 1
    28   29   27 1
    29   30   27 1
    30   31    5 1
    31   32   31 1
    32   33   31 1
    33   34   31 1
    34   35   34 1
    35   36   34 1
    36   37   34 1
    37   38   37 2
    38   39   37 1
    39   40   39 1
    40   41   40 1
    41   42   40 1
    42   43   40 1
    43   44   13 1
    44   45   44 1
    45   46   44 1
    46   47   44 1
    47   48   47 2
    48   49   47 1
    49   50   49 1
    50   51   50 1
    51   52   50 1
    52   53   50 1
    53   54   14 1
    54   55   54 1
    55   56   54 1
    56   57   54 1
    57   58   57 1
    58   59   57 1
    59   60   57 1
    60   61   60 2
    61   62   60 1
    62   63   62 1
    63   64   63 1
    64   65   63 1
    65   66   63 1
    66   67    6 1
    67   68   67 1
    68   69   67 2
    69   70   69 1
    70   71   70 1
    71   72   71 2
    72   73   71 1
    73   74   73 1
    74   75   73 1
    75   76   73 1
    76    5    6 2
    77   14   15 1
@<TRIPOS>SUBSTRUCTURE
     1 RES1 1

@<TRIPOS>CRYSIN
   7.5170   18.5510   20.7600  90.0000  94.3000  90.0000  14 1

