# MOL2 file generated by ConQuest
# Please check atom types

@<TRIPOS>MOLECULE
NODBUF
    45    47     1
SMALL
NO_CHARGES
****
Generated from CSD

@<TRIPOS>ATOM
      1 O1        10.5404    4.6226    9.7130 O.3       1 RES1    0.0000
      2 H1        10.3648    4.6027   10.5129 H         1 RES1    0.0000
      3 O2        13.8421    8.1184   10.7223 O.3       1 RES1    0.0000
      4 N1        11.9171    4.8722    9.5392 N.2       1 RES1    0.0000
      5 N2        13.8172    6.6919    8.5512 N.pl3     1 RES1    0.0000
      6 H2        13.1832    6.8341    9.2091 H         1 RES1    0.0000
      7 C1        13.9598    5.2125    6.5515 C.3       1 RES1    0.0000
      8 H3        14.8789    5.4069    6.2714 H         1 RES1    0.0000
      9 C2        13.7298    5.2868    8.0725 C.3       1 RES1    0.0000
     10 C3        12.2571    4.9105    8.3211 C.2       1 RES1    0.0000
     11 C4        11.3013    4.7051    7.1627 C.3       1 RES1    0.0000
     12 H4        10.8738    3.8383    7.2474 H         1 RES1    0.0000
     13 H5        10.6085    5.3840    7.1924 H         1 RES1    0.0000
     14 C5        12.0190    4.7809    5.8390 C.3       1 RES1    0.0000
     15 H6        11.4555    4.6520    5.0480 H         1 RES1    0.0000
     16 C6        13.3247    3.9546    5.8633 C.3       1 RES1    0.0000
     17 C7        12.8816    6.0564    5.8335 C.3       1 RES1    0.0000
     18 H7        12.5234    6.7825    6.3683 H         1 RES1    0.0000
     19 H8        13.1374    6.3605    4.9489 H         1 RES1    0.0000
     20 C8        13.2900    2.5922    6.5190 C.3       1 RES1    0.0000
     21 H9        12.9547    2.6777    7.4157 H         1 RES1    0.0000
     22 H10       14.1756    2.2248    6.5410 H         1 RES1    0.0000
     23 H11       12.7140    2.0105    6.0173 H         1 RES1    0.0000
     24 C9        13.9138    3.7889    4.4604 C.3       1 RES1    0.0000
     25 H12       14.7998    3.4266    4.5253 H         1 RES1    0.0000
     26 H13       13.9483    4.6439    4.0247 H         1 RES1    0.0000
     27 H14       13.3611    3.1932    3.9499 H         1 RES1    0.0000
     28 C10       14.6948    4.3832    8.8427 C.3       1 RES1    0.0000
     29 H15       15.5984    4.6491    8.6579 H         1 RES1    0.0000
     30 H16       14.5679    3.4715    8.5677 H         1 RES1    0.0000
     31 H17       14.5251    4.4606    9.7835 H         1 RES1    0.0000
     32 C11       15.0154    7.3385    8.8735 C.ar      1 RES1    0.0000
     33 C12       16.1761    7.3024    8.1122 C.ar      1 RES1    0.0000
     34 H18       16.1980    6.7950    7.3332 H         1 RES1    0.0000
     35 C13       17.3200    8.0219    8.5039 C.ar      1 RES1    0.0000
     36 H19       18.0987    7.9623    7.9999 H         1 RES1    0.0000
     37 C14       17.2913    8.8033    9.6151 C.ar      1 RES1    0.0000
     38 H20       18.0447    9.2901    9.8594 H         1 RES1    0.0000
     39 C15       16.1559    8.8755   10.3787 C.ar      1 RES1    0.0000
     40 H21       16.1389    9.4189   11.1335 H         1 RES1    0.0000
     41 C16       15.0279    8.1398   10.0277 C.ar      1 RES1    0.0000
     42 C17       13.7651    8.7436   11.9796 C.3       1 RES1    0.0000
     43 H22       14.5135    8.4734   12.5176 H         1 RES1    0.0000
     44 H23       12.9483    8.4888   12.4142 H         1 RES1    0.0000
     45 H24       13.7820    9.6966   11.8640 H         1 RES1    0.0000
@<TRIPOS>BOND
     1    1    2 1
     2    3   41 1
     3    4    1 1
     4    5    6 1
     5    7    8 1
     6    9    5 1
     7   10    4 2
     8   11   10 1
     9   12   11 1
    10   13   11 1
    11   14   11 1
    12   15   14 1
    13   16    7 1
    14   17    7 1
    15   18   17 1
    16   19   17 1
    17   20   16 1
    18   21   20 1
    19   22   20 1
    20   23   20 1
    21   24   16 1
    22   25   24 1
    23   26   24 1
    24   27   24 1
    25   28    9 1
    26   29   28 1
    27   30   28 1
    28   31   28 1
    29   32    5 1
    30   33   32 ar
    31   34   33 1
    32   35   33 ar
    33   36   35 1
    34   37   35 ar
    35   38   37 1
    36   39   37 ar
    37   40   39 1
    38   41   32 ar
    39   42    3 1
    40   43   42 1
    41   44   42 1
    42   45   42 1
    43    7    9 1
    44    9   10 1
    45   14   16 1
    46   14   17 1
    47   39   41 ar
@<TRIPOS>SUBSTRUCTURE
     1 RES1 1

@<TRIPOS>CRYSIN
  20.3420    7.3643   14.0772  90.0000 128.5940  90.0000   5 1

