# MOL2 file generated by ConQuest
# Please check atom types

@<TRIPOS>MOLECULE
NODTIJ
    34    34     2
SMALL
NO_CHARGES
****
Generated from CSD

@<TRIPOS>ATOM
      1 C1        -1.1114   11.9032    1.9950 C.ar      1 RES1    0.0000
      2 C2        -0.0232    4.9906    5.1947 C.ar      2 RES2    0.0000
      3 C3         0.6473    4.1060    4.3728 C.ar      2 RES2    0.0000
      4 C4        -0.2232   12.7247    2.6762 C.ar      1 RES1    0.0000
      5 C5         1.5736    4.5780    3.4663 C.ar      2 RES2    0.0000
      6 C6        -0.0460   12.5305    4.0248 C.ar      1 RES1    0.0000
      7 C7         1.7368    5.9517    3.3955 C.ar      2 RES2    0.0000
      8 C8        -0.7604   11.5493    4.6669 C.ar      1 RES1    0.0000
      9 C9         1.0523    6.8352    4.1592 C.ar      2 RES2    0.0000
     10 C10       -1.6458   10.7440    4.0090 C.ar      1 RES1    0.0000
     11 C11       -1.8140   10.9212    2.6688 C.ar      1 RES1    0.0000
     12 C12        0.1505    6.3556    5.0742 C.ar      2 RES2    0.0000
     13 N1         0.4656    2.7101    4.5262 N.3       2 RES2    0.0000
     14 N2         0.4104   13.7375    1.9907 N.3       1 RES1    0.0000
     15 N3         2.7234    6.4638    2.4519 N.pl3     2 RES2    0.0000
     16 N4        -0.5419   11.3499    6.0896 N.pl3     1 RES1    0.0000
     17 O1        -0.8720    4.4227    6.0716 O.3       2 RES2    0.0000
     18 O2        -1.2240   12.1209    0.6632 O.3       1 RES1    0.0000
     19 O3        -1.2790   10.5938    6.6894 O.2       1 RES1    0.0000
     20 O4         3.3224    5.6874    1.7242 O.2       2 RES2    0.0000
     21 O5         2.9181    7.6914    2.4075 O.2       2 RES2    0.0000
     22 O6         0.3530   11.9713    6.6407 O.2       1 RES1    0.0000
     23 H1        -1.8985   11.5512    0.3279 H         1 RES1    0.0000
     24 H2        -1.3491    5.1128    6.5159 H         2 RES2    0.0000
     25 H3        -0.2786    2.5294    4.8446 H         2 RES2    0.0000
     26 H4         0.4766   13.6072    1.1107 H         1 RES1    0.0000
     27 H5         1.0522   14.0616    2.4117 H         1 RES1    0.0000
     28 H6         0.4845    2.3048    3.7868 H         2 RES2    0.0000
     29 H7         2.1516    4.0767    2.9300 H         2 RES2    0.0000
     30 H8         0.5051   13.1121    4.5061 H         1 RES1    0.0000
     31 H9         1.1286    7.7666    4.0407 H         2 RES2    0.0000
     32 H10       -2.0792   10.0985    4.4532 H         1 RES1    0.0000
     33 H11       -2.2893   10.4340    2.1790 H         1 RES1    0.0000
     34 H12       -0.4058    6.8685    5.6274 H         2 RES2    0.0000
@<TRIPOS>BOND
     1    1    4 ar
     2    2    3 ar
     3    3    5 ar
     4    4    6 ar
     5    5    7 ar
     6    6    8 ar
     7    7    9 ar
     8    8   10 ar
     9    9   12 ar
    10   10   11 ar
    11   11    1 ar
    12   12    2 ar
    13   13    3 1
    14   14    4 1
    15   15    7 1
    16   16    8 1
    17   17    2 1
    18   18    1 1
    19   19   16 2
    20   20   15 2
    21   21   15 2
    22   22   16 2
    23   23   18 1
    24   24   17 1
    25   25   13 1
    26   26   14 1
    27   27   14 1
    28   28   13 1
    29   29    5 1
    30   30    6 1
    31   31    9 1
    32   32   10 1
    33   33   11 1
    34   34   12 1
@<TRIPOS>SUBSTRUCTURE
     1 RES1 1
     2 RES2 2

@<TRIPOS>CRYSIN
   4.5580   27.0520   10.7370  90.0000  99.8800  90.0000  14 1

