# MOL2 file generated by ConQuest
# Please check atom types

@<TRIPOS>MOLECULE
NODXIO
    49    53     1
SMALL
NO_CHARGES
****
Generated from CSD

@<TRIPOS>ATOM
      1 C1         5.3981    6.6251    8.2427 C.ar      1 RES1    0.0000
      2 N1         5.8809    7.8479    7.8526 N.pl3     1 RES1    0.0000
      3 C2         5.0446    8.9128    7.6917 C.ar      1 RES1    0.0000
      4 C3         3.7030    8.7300    7.8906 C.ar      1 RES1    0.0000
      5 H1         3.1337    9.4589    7.7890 H         1 RES1    0.0000
      6 C4         1.6745    7.3217    8.3709 C.3       1 RES1    0.0000
      7 H2         1.2863    7.2406    7.4862 H         1 RES1    0.0000
      8 H3         1.2994    8.1134    8.7874 H         1 RES1    0.0000
      9 C5         1.2942    6.1117    9.1868 C.3       1 RES1    0.0000
     10 H4         0.3391    5.9589    9.1175 H         1 RES1    0.0000
     11 H5         1.5081    6.2679   10.1199 H         1 RES1    0.0000
     12 C6         2.0447    4.8862    8.6889 C.3       1 RES1    0.0000
     13 H6         1.7526    4.1038    9.1811 H         1 RES1    0.0000
     14 H7         1.8472    4.7427    7.7497 H         1 RES1    0.0000
     15 C7         3.5428    5.0732    8.8718 C.3       1 RES1    0.0000
     16 H8         3.7634    4.9462    9.8080 H         1 RES1    0.0000
     17 H9         4.0089    4.3919    8.3634 H         1 RES1    0.0000
     18 C8         4.0335    6.4292    8.4351 C.ar      1 RES1    0.0000
     19 C9         3.1542    7.4953    8.2392 C.ar      1 RES1    0.0000
     20 C10        5.6910   10.1989    7.2565 C.3       1 RES1    0.0000
     21 H10        6.5218   10.3412    7.7567 H         1 RES1    0.0000
     22 C11        5.9789   10.2016    5.7595 C.3       1 RES1    0.0000
     23 H11        6.7408   10.7634    5.5460 H         1 RES1    0.0000
     24 H12        6.1405    9.3039    5.4279 H         1 RES1    0.0000
     25 C12        4.7057   10.7704    5.2031 C.3       1 RES1    0.0000
     26 H13        4.0215   10.0883    5.1220 H         1 RES1    0.0000
     27 H14        4.8523   11.1780    4.3357 H         1 RES1    0.0000
     28 C13        4.3305   11.8002    6.2335 C.3       1 RES1    0.0000
     29 H15        4.7549   12.6498    6.0366 H         1 RES1    0.0000
     30 H16        3.3693   11.9291    6.2516 H         1 RES1    0.0000
     31 C14        6.3975    5.5566    8.3725 C.ar      1 RES1    0.0000
     32 N2         6.6464    5.1331    9.6308 N.pl3     1 RES1    0.0000
     33 C15        7.5285    4.0932    9.8633 C.ar      1 RES1    0.0000
     34 H17        7.6976    3.8223   10.7367 H         1 RES1    0.0000
     35 C16        8.1470    3.4657    8.8412 C.ar      1 RES1    0.0000
     36 H18        8.7240    2.7584    9.0196 H         1 RES1    0.0000
     37 C17        8.5717    3.2547    6.4128 C.ar      1 RES1    0.0000
     38 H19        9.1635    2.5520    6.5595 H         1 RES1    0.0000
     39 C18        8.3337    3.6793    5.1493 C.ar      1 RES1    0.0000
     40 H20        8.7666    3.2690    4.4356 H         1 RES1    0.0000
     41 C19        7.4371    4.7363    4.9082 C.ar      1 RES1    0.0000
     42 H21        7.2691    5.0109    4.0358 H         1 RES1    0.0000
     43 C20        6.8124    5.3615    5.9508 C.ar      1 RES1    0.0000
     44 H22        6.2319    6.0691    5.7842 H         1 RES1    0.0000
     45 C21        7.0420    4.9403    7.2764 C.ar      1 RES1    0.0000
     46 C22        7.9322    3.8672    7.5034 C.ar      1 RES1    0.0000
     47 O1         7.1702    7.9983    7.6319 O.2       1 RES1    0.0000
     48 O2         6.0710    5.6921   10.6628 O.2       1 RES1    0.0000
     49 O3         4.7917   11.2873    7.4860 O.3       1 RES1    0.0000
@<TRIPOS>BOND
     1    1    2 ar
     2    2    3 ar
     3    3    4 ar
     4    4    5 1
     5    6    7 1
     6    8    6 1
     7    9    6 1
     8   10    9 1
     9   11    9 1
    10   12    9 1
    11   13   12 1
    12   14   12 1
    13   15   12 1
    14   16   15 1
    15   17   15 1
    16   18    1 ar
    17   19    4 ar
    18   20    3 1
    19   21   20 1
    20   22   20 1
    21   23   22 1
    22   24   22 1
    23   25   22 1
    24   26   25 1
    25   27   25 1
    26   28   25 1
    27   29   28 1
    28   30   28 1
    29   31    1 1
    30   32   31 ar
    31   33   32 ar
    32   34   33 1
    33   35   33 ar
    34   36   35 1
    35   37   38 1
    36   39   37 ar
    37   40   39 1
    38   41   39 ar
    39   42   41 1
    40   43   41 ar
    41   44   43 1
    42   45   31 ar
    43   46   35 ar
    44   47    2 1
    45   48   32 1
    46   49   20 1
    47    6   19 1
    48   15   18 1
    49   18   19 ar
    50   28   49 1
    51   37   46 ar
    52   43   45 ar
    53   45   46 ar
@<TRIPOS>SUBSTRUCTURE
     1 RES1 1

@<TRIPOS>CRYSIN
   9.3810    9.5083   10.1870  90.0000  97.7200  90.0000   4 1

