# MOL2 file generated by ConQuest
# Please check atom types

@<TRIPOS>MOLECULE
NODXEK
    42    45     1
SMALL
NO_CHARGES
****
Generated from CSD

@<TRIPOS>ATOM
      1 N1        -0.6457    5.0090    4.6790 N.pl3     1 RES1    0.0000
      2 O1         3.5354    5.0900    5.6127 O.2       1 RES1    0.0000
      3 O2         2.4187    4.9610    0.5935 O.2       1 RES1    0.0000
      4 O3        -0.9334    5.0510    5.8616 O.2       1 RES1    0.0000
      5 O4        -1.0614    4.1812    3.9132 O.2       1 RES1    0.0000
      6 C1         0.2372    1.5587    1.3991 C.3       1 RES1    0.0000
      7 C2         0.8508    2.4125    2.4433 C.2       1 RES1    0.0000
      8 C3        -0.0769    2.3535    0.1738 C.3       1 RES1    0.0000
      9 C4         1.0855    3.1904   -0.2563 C.3       1 RES1    0.0000
     10 C5         1.6958    4.0052    0.8380 C.2       1 RES1    0.0000
     11 C6         1.4690    3.5823    2.2224 C.2       1 RES1    0.0000
     12 C7         2.8684    4.0712    5.7202 C.2       1 RES1    0.0000
     13 C8         2.0409    3.6103    4.6171 C.2       1 RES1    0.0000
     14 C9         2.9130    3.2364    6.9647 C.3       1 RES1    0.0000
     15 C10        1.6392    2.4685    7.1901 C.3       1 RES1    0.0000
     16 C11        1.3034    1.6367    5.9736 C.3       1 RES1    0.0000
     17 C12        1.3911    2.4485    4.7335 C.2       1 RES1    0.0000
     18 C13        2.0440    4.4121    3.3388 C.3       1 RES1    0.0000
     19 O5         0.7256    1.8596    3.6893 O.3       1 RES1    0.0000
     20 C14        1.4056    5.7918    3.4993 C.ar      1 RES1    0.0000
     21 C15        2.0986    6.9056    3.0472 C.ar      1 RES1    0.0000
     22 C16        1.6446    8.1944    3.2283 C.ar      1 RES1    0.0000
     23 C17        0.4816    8.4243    3.8925 C.ar      1 RES1    0.0000
     24 C18       -0.2368    7.3615    4.3815 C.ar      1 RES1    0.0000
     25 C19        0.2227    6.0788    4.1591 C.ar      1 RES1    0.0000
     26 H1        -0.5780    1.1618    1.7452 H         1 RES1    0.0000
     27 H2         0.8468    0.8398    1.1694 H         1 RES1    0.0000
     28 H3        -0.8376    2.9294    0.3520 H         1 RES1    0.0000
     29 H4        -0.3216    1.7506   -0.5449 H         1 RES1    0.0000
     30 H5         1.7665    2.6075   -0.6259 H         1 RES1    0.0000
     31 H6         0.7947    3.7872   -0.9617 H         1 RES1    0.0000
     32 H7         3.0752    3.8132    7.7276 H         1 RES1    0.0000
     33 H8         3.6532    2.6125    6.9014 H         1 RES1    0.0000
     34 H9         0.9139    3.0864    7.3712 H         1 RES1    0.0000
     35 H10        1.7408    1.8886    7.9618 H         1 RES1    0.0000
     36 H11        1.9186    0.8888    5.9146 H         1 RES1    0.0000
     37 H12        0.4063    1.2807    6.0634 H         1 RES1    0.0000
     38 H13        2.9851    4.5671    3.1120 H         1 RES1    0.0000
     39 H14        2.9052    6.7776    2.6024 H         1 RES1    0.0000
     40 H15        2.1361    8.9102    2.8940 H         1 RES1    0.0000
     41 H16        0.1756    9.2941    4.0162 H         1 RES1    0.0000
     42 H17       -1.0246    7.5035    4.8557 H         1 RES1    0.0000
@<TRIPOS>BOND
     1    1    4 2
     2    2   12 2
     3    3   10 2
     4    5    1 2
     5    6    7 1
     6    7   11 2
     7    8    6 1
     8    9    8 1
     9   10    9 1
    10   11   10 1
    11   12   13 1
    12   13   17 2
    13   14   12 1
    14   15   14 1
    15   16   15 1
    16   17   16 1
    17   18   11 1
    18   19    7 1
    19   20   18 1
    20   21   20 ar
    21   22   21 ar
    22   23   22 ar
    23   24   23 ar
    24   25    1 1
    25   26    6 1
    26   27    6 1
    27   28    8 1
    28   29    8 1
    29   30    9 1
    30   31    9 1
    31   32   14 1
    32   33   14 1
    33   34   15 1
    34   35   15 1
    35   36   16 1
    36   37   16 1
    37   38   18 1
    38   39   21 1
    39   40   22 1
    40   41   23 1
    41   42   24 1
    42   13   18 1
    43   17   19 1
    44   20   25 ar
    45   24   25 ar
@<TRIPOS>SUBSTRUCTURE
     1 RES1 1

@<TRIPOS>CRYSIN
  10.8090    9.9980   14.8550  90.0000  97.5060  90.0000  14 2

