# MOL2 file generated by ConQuest
# Please check atom types

@<TRIPOS>MOLECULE
NODYIO
    45    47     1
SMALL
NO_CHARGES
****
Generated from CSD

@<TRIPOS>ATOM
      1 N1         3.9914   -1.3720    9.0487 N.pl3     1 RES1    0.0000
      2 O1         4.6271   -1.7564    9.9849 O.2       1 RES1    0.0000
      3 O2         4.2957   -1.6227    7.9316 O.2       1 RES1    0.0000
      4 O3         5.5062    3.8682    9.8575 O.2       1 RES1    0.0000
      5 C1         1.7136    2.0584    6.9113 C.ar      1 RES1    0.0000
      6 H1         1.7221    3.0748    6.8464 H         1 RES1    0.0000
      7 C2         0.9608    1.3426    5.9981 C.ar      1 RES1    0.0000
      8 H2         0.5872    1.8636    5.3262 H         1 RES1    0.0000
      9 C3         0.7754   -0.0196    6.1426 C.ar      1 RES1    0.0000
     10 H3         0.2773   -0.4908    5.3764 H         1 RES1    0.0000
     11 C4         1.3356   -0.6645    7.2282 C.ar      1 RES1    0.0000
     12 H4         1.1098   -1.7050    7.3472 H         1 RES1    0.0000
     13 C5         2.1158    0.0400    8.1416 C.ar      1 RES1    0.0000
     14 C6         2.6435   -0.6657    9.3538 C.3       1 RES1    0.0000
     15 H5         1.9715   -1.4959    9.5266 H         1 RES1    0.0000
     16 C7         2.8147    0.2291   10.5518 C.ar      1 RES1    0.0000
     17 C8         2.7007   -0.2990   11.8388 C.ar      1 RES1    0.0000
     18 H6         2.5512   -1.2897   11.8151 H         1 RES1    0.0000
     19 C9         2.8116    0.5271   12.9373 C.ar      1 RES1    0.0000
     20 H7         2.8258    0.2250   13.8538 H         1 RES1    0.0000
     21 C10        3.0069    1.8772   12.7643 C.ar      1 RES1    0.0000
     22 H8         3.1356    2.4118   13.6059 H         1 RES1    0.0000
     23 C11        3.1073    2.4027   11.4911 C.ar      1 RES1    0.0000
     24 H9         3.1413    3.3572   11.3615 H         1 RES1    0.0000
     25 C12        3.0287    1.5825   10.3701 C.ar      1 RES1    0.0000
     26 C13        3.1955    2.1455    8.9736 C.3       1 RES1    0.0000
     27 H10        2.8627    3.0479    8.9701 H         1 RES1    0.0000
     28 C14        2.3209    1.3883    7.9860 C.ar      1 RES1    0.0000
     29 C15        4.6950    2.0848    8.5183 C.3       1 RES1    0.0000
     30 H11        5.1026    1.2122    8.3771 H         1 RES1    0.0000
     31 C16        5.5809    2.6851    9.5960 C.2       1 RES1    0.0000
     32 C17        6.5147    1.8092   10.3311 C.3       1 RES1    0.0000
     33 H12        7.0792    2.2804   11.0226 H         1 RES1    0.0000
     34 H13        6.0208    0.9529   10.7943 H         1 RES1    0.0000
     35 H14        7.0439    1.3849    9.7685 H         1 RES1    0.0000
     36 C18        4.9341    2.8090    7.1845 C.3       1 RES1    0.0000
     37 H15        4.2761    2.3354    6.5111 H         1 RES1    0.0000
     38 H16        4.5761    3.7323    7.2792 H         1 RES1    0.0000
     39 C19        6.3859    2.7380    6.7058 C.3       1 RES1    0.0000
     40 H17        6.5076    1.6688    6.6162 H         1 RES1    0.0000
     41 H18        7.0948    3.3330    7.3875 H         1 RES1    0.0000
     42 C20        6.5882    3.4478    5.3996 C.3       1 RES1    0.0000
     43 H19        6.2501    3.1593    4.7261 H         1 RES1    0.0000
     44 H20        7.3905    3.4251    5.0408 H         1 RES1    0.0000
     45 H21        6.2458    4.5472    5.4746 H         1 RES1    0.0000
@<TRIPOS>BOND
     1    1    2 2
     2    3    1 2
     3    4   31 2
     4    5    6 1
     5    7    5 ar
     6    8    7 1
     7    9    7 ar
     8   10    9 1
     9   11    9 ar
    10   12   11 1
    11   13   11 ar
    12   14    1 1
    13   15   14 1
    14   16   14 1
    15   17   16 ar
    16   18   17 1
    17   19   17 ar
    18   20   19 1
    19   21   19 ar
    20   22   21 1
    21   23   21 ar
    22   24   23 1
    23   25   16 ar
    24   26   25 1
    25   27   26 1
    26   28    5 ar
    27   29   26 1
    28   30   29 1
    29   31   29 1
    30   32   31 1
    31   33   32 1
    32   34   32 1
    33   35   32 1
    34   36   29 1
    35   37   36 1
    36   38   36 1
    37   39   36 1
    38   40   39 1
    39   41   39 1
    40   42   39 1
    41   43   42 1
    42   44   42 1
    43   45   42 1
    44   13   14 1
    45   13   28 ar
    46   23   25 ar
    47   26   28 1
@<TRIPOS>SUBSTRUCTURE
     1 RES1 1

@<TRIPOS>CRYSIN
  14.1500   15.1020   16.3080  90.0000  90.0000  90.0000  61 1

