# MOL2 file generated by ConQuest
# Please check atom types

@<TRIPOS>MOLECULE
NOETNA
    26    25     1
SMALL
NO_CHARGES
****
Generated from CSD

@<TRIPOS>ATOM
      1 C1         1.7085    0.4915    4.2759 C.3       1 RES1    0.0000
      2 C2         1.8695    2.0143    4.5113 C.3       1 RES1    0.0000
      3 C3         3.9459   -0.6616    3.7626 C.3       1 RES1    0.0000
      4 C4         3.9643   -2.1921    3.9599 C.3       1 RES1    0.0000
      5 N1         2.6628   -0.0751    3.3538 N.3       1 RES1    0.0000
      6 N2         2.2857   -0.2148    2.0211 N.pl3     1 RES1    0.0000
      7 N3         1.8879    2.8081    3.1934 N.pl3     1 RES1    0.0000
      8 N4         0.6944    2.5105    5.2938 N.pl3     1 RES1    0.0000
      9 N5         3.1273    2.3889    5.2471 N.pl3     1 RES1    0.0000
     10 N6         4.2242   -2.9858    2.6887 N.pl3     1 RES1    0.0000
     11 N7         2.7387   -2.7624    4.6594 N.pl3     1 RES1    0.0000
     12 N8         5.1946   -2.5486    4.8143 N.pl3     1 RES1    0.0000
     13 O1         3.0261   -0.8746    1.3222 O.2       1 RES1    0.0000
     14 O2         1.2555    0.3717    1.6732 O.2       1 RES1    0.0000
     15 O3         3.5619    3.5077    5.0356 O.2       1 RES1    0.0000
     16 O4         3.5688    1.5552    6.0136 O.2       1 RES1    0.0000
     17 O5         2.8284    2.6436    2.5037 O.2       1 RES1    0.0000
     18 O6         0.9543    3.5695    2.9954 O.2       1 RES1    0.0000
     19 O7        -0.3702    2.0229    5.0362 O.2       1 RES1    0.0000
     20 O8         0.9014    3.3338    6.1169 O.2       1 RES1    0.0000
     21 O9         3.4906   -3.9127    2.4582 O.2       1 RES1    0.0000
     22 O10        5.1693   -2.6512    2.0525 O.2       1 RES1    0.0000
     23 O11        2.8928   -3.2777    5.7321 O.2       1 RES1    0.0000
     24 O12        1.6924   -2.5552    4.0582 O.2       1 RES1    0.0000
     25 O13        5.5717   -3.6988    4.7553 O.2       1 RES1    0.0000
     26 O14        5.6039   -1.6750    5.5587 O.2       1 RES1    0.0000
@<TRIPOS>BOND
     1    1    2 1
     2    2    7 1
     3    3    4 1
     4    4   10 1
     5    5    1 1
     6    6    5 1
     7    7   17 2
     8    8    2 1
     9    9    2 1
    10   10   21 2
    11   11    4 1
    12   12    4 1
    13   13    6 2
    14   14    6 2
    15   15    9 2
    16   16    9 2
    17   18    7 2
    18   19    8 2
    19   20    8 2
    20   22   10 2
    21   23   11 2
    22   24   11 2
    23   25   12 2
    24   26   12 2
    25    3    5 1
@<TRIPOS>SUBSTRUCTURE
     1 RES1 1

@<TRIPOS>CRYSIN
  22.9950    9.5060    6.1470  90.0000  90.0000  90.0000  33 4

