# MOL2 file generated by ConQuest
# Please check atom types

@<TRIPOS>MOLECULE
NOETNA01
    26    25     1
SMALL
NO_CHARGES
****
Generated from CSD

@<TRIPOS>ATOM
      1 C1        -0.2428    6.8635    2.2571 C.3       1 RES1    0.0000
      2 C2        -1.5483    7.6501    2.0871 C.3       1 RES1    0.0000
      3 C3         1.7578    8.4149    2.6078 C.3       1 RES1    0.0000
      4 C4         3.1778    7.8988    2.3169 C.3       1 RES1    0.0000
      5 N1         0.7632    7.4718    3.0995 N.3       1 RES1    0.0000
      6 N2         0.7368    7.1837    4.4440 N.pl3     1 RES1    0.0000
      7 N3        -1.4003    8.9631    1.3248 N.pl3     1 RES1    0.0000
      8 N4        -2.5080    6.7868    1.2731 N.pl3     1 RES1    0.0000
      9 N5        -2.2580    8.0418    3.3694 N.pl3     1 RES1    0.0000
     10 N6         4.0001    7.5921    3.5592 N.pl3     1 RES1    0.0000
     11 N7         3.2646    6.6625    1.4296 N.pl3     1 RES1    0.0000
     12 N8         3.9311    9.0149    1.5615 N.pl3     1 RES1    0.0000
     13 O1         1.6477    7.6335    5.1095 O.2       1 RES1    0.0000
     14 O2        -0.1968    6.5070    4.8507 O.2       1 RES1    0.0000
     15 O3        -3.3533    7.5817    3.5894 O.2       1 RES1    0.0000
     16 O4        -1.6391    8.8294    4.0669 O.2       1 RES1    0.0000
     17 O5        -0.4879    9.0284    0.5398 O.2       1 RES1    0.0000
     18 O6        -2.2611    9.8015    1.5306 O.2       1 RES1    0.0000
     19 O7        -3.0802    7.3050    0.3537 O.2       1 RES1    0.0000
     20 O8        -2.5917    5.6396    1.6348 O.2       1 RES1    0.0000
     21 O9         4.1813    8.5382    4.2844 O.2       1 RES1    0.0000
     22 O10        4.3799    6.4583    3.7188 O.2       1 RES1    0.0000
     23 O11        4.1737    6.6127    0.6556 O.2       1 RES1    0.0000
     24 O12        2.4250    5.8251    1.6163 O.2       1 RES1    0.0000
     25 O13        3.2552    9.6927    0.8313 O.2       1 RES1    0.0000
     26 O14        5.1105    9.0906    1.7519 O.2       1 RES1    0.0000
@<TRIPOS>BOND
     1    1    2 1
     2    2    7 1
     3    3    4 1
     4    4   10 1
     5    5    1 1
     6    6    5 1
     7    7   17 2
     8    8    2 1
     9    9    2 1
    10   10   21 2
    11   11    4 1
    12   12    4 1
    13   13    6 2
    14   14    6 2
    15   15    9 2
    16   16    9 2
    17   18    7 2
    18   19    8 2
    19   20    8 2
    20   22   10 2
    21   23   11 2
    22   24   11 2
    23   25   12 2
    24   26   12 2
    25    3    5 1
@<TRIPOS>SUBSTRUCTURE
     1 RES1 1

@<TRIPOS>CRYSIN
  20.6540   11.8090    6.1620  90.0000  90.0000 118.6500  14 4

