# MOL2 file generated by ConQuest
# Please check atom types

@<TRIPOS>MOLECULE
NOEURA01
    32    31     1
SMALL
NO_CHARGES
****
Generated from CSD

@<TRIPOS>ATOM
      1 C1        10.3960    5.6145    5.5604 C.2       1 RES1    0.0000
      2 C2         8.6911    7.3550    5.3866 C.3       1 RES1    0.0000
      3 H1         8.7243    7.2494    6.3709 H         1 RES1    0.0000
      4 H2         7.7793    7.1158    5.0833 H         1 RES1    0.0000
      5 C3         8.9842    8.7990    5.0212 C.3       1 RES1    0.0000
      6 N1         9.6506    6.4701    4.7737 N.am      1 RES1    0.0000
      7 H3         9.6995    6.3219    3.9451 H         1 RES1    0.0000
      8 N2         8.1972    9.7906    5.8485 N.pl3     1 RES1    0.0000
      9 N3         8.6224    9.1393    3.5704 N.pl3     1 RES1    0.0000
     10 N4        10.4490    9.1370    5.1932 N.pl3     1 RES1    0.0000
     11 O1        10.3960    5.6145    6.7683 O.2       1 RES1    0.0000
     12 O2         8.7649   10.7697    6.2802 O.2       1 RES1    0.0000
     13 O3         7.0100    9.4997    5.9868 O.2       1 RES1    0.0000
     14 O4         8.8106    8.2511    2.7616 O.2       1 RES1    0.0000
     15 O5         8.1920   10.2487    3.3449 O.2       1 RES1    0.0000
     16 O6        11.0250    9.6828    4.2786 O.2       1 RES1    0.0000
     17 O7        10.9168    8.8024    6.2646 O.2       1 RES1    0.0000
     18 C2A       12.1009    3.8740    5.3866 C.3       1 RES1    0.0000
     19 H1A       12.0677    3.9796    6.3709 H         1 RES1    0.0000
     20 H2A       13.0127    4.1132    5.0833 H         1 RES1    0.0000
     21 C3A       11.8078    2.4300    5.0212 C.3       1 RES1    0.0000
     22 N1A       11.1414    4.7589    4.7737 N.am      1 RES1    0.0000
     23 H3A       11.0925    4.9071    3.9451 H         1 RES1    0.0000
     24 N2A       12.5948    1.4384    5.8485 N.pl3     1 RES1    0.0000
     25 N3A       12.1696    2.0897    3.5704 N.pl3     1 RES1    0.0000
     26 N4A       10.3430    2.0920    5.1932 N.pl3     1 RES1    0.0000
     27 O2A       12.0271    0.4593    6.2802 O.2       1 RES1    0.0000
     28 O3A       13.7820    1.7293    5.9868 O.2       1 RES1    0.0000
     29 O4A       11.9814    2.9779    2.7616 O.2       1 RES1    0.0000
     30 O5A       12.6000    0.9803    3.3449 O.2       1 RES1    0.0000
     31 O6A        9.7670    1.5462    4.2786 O.2       1 RES1    0.0000
     32 O7A        9.8752    2.4266    6.2646 O.2       1 RES1    0.0000
@<TRIPOS>BOND
     1    1    6 1
     2    2    3 1
     3    4    2 1
     4    5    2 1
     5    6    2 1
     6    7    6 1
     7    8    5 1
     8    9    5 1
     9   10    5 1
    10   11    1 2
    11   12    8 2
    12   13    8 2
    13   14    9 2
    14   15    9 2
    15   16   10 2
    16   17   10 2
    17   18   19 1
    18   20   18 1
    19   21   18 1
    20   22    1 1
    21   23   22 1
    22   24   21 1
    23   25   21 1
    24   26   21 1
    25   27   24 2
    26   28   24 2
    27   29   25 2
    28   30   25 2
    29   31   26 2
    30   32   26 2
    31   18   22 1
@<TRIPOS>SUBSTRUCTURE
     1 RES1 1

@<TRIPOS>CRYSIN
  10.3960   11.2290    5.8102  90.0000  90.0000  90.0000  34 1

