# MOL2 file generated by ConQuest
# Please check atom types

@<TRIPOS>MOLECULE
NOFBIT
    17    19     1
SMALL
NO_CHARGES
****
Generated from CSD

@<TRIPOS>ATOM
      1 O1         3.2052    1.5923    7.4491 O.2       1 RES1    0.0000
      2 N1         3.8399    1.3624    6.4316 N.pl3     1 RES1    0.0000
      3 N2         3.8691    2.1231    5.3585 N.2       1 RES1    0.0000
      4 C1         4.6895    1.4576    4.4709 C.2       1 RES1    0.0000
      5 N3         4.9648    1.8543    3.2609 N.2       1 RES1    0.0000
      6 C2         5.7791    0.9246    2.6590 C.2       1 RES1    0.0000
      7 N4         6.2417    1.0071    1.4296 N.2       1 RES1    0.0000
      8 O2         6.9928   -0.1523    1.2797 O.3       1 RES1    0.0000
      9 N5         7.0004   -0.9436    2.4284 N.2       1 RES1    0.0000
     10 C3         6.2451   -0.2770    3.2716 C.2       1 RES1    0.0000
     11 N6         5.9475   -0.6777    4.5559 N.2       1 RES1    0.0000
     12 C4         5.1737    0.2204    5.0911 C.2       1 RES1    0.0000
     13 N7         4.6222    0.2154    6.3335 N.pl3     1 RES1    0.0000
     14 C5         4.7188   -0.7160    7.4431 C.3       1 RES1    0.0000
     15 H1         5.0559   -0.3026    8.1868 H         1 RES1    0.0000
     16 H2         5.2299   -1.4232    7.2203 H         1 RES1    0.0000
     17 H3         3.9025   -1.0834    7.6103 H         1 RES1    0.0000
@<TRIPOS>BOND
     1    1    2 1
     2    2    3 2
     3    3    4 1
     4    4    5 2
     5    5    6 1
     6    6    7 2
     7    7    8 1
     8    8    9 1
     9    9   10 2
    10   10    6 1
    11   11   10 1
    12   12    4 1
    13   13    2 1
    14   14   13 1
    15   15   14 1
    16   16   14 1
    17   17   14 1
    18   11   12 2
    19   12   13 1
@<TRIPOS>SUBSTRUCTURE
     1 RES1 1

@<TRIPOS>CRYSIN
   7.7270    5.6010   17.3500  90.0000  96.6000  90.0000  14 1

