# MOL2 file generated by ConQuest
# Please check atom types

@<TRIPOS>MOLECULE
NOFBEP
    39    39     1
SMALL
NO_CHARGES
****
Generated from CSD

@<TRIPOS>ATOM
      1 O1        -3.3810    3.6693    4.0315 O.2       1 RES1    0.0000
      2 O2        -0.0819    0.3703    3.8492 O.2       1 RES1    0.0000
      3 O3        -2.8936    1.2901    7.9149 O.2       1 RES1    0.0000
      4 O4        -0.8869    1.2012    8.6851 O.2       1 RES1    0.0000
      5 N1        -1.6840    1.2769    7.7477 N.pl3     1 RES1    0.0000
      6 N2         0.9932    2.2409    5.9879 N.3       1 RES1    0.0000
      7 N3         0.8825    0.0493    6.6280 N.3       1 RES1    0.0000
      8 C1        -2.5365    3.0011    3.4170 C.2       1 RES1    0.0000
      9 C2        -1.7298    2.0129    4.0714 C.2       1 RES1    0.0000
     10 C3        -0.8018    1.2227    3.3221 C.2       1 RES1    0.0000
     11 C4        -0.7595    1.4091    1.8415 C.3       1 RES1    0.0000
     12 C5        -1.0044    2.8304    1.3885 C.3       1 RES1    0.0000
     13 C6        -2.3454    3.2456    1.9535 C.3       1 RES1    0.0000
     14 C7        -1.9524    1.8439    5.4523 C.2       1 RES1    0.0000
     15 C8        -1.1461    1.3580    6.4295 C.2       1 RES1    0.0000
     16 C9         0.3082    1.1827    6.3431 C.2       1 RES1    0.0000
     17 C10        2.4252    2.2593    5.7961 C.3       1 RES1    0.0000
     18 C11        0.1665   -1.1537    7.0022 C.3       1 RES1    0.0000
     19 C12       -1.0262    2.8972   -0.1301 C.3       1 RES1    0.0000
     20 C13        0.1059    3.7301    1.9108 C.3       1 RES1    0.0000
     21 H1         0.5620    2.9736    5.8587 H         1 RES1    0.0000
     22 H2         1.7413    0.0127    6.5919 H         1 RES1    0.0000
     23 H3        -1.4260    0.8341    1.4369 H         1 RES1    0.0000
     24 H4         0.1096    1.1249    1.5176 H         1 RES1    0.0000
     25 H5        -2.4680    4.1929    1.7836 H         1 RES1    0.0000
     26 H6        -3.0403    2.7718    1.4711 H         1 RES1    0.0000
     27 H7        -2.7943    2.1110    5.7429 H         1 RES1    0.0000
     28 H8         2.6969    3.1300    5.4941 H         1 RES1    0.0000
     29 H9         2.6696    1.6029    5.1398 H         1 RES1    0.0000
     30 H10        2.8618    2.0585    6.6271 H         1 RES1    0.0000
     31 H11       -0.0196   -1.1366    7.9434 H         1 RES1    0.0000
     32 H12        0.7026   -1.9224    6.7952 H         1 RES1    0.0000
     33 H13       -0.6594   -1.1993    6.5140 H         1 RES1    0.0000
     34 H14       -0.1603    2.6649   -0.4730 H         1 RES1    0.0000
     35 H15       -1.2523    3.7873   -0.4084 H         1 RES1    0.0000
     36 H16       -1.6621    2.2780   -0.4169 H         1 RES1    0.0000
     37 H17        0.9531    3.4175    1.5841 H         1 RES1    0.0000
     38 H18        0.1076    3.7114    2.8710 H         1 RES1    0.0000
     39 H19       -0.0498    4.5812    1.6088 H         1 RES1    0.0000
@<TRIPOS>BOND
     1    1    8 2
     2    2   10 2
     3    3    5 2
     4    4    5 2
     5    5   15 1
     6    6   16 1
     7    7   16 1
     8    8    9 1
     9    9   10 1
    10   10   11 1
    11   11   12 1
    12   12   13 1
    13   13    8 1
    14   14    9 2
    15   15   14 1
    16   16   15 2
    17   17    6 1
    18   18    7 1
    19   19   12 1
    20   20   12 1
    21   21    6 1
    22   22    7 1
    23   23   11 1
    24   24   11 1
    25   25   13 1
    26   26   13 1
    27   27   14 1
    28   28   17 1
    29   29   17 1
    30   30   17 1
    31   31   18 1
    32   32   18 1
    33   33   18 1
    34   34   19 1
    35   35   19 1
    36   36   19 1
    37   37   20 1
    38   38   20 1
    39   39   20 1
@<TRIPOS>SUBSTRUCTURE
     1 RES1 1

@<TRIPOS>CRYSIN
   8.2620    9.0790   10.0650  89.2700  70.8600  79.7200   2 1

