# MOL2 file generated by ConQuest
# Please check atom types

@<TRIPOS>MOLECULE
NOFNED
    28    29     1
SMALL
NO_CHARGES
****
Generated from CSD

@<TRIPOS>ATOM
      1 O1         0.7366   13.1907    6.3663 O.3       1 RES1    0.0000
      2 H1         0.4621   13.3260    5.6150 H         1 RES1    0.0000
      3 O2        -0.1235    7.4164    7.2713 O.2       1 RES1    0.0000
      4 O3        -0.0352    6.0030    5.6431 O.2       1 RES1    0.0000
      5 N1         0.5073    6.7133    6.4854 N.pl3     1 RES1    0.0000
      6 C1         1.1836   11.8914    6.4118 C.ar      1 RES1    0.0000
      7 C2         2.1060   11.5694    7.4034 C.ar      1 RES1    0.0000
      8 C3         2.5557   10.2559    7.4546 C.ar      1 RES1    0.0000
      9 H2         3.1825   10.0243    8.1020 H         1 RES1    0.0000
     10 C4         2.1053    9.2698    6.5734 C.ar      1 RES1    0.0000
     11 C5         2.6868    7.9032    6.6247 C.ar      1 RES1    0.0000
     12 C6         4.0759    7.7639    6.7033 C.ar      1 RES1    0.0000
     13 H3         4.6019    8.5291    6.7567 H         1 RES1    0.0000
     14 C7         4.6939    6.5270    6.7055 C.ar      1 RES1    0.0000
     15 H4         5.6199    6.4717    6.7784 H         1 RES1    0.0000
     16 C8         3.9419    5.3772    6.5994 C.ar      1 RES1    0.0000
     17 H5         4.3593    4.5461    6.5857 H         1 RES1    0.0000
     18 C9         2.5671    5.4622    6.5135 C.ar      1 RES1    0.0000
     19 H6         2.0490    4.6928    6.4414 H         1 RES1    0.0000
     20 C10        1.9733    6.7129    6.5366 C.ar      1 RES1    0.0000
     21 C11        1.1806    9.6353    5.5977 C.ar      1 RES1    0.0000
     22 H7         0.8635    8.9956    5.0015 H         1 RES1    0.0000
     23 C12        0.7299   10.9350    5.5060 C.ar      1 RES1    0.0000
     24 H8         0.1242   11.1730    4.8420 H         1 RES1    0.0000
     25 C13        2.5890   12.5938    8.3806 C.3       1 RES1    0.0000
     26 H9         3.1060   13.2580    7.9194 H         1 RES1    0.0000
     27 H10        3.1349   12.1698    9.0468 H         1 RES1    0.0000
     28 H11        1.8353   13.0125    8.8043 H         1 RES1    0.0000
@<TRIPOS>BOND
     1    1    2 1
     2    3    5 2
     3    4    5 2
     4    5   20 1
     5    6    1 1
     6    7    6 ar
     7    8    7 ar
     8    9    8 1
     9   10    8 ar
    10   11   10 1
    11   12   11 ar
    12   13   12 1
    13   14   12 ar
    14   15   14 1
    15   16   14 ar
    16   17   16 1
    17   18   16 ar
    18   19   18 1
    19   20   11 ar
    20   21   10 ar
    21   22   21 1
    22   23    6 ar
    23   24   23 1
    24   25    7 1
    25   26   25 1
    26   27   25 1
    27   28   25 1
    28   18   20 ar
    29   21   23 ar
@<TRIPOS>SUBSTRUCTURE
     1 RES1 1

@<TRIPOS>CRYSIN
  14.4397   10.6268    7.2172  90.0000  90.0000  90.0000  29 1

