# MOL2 file generated by ConQuest
# Please check atom types

@<TRIPOS>MOLECULE
NOFNIH
    37    38     1
SMALL
NO_CHARGES
****
Generated from CSD

@<TRIPOS>ATOM
      1 O1         0.0593    6.0278   -1.7334 O.3       1 RES1    0.0000
      2 H1        -0.6120    5.4980   -1.7410 H         1 RES1    0.0000
      3 O2         2.3261    3.7294    4.8529 O.2       1 RES1    0.0000
      4 O3         2.7856    4.1510    2.8015 O.2       1 RES1    0.0000
      5 N1         2.5866    4.5080    3.9500 N.pl3     1 RES1    0.0000
      6 C1         0.5179    6.2368   -0.4520 C.ar      1 RES1    0.0000
      7 C2        -0.1982    5.8169    0.6670 C.ar      1 RES1    0.0000
      8 C3         0.3421    6.0236    1.9390 C.ar      1 RES1    0.0000
      9 C4         1.6027    6.6363    2.0673 C.ar      1 RES1    0.0000
     10 C5         2.2577    6.9031    3.3751 C.ar      1 RES1    0.0000
     11 C6         2.4773    8.2161    3.7801 C.ar      1 RES1    0.0000
     12 H2         2.2232    8.9070    3.2115 H         1 RES1    0.0000
     13 C7         3.0568    8.5359    4.9915 C.ar      1 RES1    0.0000
     14 H3         3.1798    9.4307    5.2142 H         1 RES1    0.0000
     15 C8         3.4602    7.5573    5.8817 C.ar      1 RES1    0.0000
     16 C9         4.0572    7.9048    7.2219 C.3       1 RES1    0.0000
     17 H4         4.2385    8.8468    7.2564 H         1 RES1    0.0000
     18 H5         4.8751    7.4166    7.3441 H         1 RES1    0.0000
     19 H6         3.4389    7.6726    7.9183 H         1 RES1    0.0000
     20 C10       -0.4326    5.6334    3.1776 C.3       1 RES1    0.0000
     21 H7        -1.3045    6.0339    3.1485 H         1 RES1    0.0000
     22 H8         0.0350    5.9409    3.9573 H         1 RES1    0.0000
     23 H9        -0.5198    4.6782    3.2127 H         1 RES1    0.0000
     24 C11        2.2448    7.0861    0.9157 C.ar      1 RES1    0.0000
     25 H10        3.0528    7.5390    1.0063 H         1 RES1    0.0000
     26 C12        1.7404    6.8922   -0.3484 C.ar      1 RES1    0.0000
     27 C13        2.4852    7.3324   -1.5837 C.3       1 RES1    0.0000
     28 H11        3.2649    7.8296   -1.3273 H         1 RES1    0.0000
     29 H12        1.9148    7.8877   -2.1200 H         1 RES1    0.0000
     30 H13        2.7496    6.5613   -2.0904 H         1 RES1    0.0000
     31 C14        3.2549    6.2375    5.5039 C.ar      1 RES1    0.0000
     32 H14        3.5003    5.5501    6.0798 H         1 RES1    0.0000
     33 C15        2.6917    5.9355    4.2871 C.ar      1 RES1    0.0000
     34 C16       -1.5437    5.1592    0.4692 C.3       1 RES1    0.0000
     35 H15       -2.1125    5.7415   -0.0395 H         1 RES1    0.0000
     36 H16       -1.9443    4.9871    1.3249 H         1 RES1    0.0000
     37 H17       -1.4287    4.3311   -0.0025 H         1 RES1    0.0000
@<TRIPOS>BOND
     1    1    2 1
     2    3    5 2
     3    4    5 2
     4    5   33 1
     5    6    1 1
     6    7    6 ar
     7    8    7 ar
     8    9    8 ar
     9   10    9 1
    10   11   10 ar
    11   12   11 1
    12   13   11 ar
    13   14   13 1
    14   15   13 ar
    15   16   15 1
    16   17   16 1
    17   18   16 1
    18   19   16 1
    19   20    8 1
    20   21   20 1
    21   22   20 1
    22   23   20 1
    23   24    9 ar
    24   25   24 1
    25   26    6 ar
    26   27   26 1
    27   28   27 1
    28   29   27 1
    29   30   27 1
    30   31   15 ar
    31   32   31 1
    32   33   10 ar
    33   34    7 1
    34   35   34 1
    35   36   34 1
    36   37   34 1
    37   24   26 ar
    38   31   33 ar
@<TRIPOS>SUBSTRUCTURE
     1 RES1 1

@<TRIPOS>CRYSIN
   6.8419    8.4340   12.6395  82.1950  79.8470  85.0400   2 1

