# MOL2 file generated by ConQuest
# Please check atom types

@<TRIPOS>MOLECULE
NOGCET
    29    17     2
SMALL
NO_CHARGES
****
Generated from CSD

@<TRIPOS>ATOM
      1 C1        -6.3462    1.6670    6.2015 C.2       1 RES1    0.0000
      2 C2        -5.2693    1.6670    7.0605 C.2       1 RES1    0.0000
      3 C3        -7.1130    1.6670    8.2045 C.2       1 RES1    0.0000
      4 C4        -6.3652    1.6670    4.7902 C.1       1 RES1    0.0000
      5 C5        -6.4031    1.6670    3.5839 C.1       1 RES1    0.0000
      6 C6        -6.4284    1.6670    2.1766 C.2       1 RES1    0.0000
      7 H1        -7.2573    1.6670    1.7546 H         1 RES1    0.0000
      8 C7        -5.3212    1.6670    1.4031 C.2       1 RES1    0.0000
      9 C8        -5.4110    1.6670   -0.0841 C.3       1 RES1    0.0000
     10 C9        -3.9659    1.6670    1.9894 C.3       1 RES1    0.0000
     11 C10       -5.0478    1.6670    9.6090 C.3       1 RES1    0.0000
     12 N1        -5.7628    1.6670    8.3403 N.3       1 RES1    0.0000
     13 N2        -7.4951    1.6670    6.9404 N.2       1 RES1    0.0000
     14 N3        -3.9001    1.6670    6.7362 N.pl3     1 RES1    0.0000
     15 O1        -3.5901    1.6670    5.5583 O.2       1 RES1    0.0000
     16 O2        -3.0636    1.6670    7.6413 O.2       1 RES1    0.0000
     17 C11       -8.0646    1.6670    9.3430 C.3       1 RES1    0.0000
     18 H2        -6.3234    1.5283   -0.3501 Du        2 SUP2    0.0000
     19 H3        -5.1035    2.5112   -0.4234 Du        2 SUP2    0.0000
     20 H4        -4.8631    0.9622   -0.4383 Du        2 SUP2    0.0000
     21 H5        -3.4154    2.3018    1.5253 Du        2 SUP2    0.0000
     22 H6        -3.5812    0.7908    1.9093 Du        2 SUP2    0.0000
     23 H7        -4.0190    1.9084    2.9176 Du        2 SUP2    0.0000
     24 H8        -4.3177    1.0462    9.5656 Du        2 SUP2    0.0000
     25 H9        -4.7100    2.5479    9.7868 Du        2 SUP2    0.0000
     26 H10       -5.6464    1.4070   10.3133 Du        2 SUP2    0.0000
     27 H11       -8.1418    2.5565    9.6958 Du        2 SUP2    0.0000
     28 H12       -8.9264    1.3683    9.0390 Du        2 SUP2    0.0000
     29 H13       -7.7445    1.0762   10.0283 Du        2 SUP2    0.0000
@<TRIPOS>BOND
     1    1    2 2
     2    2   12 1
     3    3   12 1
     4    4    1 1
     5    5    4 3
     6    6    5 1
     7    7    6 1
     8    8    6 2
     9    9    8 1
    10   10    8 1
    11   11   12 1
    12   13    1 1
    13   14    2 1
    14   15   14 2
    15   16   14 2
    16   17    3 1
    17    3   13 2
@<TRIPOS>SUBSTRUCTURE
     1 RES1 1
     2 SUP2 18

@<TRIPOS>CRYSIN
  12.6544    6.6681   13.5701  90.0000  90.0000  90.0000  62 1

