# MOL2 file generated by ConQuest
# Please check atom types

@<TRIPOS>MOLECULE
NOGCIX
    36    37     1
SMALL
NO_CHARGES
****
Generated from CSD

@<TRIPOS>ATOM
      1 C1         4.0715    1.9702    3.3219 C.2       1 RES1    0.0000
      2 C2         3.5888    1.6354    2.0805 C.2       1 RES1    0.0000
      3 C3         3.9142    3.7826    2.1726 C.2       1 RES1    0.0000
      4 C4         4.3363    1.1005    4.4055 C.1       1 RES1    0.0000
      5 C5         4.5630    0.2863    5.2606 C.1       1 RES1    0.0000
      6 C6         4.7834   -0.7921    6.1516 C.2       1 RES1    0.0000
      7 H1         4.4466   -1.6192    5.8902 H         1 RES1    0.0000
      8 C7         5.4206   -0.7538    7.3220 C.2       1 RES1    0.0000
      9 C8         5.5981   -1.9730    8.1390 C.ar      1 RES1    0.0000
     10 C9         6.1606   -1.9163    9.4100 C.ar      1 RES1    0.0000
     11 H2         6.4278   -1.0945    9.7539 H         1 RES1    0.0000
     12 C10        6.3312   -3.0595   10.1761 C.ar      1 RES1    0.0000
     13 H3         6.7136   -2.9918   11.0206 H         1 RES1    0.0000
     14 C11        5.9458   -4.2809    9.7084 C.ar      1 RES1    0.0000
     15 H4         6.0588   -5.0454   10.2280 H         1 RES1    0.0000
     16 C12        5.3914   -4.3626    8.4628 C.ar      1 RES1    0.0000
     17 H5         5.1257   -5.1896    8.1305 H         1 RES1    0.0000
     18 C13        5.2212   -3.2359    7.6945 C.ar      1 RES1    0.0000
     19 H6         4.8410   -3.3201    6.8501 H         1 RES1    0.0000
     20 C14        5.9540    0.5382    7.8385 C.3       1 RES1    0.0000
     21 H7         5.8153    1.2266    7.1834 H         1 RES1    0.0000
     22 H8         6.8927    0.4482    8.0163 H         1 RES1    0.0000
     23 H9         5.4958    0.7714    8.6491 H         1 RES1    0.0000
     24 C15        3.1171    2.9826   -0.0466 C.3       1 RES1    0.0000
     25 H10        2.1599    2.9831   -0.1217 H         1 RES1    0.0000
     26 H11        3.4794    2.2655   -0.5725 H         1 RES1    0.0000
     27 H12        3.4641    3.8188   -0.3640 H         1 RES1    0.0000
     28 C16        3.9797    5.2125    1.7884 C.3       1 RES1    0.0000
     29 H13        3.0968    5.5301    1.5874 H         1 RES1    0.0000
     30 H14        4.5393    5.3112    1.0149 H         1 RES1    0.0000
     31 H15        4.3455    5.7229    2.5144 H         1 RES1    0.0000
     32 N1         3.4936    2.7987    1.3514 N.3       1 RES1    0.0000
     33 N2         4.2557    3.3238    3.3769 N.2       1 RES1    0.0000
     34 N3         3.1545    0.3827    1.6170 N.pl3     1 RES1    0.0000
     35 O1         3.4543   -0.6034    2.2848 O.2       1 RES1    0.0000
     36 O2         2.4716    0.3167    0.5916 O.2       1 RES1    0.0000
@<TRIPOS>BOND
     1    1    2 2
     2    2   32 1
     3    3   28 1
     4    4    1 1
     5    5    4 3
     6    6    5 1
     7    7    6 1
     8    8    6 2
     9    9    8 1
    10   10    9 ar
    11   11   10 1
    12   12   10 ar
    13   13   12 1
    14   14   12 ar
    15   15   14 1
    16   16   14 ar
    17   17   16 1
    18   18    9 ar
    19   19   18 1
    20   20    8 1
    21   21   20 1
    22   22   20 1
    23   23   20 1
    24   24   25 1
    25   26   24 1
    26   27   24 1
    27   28   29 1
    28   30   28 1
    29   31   28 1
    30   32    3 1
    31   33    1 1
    32   34    2 1
    33   35   34 2
    34   36   34 2
    35    3   33 2
    36   16   18 ar
    37   24   32 1
@<TRIPOS>SUBSTRUCTURE
     1 RES1 1

@<TRIPOS>CRYSIN
   7.6459   17.3738   10.7808  90.0000 101.0060  90.0000  14 1

