# MOL2 file generated by ConQuest
# Please check atom types

@<TRIPOS>MOLECULE
NOGGUL
    44    45     1
SMALL
NO_CHARGES
****
Generated from CSD

@<TRIPOS>ATOM
      1 C1         1.2253    7.4128   -3.7128 C.ar      1 RES1    0.0000
      2 C2         0.5439    6.6925   -4.6989 C.ar      1 RES1    0.0000
      3 H1         0.2552    5.7942   -4.5204 H         1 RES1    0.0000
      4 C3         0.2864    7.2687   -5.9331 C.ar      1 RES1    0.0000
      5 C4         0.6743    8.5823   -6.1863 C.ar      1 RES1    0.0000
      6 C5         1.3517    9.3063   -5.2091 C.ar      1 RES1    0.0000
      7 C6         1.6324    8.7203   -3.9824 C.ar      1 RES1    0.0000
      8 H2         2.1103    9.2179   -3.3153 H         1 RES1    0.0000
      9 C7         1.5400    6.8741   -2.3887 C.2       1 RES1    0.0000
     10 H3         2.1524    7.3886   -1.8596 H         1 RES1    0.0000
     11 C8         1.0822    5.7627   -1.8279 C.2       1 RES1    0.0000
     12 H4         0.4860    5.2155   -2.3444 H         1 RES1    0.0000
     13 C9         1.4252    5.3075   -0.4722 C.ar      1 RES1    0.0000
     14 C10        0.9503    4.0763   -0.0367 C.ar      1 RES1    0.0000
     15 H5         0.4008    3.5533   -0.6253 H         1 RES1    0.0000
     16 C11        1.2478    3.5823    1.2266 C.ar      1 RES1    0.0000
     17 C12        2.0733    4.3571    2.0608 C.ar      1 RES1    0.0000
     18 C13        2.5091    5.6114    1.6418 C.ar      1 RES1    0.0000
     19 H6         3.0439    6.1477    2.2317 H         1 RES1    0.0000
     20 C14        2.1906    6.0896    0.4051 C.ar      1 RES1    0.0000
     21 H7         2.4870    6.9612    0.1367 H         1 RES1    0.0000
     22 C15       -0.6200    5.2736   -6.8446 C.3       1 RES1    0.0000
     23 H8        -1.0668    4.9637   -7.6357 H         1 RES1    0.0000
     24 H9        -1.1821    5.1247   -6.0800 H         1 RES1    0.0000
     25 H10        0.2039    4.7942   -6.7332 H         1 RES1    0.0000
     26 O1        -0.3504    6.6477   -6.9661 O.3       1 RES1    0.0000
     27 C16        1.3790    8.9963   -8.3788 C.3       1 RES1    0.0000
     28 H11        1.1113    9.4273   -9.1940 H         1 RES1    0.0000
     29 H12        1.5062    8.0581   -8.5408 H         1 RES1    0.0000
     30 H13        2.2016    9.3813   -8.0687 H         1 RES1    0.0000
     31 O2         0.3766    9.1731   -7.4003 O.3       1 RES1    0.0000
     32 C17        2.4430   11.3402   -4.6103 C.3       1 RES1    0.0000
     33 H14        2.6260   12.2106   -4.9723 H         1 RES1    0.0000
     34 H15        3.2709   10.8934   -4.4192 H         1 RES1    0.0000
     35 H16        1.9329   11.4297   -3.8014 H         1 RES1    0.0000
     36 O3         1.7048   10.5823   -5.5534 O.3       1 RES1    0.0000
     37 C18       -0.2890    1.7736    0.9861 C.3       1 RES1    0.0000
     38 H17       -0.5271    0.9540    1.4266 H         1 RES1    0.0000
     39 H18       -0.0045    1.5835    0.0899 H         1 RES1    0.0000
     40 H19       -1.0508    2.3571    0.9633 H         1 RES1    0.0000
     41 O4         0.7731    2.4056    1.6988 O.3       1 RES1    0.0000
     42 N1         2.5124    3.9068    3.3634 N.pl3     1 RES1    0.0000
     43 O5         2.2572    2.8281    3.7647 O.2       1 RES1    0.0000
     44 O6         3.1729    4.6441    4.0318 O.2       1 RES1    0.0000
@<TRIPOS>BOND
     1    1    2 ar
     2    2    3 1
     3    4    2 ar
     4    5    4 ar
     5    6    5 ar
     6    7    1 ar
     7    8    7 1
     8    9    1 1
     9   10    9 1
    10   11    9 2
    11   12   11 1
    12   13   11 1
    13   14   13 ar
    14   15   14 1
    15   16   14 ar
    16   17   16 ar
    17   18   17 ar
    18   19   18 1
    19   20   13 ar
    20   21   20 1
    21   22   23 1
    22   24   22 1
    23   25   22 1
    24   26    4 1
    25   27   28 1
    26   29   27 1
    27   30   27 1
    28   31    5 1
    29   32   33 1
    30   34   32 1
    31   35   32 1
    32   36    6 1
    33   37   38 1
    34   39   37 1
    35   40   37 1
    36   41   16 1
    37   42   17 1
    38   43   42 2
    39   44   42 2
    40    6    7 ar
    41   18   20 ar
    42   22   26 1
    43   27   31 1
    44   32   36 1
    45   37   41 1
@<TRIPOS>SUBSTRUCTURE
     1 RES1 1

@<TRIPOS>CRYSIN
  11.0270   12.1065   13.1990  90.0000 106.4500  90.0000 231 1

