# MOL2 file generated by ConQuest
# Please check atom types

@<TRIPOS>MOLECULE
NOGUNA01
    15    14     1
SMALL
NO_CHARGES
****
Generated from CSD

@<TRIPOS>ATOM
      1 C1         1.1505    9.2484   14.9590 C.2       1 RES1    0.0000
      2 C2        -0.2654    7.5715   13.6895 C.3       1 RES1    0.0000
      3 N1        -0.0115    8.8996   14.2563 N.pl3     1 RES1    0.0000
      4 N2         2.0093    8.2284   15.0430 N.2       1 RES1    0.0000
      5 N3         1.2447   10.4780   15.4175 N.3       1 RES1    0.0000
      6 N4        -0.8722    9.9221   14.0505 N.2       1 RES1    0.0000
      7 N5         3.1462    8.4095   15.7602 N.pl3     1 RES1    0.0000
      8 O1        -1.8638    9.6179   13.4087 O.2       1 RES1    0.0000
      9 O2         3.8755    7.4109   15.8307 O.2       1 RES1    0.0000
     10 O3         3.4559    9.4797   16.3029 O.2       1 RES1    0.0000
     11 H1         0.6166   11.0202   15.3062 H         1 RES1    0.0000
     12 H2         1.9228   10.6885   15.8955 H         1 RES1    0.0000
     13 H3        -1.0145    7.2327   14.0601 H         1 RES1    0.0000
     14 H4         0.4111    7.0508   13.8749 H         1 RES1    0.0000
     15 H5        -0.4310    7.6606   12.7804 H         1 RES1    0.0000
@<TRIPOS>BOND
     1    1    3 1
     2    2    3 1
     3    3    6 1
     4    4    1 2
     5    5    1 1
     6    6    8 2
     7    7    4 1
     8    9    7 2
     9   10    7 2
    10   11    5 1
    11   12    5 1
    12   13    2 1
    13   14    2 1
    14   15    2 1
@<TRIPOS>SUBSTRUCTURE
     1 RES1 1

@<TRIPOS>CRYSIN
   6.6305   10.6992   16.8385  90.0000  90.0000  90.0000  61 1

