# MOL2 file generated by ConQuest
# Please check atom types

@<TRIPOS>MOLECULE
NOGUNA02
    30    28     2
SMALL
NO_CHARGES
****
Generated from CSD

@<TRIPOS>ATOM
      1 C1         7.7543    0.0484   11.4946 C.3       1 RES1    0.0000
      2 N1         6.3671   -0.3840   11.4982 N.pl3     1 RES1    0.0000
      3 C2         5.8484   -1.3309   12.4006 C.2       1 RES1    0.0000
      4 N2         6.6714   -1.5325   13.4146 N.2       1 RES1    0.0000
      5 N3         6.2877   -2.4141   14.3692 N.pl3     1 RES1    0.0000
      6 O1         5.1394   -2.8375   14.4681 O.2       1 RES1    0.0000
      7 O2         7.1682   -2.7283   15.1807 O.2       1 RES1    0.0000
      8 O3         5.9568    0.8479    9.7753 O.2       1 RES1    0.0000
      9 N4         5.4756    0.0439   10.5805 N.2       1 RES1    0.0000
     10 N5         4.6817   -1.8545   12.1388 N.3       1 RES1    0.0000
     11 C3         1.8127   -0.1543    6.0694 C.3       2 RES2    0.0000
     12 N6         2.6930    0.3705    7.0933 N.pl3     2 RES2    0.0000
     13 C4         2.3285    1.3039    8.0595 C.2       2 RES2    0.0000
     14 N7         1.0039    1.5606    8.0281 N.2       2 RES2    0.0000
     15 N8         0.4892    2.3916    8.9628 N.pl3     2 RES2    0.0000
     16 O4         1.1377    2.8544    9.9066 O.2       2 RES2    0.0000
     17 O5        -0.7033    2.6416    8.8162 O.2       2 RES2    0.0000
     18 O6         4.3177   -0.7668    6.1639 O.2       2 RES2    0.0000
     19 N9         4.0091    0.0225    7.0870 N.2       2 RES2    0.0000
     20 N10        3.2453    1.7780    8.8657 N.3       2 RES2    0.0000
     21 H1         8.3319   -0.4954   12.0110 H         1 RES1    0.0000
     22 H2         7.7555    0.8783   11.7141 H         1 RES1    0.0000
     23 H3         7.9709    0.2139   10.7065 H         1 RES1    0.0000
     24 H4         4.2369   -1.6552   11.4442 H         1 RES1    0.0000
     25 H5         4.2130   -2.4772   13.0547 H         1 RES1    0.0000
     26 H6         2.7907   -0.7206    5.3622 H         2 RES2    0.0000
     27 H7         1.2234   -0.5743    6.4419 H         2 RES2    0.0000
     28 H8         1.6482    0.4279    5.4612 H         2 RES2    0.0000
     29 H9         4.2377    1.5314    8.5562 H         2 RES2    0.0000
     30 H10        2.9477    2.3984    9.5908 H         2 RES2    0.0000
@<TRIPOS>BOND
     1    1    2 1
     2    2    3 1
     3    3    4 2
     4    4    5 1
     5    5    6 2
     6    7    5 2
     7    8    9 2
     8    9    2 1
     9   10    3 1
    10   11   12 1
    11   12   13 1
    12   13   14 2
    13   14   15 1
    14   15   16 2
    15   17   15 2
    16   18   19 2
    17   19   12 1
    18   20   13 1
    19   21    1 1
    20   22    1 1
    21   23    1 1
    22   24   10 1
    23   25   10 1
    24   26   11 1
    25   27   11 1
    26   28   11 1
    27   29   20 1
    28   30   20 1
@<TRIPOS>SUBSTRUCTURE
     1 RES1 1
     2 RES2 11

@<TRIPOS>CRYSIN
  11.6730   11.2600    9.8920  90.0000 114.5600  90.0000  14 1

