# MOL2 file generated by ConQuest
# Please check atom types

@<TRIPOS>MOLECULE
NOGUNA
    30    28     2
SMALL
NO_CHARGES
****
Generated from CSD

@<TRIPOS>ATOM
      1 C1        -1.2992    6.8418    5.4021 C.2       1 RES1    0.0000
      2 C2         0.3521    5.4591    4.0607 C.3       1 RES1    0.0000
      3 N1        -0.2562    5.8989    5.3185 N.pl3     1 RES1    0.0000
      4 N2        -1.8647    7.0565    4.2130 N.2       1 RES1    0.0000
      5 N3        -1.5651    7.3532    6.5818 N.3       1 RES1    0.0000
      6 N4         0.1920    5.4503    6.5006 N.2       1 RES1    0.0000
      7 N5        -2.9111    7.9424    4.1638 N.pl3     1 RES1    0.0000
      8 O1         1.1169    4.6478    6.4144 O.2       1 RES1    0.0000
      9 O2        -3.2602    8.2661    3.0267 O.2       1 RES1    0.0000
     10 O3        -3.4966    8.3489    5.1804 O.2       1 RES1    0.0000
     11 H1        -1.0776    7.1987    7.2273 H         1 RES1    0.0000
     12 H2        -2.2561    7.8420    6.6479 H         1 RES1    0.0000
     13 H3         1.2641    5.5016    4.1826 H         1 RES1    0.0000
     14 H4         0.1043    5.9897    3.4346 H         1 RES1    0.0000
     15 H5         0.0969    4.6365    3.9192 H         1 RES1    0.0000
     16 C3         8.6637    9.8267    0.1390 C.2       2 RES2    0.0000
     17 C4         7.0711   11.2701   -1.1850 C.3       2 RES2    0.0000
     18 N6         7.6273   10.7632    0.0701 N.pl3     2 RES2    0.0000
     19 N7         9.1802    9.5617   -1.0677 N.2       2 RES2    0.0000
     20 N8         8.9975    9.3562    1.3187 N.3       2 RES2    0.0000
     21 N9         7.0868   11.1019    1.2707 N.2       2 RES2    0.0000
     22 N10       10.2605    8.7287   -1.1392 N.pl3     2 RES2    0.0000
     23 O4         6.1510   11.8784    1.1918 O.2       2 RES2    0.0000
     24 O5        10.6349    8.4832   -2.2877 O.2       2 RES2    0.0000
     25 O6        10.8408    8.2761   -0.1402 O.2       2 RES2    0.0000
     26 H6         8.5860    9.5835    2.0017 H         2 RES2    0.0000
     27 H7         9.6610    8.8625    1.3380 H         2 RES2    0.0000
     28 H8         6.6513   10.6483   -1.6330 H         2 RES2    0.0000
     29 H9         6.8442   12.1568   -1.0957 H         2 RES2    0.0000
     30 H10        7.7095   11.3693   -1.7278 H         2 RES2    0.0000
@<TRIPOS>BOND
     1    1    3 1
     2    2    3 1
     3    3    6 1
     4    4    1 2
     5    5    1 1
     6    6    8 2
     7    7    4 1
     8    9    7 2
     9   10    7 2
    10   11    5 1
    11   12    5 1
    12   13    2 1
    13   14    2 1
    14   15    2 1
    15   16   18 1
    16   17   18 1
    17   18   21 1
    18   19   16 2
    19   20   16 1
    20   21   23 2
    21   22   19 1
    22   24   22 2
    23   25   22 2
    24   26   20 1
    25   27   20 1
    26   28   17 1
    27   29   17 1
    28   30   17 1
@<TRIPOS>SUBSTRUCTURE
     1 RES1 1
     2 RES2 16

@<TRIPOS>CRYSIN
   9.7570   11.0920   11.5890  90.0000 114.6200  90.0000  14 2

