# MOL2 file generated by ConQuest
# Please check atom types

@<TRIPOS>MOLECULE
NOHCAQ
    38    40     1
SMALL
NO_CHARGES
****
Generated from CSD

@<TRIPOS>ATOM
      1 O1         5.0399    1.2445    1.0603 O.2       1 RES1    0.0000
      2 O2         1.3767    8.3168    3.6420 O.2       1 RES1    0.0000
      3 O3         0.3879    7.1449    5.1259 O.2       1 RES1    0.0000
      4 N1         3.1222    0.3931    1.9355 N.am      1 RES1    0.0000
      5 N2         3.0811    2.2748    0.6200 N.am      1 RES1    0.0000
      6 H1         3.4775    2.7707    0.0408 H         1 RES1    0.0000
      7 N3         1.0055    7.2482    4.0853 N.pl3     1 RES1    0.0000
      8 C1        -1.2382    2.3356    0.8400 C.ar      1 RES1    0.0000
      9 H2        -0.7962    3.0923    0.5278 H         1 RES1    0.0000
     10 C2        -2.6145    2.2910    0.7873 C.ar      1 RES1    0.0000
     11 H3        -3.0855    3.0155    0.4447 H         1 RES1    0.0000
     12 C3        -3.2921    1.1932    1.2345 C.ar      1 RES1    0.0000
     13 H4        -4.2203    1.1647    1.1955 H         1 RES1    0.0000
     14 C4        -2.5822    0.1324    1.7422 C.ar      1 RES1    0.0000
     15 H5        -3.0348   -0.6202    2.0483 H         1 RES1    0.0000
     16 C5        -1.2114    0.1728    1.8006 C.ar      1 RES1    0.0000
     17 H6        -0.7507   -0.5555    2.1518 H         1 RES1    0.0000
     18 C6        -0.4912    1.2757    1.3483 C.ar      1 RES1    0.0000
     19 C7         0.9789    1.3350    1.4007 C.2       1 RES1    0.0000
     20 C8         1.7336    0.3704    1.9072 C.2       1 RES1    0.0000
     21 H7         1.3041   -0.3721    2.2685 H         1 RES1    0.0000
     22 C9         3.8165    1.3235    1.1971 C.2       1 RES1    0.0000
     23 C10        1.6752    2.5616    0.8702 C.3       1 RES1    0.0000
     24 H8         1.2632    2.7839    0.0102 H         1 RES1    0.0000
     25 C11        1.5450    3.7869    1.7709 C.ar      1 RES1    0.0000
     26 C12        1.1757    3.6905    3.0961 C.ar      1 RES1    0.0000
     27 H9         1.0320    2.8530    3.4742 H         1 RES1    0.0000
     28 C13        1.0173    4.8207    3.8663 C.ar      1 RES1    0.0000
     29 H10        0.7500    4.7532    4.7542 H         1 RES1    0.0000
     30 C14        1.2582    6.0412    3.3066 C.ar      1 RES1    0.0000
     31 C15        1.6781    6.1717    2.0107 C.ar      1 RES1    0.0000
     32 H11        1.8679    7.0091    1.6547 H         1 RES1    0.0000
     33 C16        1.8119    5.0384    1.2501 C.ar      1 RES1    0.0000
     34 H12        2.0888    5.1144    0.3659 H         1 RES1    0.0000
     35 C17        3.8502   -0.7124    2.5289 C.3       1 RES1    0.0000
     36 H13        4.1850   -0.4490    3.3896 H         1 RES1    0.0000
     37 H14        4.5838   -0.9539    1.9594 H         1 RES1    0.0000
     38 H15        3.2627   -1.4644    2.6315 H         1 RES1    0.0000
@<TRIPOS>BOND
     1    1   22 2
     2    2    7 2
     3    3    7 2
     4    4   20 1
     5    5    6 1
     6    7   30 1
     7    8    9 1
     8   10    8 ar
     9   11   10 1
    10   12   10 ar
    11   13   12 1
    12   14   12 ar
    13   15   14 1
    14   16   14 ar
    15   17   16 1
    16   18    8 ar
    17   19   18 1
    18   20   19 2
    19   21   20 1
    20   22    4 1
    21   23    5 1
    22   24   23 1
    23   25   23 1
    24   26   25 ar
    25   27   26 1
    26   28   26 ar
    27   29   28 1
    28   30   28 ar
    29   31   30 ar
    30   32   31 1
    31   33   25 ar
    32   34   33 1
    33   35    4 1
    34   36   35 1
    35   37   35 1
    36   38   35 1
    37    5   22 1
    38   16   18 ar
    39   19   23 1
    40   31   33 ar
@<TRIPOS>SUBSTRUCTURE
     1 RES1 1

@<TRIPOS>CRYSIN
  18.9351   10.9774   14.7636  90.0000  99.0720  90.0000  15 1

