# MOL2 file generated by ConQuest
# Please check atom types

@<TRIPOS>MOLECULE
NOHDFR
    16    16     1
SMALL
NO_CHARGES
****
Generated from CSD

@<TRIPOS>ATOM
      1 O1         3.4868    1.9340    4.3515 O.3       1 RES1    0.0000
      2 O2         4.9006    3.6457    5.7587 O.2       1 RES1    0.0000
      3 O3         3.7018    3.3694    7.5415 O.2       1 RES1    0.0000
      4 O4         3.4262    3.7518    2.8678 O.3       1 RES1    0.0000
      5 O5         4.8992    2.3181    1.9507 O.2       1 RES1    0.0000
      6 O6         2.1627    0.4799    2.4858 O.2       1 RES1    0.0000
      7 O7         1.8885    2.3210    1.2235 O.3       1 RES1    0.0000
      8 N1         3.9707    3.1728    6.3683 N.pl3     1 RES1    0.0000
      9 C1         2.2590    1.6433    2.3190 C.2       1 RES1    0.0000
     10 C2         2.6942    2.6477    3.4050 C.3       1 RES1    0.0000
     11 C3         1.5321    3.2165    4.1574 C.2       1 RES1    0.0000
     12 C4         1.6868    2.9921    5.4449 C.2       1 RES1    0.0000
     13 C5         2.9641    2.2487    5.6359 C.3       1 RES1    0.0000
     14 C6         1.3069    1.4949    0.1668 C.3       1 RES1    0.0000
     15 C7         4.5426    3.4455    2.1469 C.2       1 RES1    0.0000
     16 C8         5.1699    4.7005    1.6506 C.3       1 RES1    0.0000
@<TRIPOS>BOND
     1    1   10 1
     2    2    8 2
     3    3    8 2
     4    4   10 1
     5    5   15 2
     6    6    9 2
     7    7    9 1
     8    8   13 1
     9    9   10 1
    10   10   11 1
    11   11   12 2
    12   12   13 1
    13   13    1 1
    14   14    7 1
    15   15    4 1
    16   16   15 1
@<TRIPOS>SUBSTRUCTURE
     1 RES1 1

@<TRIPOS>CRYSIN
   6.4570    8.1080   10.9880  74.1600  77.9600  68.4100   2 1

