# MOL2 file generated by ConQuest
# Please check atom types

@<TRIPOS>MOLECULE
NOHMII
    88    88     2
SMALL
USER_CHARGES
****
Generated from CSD

@<TRIPOS>ATOM
      1 C1         6.7682    5.0851   11.5225 C.ar      1 RES1    0.0000
      2 C2         8.1743    5.3723   11.9019 C.ar      1 RES1    0.0000
      3 C3         9.1203    4.5276   11.4253 C.ar      1 RES1    0.0000
      4 C4         8.8399    3.3450   10.7185 C.ar      1 RES1    0.0000
      5 C5         7.6114    3.1507   10.3335 C.ar      1 RES1    0.0000
      6 C6         6.5450    4.0123   10.6376 C.ar      1 RES1    0.0000
      7 C7        10.6975    5.8453   12.6430 C.3       1 RES1    0.0000
      8 C8         4.9154    2.5763    9.5665 C.3       1 RES1    0.0000
      9 C9         5.6958    6.0227   11.9951 C.ar      1 RES1    0.0000
     10 C10        5.8775    7.3742   11.9334 C.ar      1 RES1    0.0000
     11 C11        4.9085    8.2527   12.3951 C.ar      1 RES1    0.0000
     12 C12        3.7509    7.7712   12.8841 C.ar      1 RES1    0.0000
     13 C13        3.5311    6.4028   12.9991 C.ar      1 RES1    0.0000
     14 C14        4.4693    5.5412   12.4279 C.ar      1 RES1    0.0000
     15 C15        2.6951    8.6666   13.2744 C.2       1 RES1    0.0000
     16 C16        1.4974   10.7784   13.5621 C.3       1 RES1    0.0000
     17 C17        0.5725    9.5536   13.8908 C.3       1 RES1    0.0000
     18 C18        2.1520   11.4203   14.7456 C.3       1 RES1    0.0000
     19 C19        0.8400   11.7244   12.6676 C.3       1 RES1    0.0000
     20 C20        0.0187    9.5789   15.2770 C.3       1 RES1    0.0000
     21 C21       -0.4273    9.1819   12.9265 C.3       1 RES1    0.0000
     22 C22        9.9370    2.4750   10.2500 C.ar      1 RES1    0.0000
     23 C23       11.0942    2.9396    9.6829 C.ar      1 RES1    0.0000
     24 C24       12.1234    2.0864    9.3569 C.ar      1 RES1    0.0000
     25 C25       11.9393    0.6927    9.3172 C.ar      1 RES1    0.0000
     26 C26       10.6530    0.2196    9.7870 C.ar      1 RES1    0.0000
     27 C27        9.7151    1.0728   10.2075 C.ar      1 RES1    0.0000
     28 C28       12.9939   -0.2450    8.9665 C.2       1 RES1    0.0000
     29 C29       15.0329   -1.1150    8.2597 C.3       1 RES1    0.0000
     30 C30       14.1338   -2.1793    8.5542 C.3       1 RES1    0.0000
     31 C31       16.3050   -1.0812    9.1460 C.3       1 RES1    0.0000
     32 C32       15.4256   -1.0390    6.8064 C.3       1 RES1    0.0000
     33 C33       14.3302   -2.8889    9.9829 C.3       1 RES1    0.0000
     34 C34       13.9172   -3.2690    7.5721 C.3       1 RES1    0.0000
     35 O1        10.4468    4.6881   11.8088 O.3       1 RES1    0.0000
     36 O2         5.2614    3.8518   10.1678 O.3       1 RES1    0.0000
     37 O3         3.7004   10.6939   12.8211 O.2       1 RES1    0.0000
     38 O4         1.2682    7.2391   14.3908 O.2       1 RES1   -1.0000
     39 N1         2.6250    9.9675   13.0265 N.3       1 RES1    0.0000
     40 N2         1.5934    8.3879   13.8141 N.pl3     1 RES1    1.0000
     41 O5        14.8832    1.1319    9.0953 O.2       1 RES1    0.0000
     42 O6        12.2414   -2.1954   10.0842 O.2       1 RES1   -1.0000
     43 N3        14.3470    0.0169    8.8624 N.3       1 RES1    0.0000
     44 N4        12.9855   -1.5711    9.3172 N.pl3     1 RES1    1.0000
     45 H1         8.4000    6.1038   12.4649 H         1 RES1    0.0000
     46 H2         7.4231    2.3989    9.7870 H         1 RES1    0.0000
     47 H3        11.6214    5.9163   12.8676 H         1 RES1    0.0000
     48 H4        10.1953    5.7000   13.4388 H         1 RES1    0.0000
     49 H5        10.4127    6.6562   12.2375 H         1 RES1    0.0000
     50 H6         4.0146    2.6059    9.2651 H         1 RES1    0.0000
     51 H7         5.0037    1.9099   10.2377 H         1 RES1    0.0000
     52 H8         5.4862    2.3694    8.8364 H         1 RES1    0.0000
     53 H9         6.7218    7.7146   11.6444 H         1 RES1    0.0000
     54 H10        5.0513    9.1912   12.3252 H         1 RES1    0.0000
     55 H11        2.7458    6.0785   13.4210 H         1 RES1    0.0000
     56 H12        4.2752    4.6129   12.3718 H         1 RES1    0.0000
     57 H13        2.6968   12.1476   14.4798 H         1 RES1    0.0000
     58 H14        1.4716   11.7261   15.3332 H         1 RES1    0.0000
     59 H15        2.6848   10.7691   15.1921 H         1 RES1    0.0000
     60 H16        1.4247   12.4433   12.4704 H         1 RES1    0.0000
     61 H17        0.0685   12.0505   13.1114 H         1 RES1    0.0000
     62 H18        0.5820   11.2928   11.8595 H         1 RES1    0.0000
     63 H19       -0.5168    8.8043   15.3948 H         1 RES1    0.0000
     64 H20        0.7343    9.5654   15.9058 H         1 RES1    0.0000
     65 H21       -0.5056   10.3552   15.4113 H         1 RES1    0.0000
     66 H22       -0.9140    8.4377   13.2580 H         1 RES1    0.0000
     67 H23       -1.0198    9.9142   12.7937 H         1 RES1    0.0000
     68 H24       -0.0170    8.9538   12.1019 H         1 RES1    0.0000
     69 H25       11.1992    3.8772    9.5651 H         1 RES1    0.0000
     70 H26       12.9797    2.4420    9.1487 H         1 RES1    0.0000
     71 H27       10.4732   -0.7129    9.7788 H         1 RES1    0.0000
     72 H28        8.8916    0.7416   10.5486 H         1 RES1    0.0000
     73 H29       16.9060   -0.3776    8.9241 H         1 RES1    0.0000
     74 H30       16.7494   -1.9141    9.0651 H         1 RES1    0.0000
     75 H31       16.0036   -0.9655   10.0390 H         1 RES1    0.0000
     76 H32       16.0513   -0.3362    6.6338 H         1 RES1    0.0000
     77 H33       15.8136   -1.8676    6.5502 H         1 RES1    0.0000
     78 H34       14.6371   -0.8852    6.3092 H         1 RES1    0.0000
     79 H35       14.5371   -2.2064   10.6116 H         1 RES1    0.0000
     80 H36       15.0379   -3.5216    9.9582 H         1 RES1    0.0000
     81 H37       13.5247   -3.3214   10.2390 H         1 RES1    0.0000
     82 H38       13.8105   -2.8703    6.7174 H         1 RES1    0.0000
     83 H39       14.6212   -3.9067    7.5392 H         1 RES1    0.0000
     84 H40       13.1093   -3.7065    7.8200 H         1 RES1    0.0000
     85 O7        14.4037    1.1657    7.7625 Du        2 SUP2    0.0000
     86 O8        11.7466   -2.1709    8.4104 Du        2 SUP2    0.0000
     87 N5        14.0473    0.0676    8.1460 Du        2 SUP2    0.0000
     88 N6        12.8302   -1.5289    8.5227 Du        2 SUP2    0.0000
@<TRIPOS>BOND
     1    1    2 ar
     2    2    3 ar
     3    3    4 ar
     4    4    5 ar
     5    5    6 ar
     6    6    1 ar
     7    7   35 1
     8    8   36 1
     9    9    1 1
    10   10    9 ar
    11   11   10 ar
    12   12   11 ar
    13   13   12 ar
    14   14    9 ar
    15   15   12 1
    16   16   17 1
    17   17   20 1
    18   18   16 1
    19   19   16 1
    20   20   63 1
    21   21   17 1
    22   22    4 1
    23   23   22 ar
    24   24   23 ar
    25   25   24 ar
    26   26   25 ar
    27   27   22 ar
    28   28   25 1
    29   29   30 1
    30   30   33 1
    31   31   29 1
    32   32   29 1
    33   33   79 1
    34   34   30 1
    35   35    3 1
    36   36    6 1
    37   37   39 1
    38   38   40 1
    39   39   15 1
    40   40   15 2
    41   41   43 1
    42   42   44 1
    43   43   28 1
    44   44   28 2
    45   45    2 1
    46   46    5 1
    47   47    7 1
    48   48    7 1
    49   49    7 1
    50   50    8 1
    51   51    8 1
    52   52    8 1
    53   53   10 1
    54   54   11 1
    55   55   13 1
    56   56   14 1
    57   57   18 1
    58   58   18 1
    59   59   18 1
    60   60   19 1
    61   61   19 1
    62   62   19 1
    63   64   20 1
    64   65   20 1
    65   66   21 1
    66   67   21 1
    67   68   21 1
    68   69   23 1
    69   70   24 1
    70   71   26 1
    71   72   27 1
    72   73   31 1
    73   74   31 1
    74   75   31 1
    75   76   32 1
    76   77   32 1
    77   78   32 1
    78   80   33 1
    79   81   33 1
    80   82   34 1
    81   83   34 1
    82   84   34 1
    83   13   14 ar
    84   16   39 1
    85   17   40 1
    86   26   27 ar
    87   29   43 1
    88   30   44 1
@<TRIPOS>SUBSTRUCTURE
     1 RES1 1
     2 SUP2 85

