# MOL2 file generated by ConQuest
# Please check atom types

@<TRIPOS>MOLECULE
NOHMUU
    70    73     1
SMALL
USER_CHARGES
****
Generated from CSD

@<TRIPOS>ATOM
      1 O1         0.9186    5.3299    0.4036 O.2       1 RES1   -1.0000
      2 N1         1.5588    4.2329    0.2868 N.pl3     1 RES1    1.0000
      3 O2         4.3464    2.2688   -0.1870 O.2       1 RES1    0.0000
      4 C1         3.8435    5.2008    0.0533 C.ar      1 RES1    0.0000
      5 C2         4.5081    7.4355    0.6820 C.ar      1 RES1    0.0000
      6 C3         6.7365    8.2843    0.0017 C.1       1 RES1    0.0000
      7 C4         7.6527    9.0677    0.0000 C.1       1 RES1    0.0000
      8 N2         3.1840    2.7795   -0.0169 N.3       1 RES1    0.0000
      9 C5         0.8281    2.9289    0.1692 C.3       1 RES1    0.0000
     10 C6         2.8853    4.1003    0.1075 C.2       1 RES1    0.0000
     11 C7         5.0638    5.0393   -0.6278 C.ar      1 RES1    0.0000
     12 C8         5.9806    6.0665   -0.6558 C.ar      1 RES1    0.0000
     13 C9         3.5747    6.4210    0.6871 C.ar      1 RES1    0.0000
     14 C10        5.7283    7.2748    0.0051 C.ar      1 RES1    0.0000
     15 C11        1.9964    1.9059    0.2420 C.3       1 RES1    0.0000
     16 C12        0.1240    2.9558   -1.1897 C.3       1 RES1    0.0000
     17 C13       -0.2091    2.8548    1.2760 C.3       1 RES1    0.0000
     18 C14        2.2177    1.3369    1.6432 C.3       1 RES1    0.0000
     19 C15        1.9502    0.7897   -0.7759 C.3       1 RES1    0.0000
     20 H1         4.3324    8.2505    1.1381 H         1 RES1    0.0000
     21 H2         5.2545    4.2203   -1.0712 H         1 RES1    0.0000
     22 H3         6.7991    5.9587   -1.1262 H         1 RES1    0.0000
     23 H4         2.7418    6.5521    1.1254 H         1 RES1    0.0000
     24 H5        -0.3617    2.1492   -1.3166 H         1 RES1    0.0000
     25 H6        -0.4732    3.6935   -1.2193 H         1 RES1    0.0000
     26 H7         0.7727    3.0450   -1.8776 H         1 RES1    0.0000
     27 H8        -0.6891    2.0369    1.2075 H         1 RES1    0.0000
     28 H9        -0.8124    3.5851    1.1965 H         1 RES1    0.0000
     29 H10        0.2281    2.8947    2.1179 H         1 RES1    0.0000
     30 H11        1.4982    0.7627    1.8768 H         1 RES1    0.0000
     31 H12        2.2740    2.0465    2.2719 H         1 RES1    0.0000
     32 H13        3.0301    0.8444    1.6483 H         1 RES1    0.0000
     33 H14        1.1946    0.2396   -0.6042 H         1 RES1    0.0000
     34 H15        2.7419    0.2682   -0.7150 H         1 RES1    0.0000
     35 H16        1.8800    1.1602   -1.6483 H         1 RES1    0.0000
     36 O1B       15.4350   13.6892   -0.4036 O.2       1 RES1   -1.0000
     37 N1B       14.7948   14.7862   -0.2868 N.pl3     1 RES1    1.0000
     38 O2B       12.0072   16.7503    0.1870 O.2       1 RES1    0.0000
     39 C1B       12.5101   13.8183   -0.0533 C.ar      1 RES1    0.0000
     40 C2B       11.8455   11.5836   -0.6820 C.ar      1 RES1    0.0000
     41 C3B        9.6171   10.7348   -0.0017 C.1       1 RES1    0.0000
     42 C4B        8.7009    9.9514    0.0000 C.1       1 RES1    0.0000
     43 N2B       13.1696   16.2396    0.0169 N.pl3     1 RES1    0.0000
     44 C5B       15.5255   16.0902   -0.1692 C.3       1 RES1    0.0000
     45 C6B       13.4683   14.9188   -0.1075 C.2       1 RES1    0.0000
     46 C7B       11.2898   13.9798    0.6278 C.ar      1 RES1    0.0000
     47 C8B       10.3730   12.9526    0.6558 C.ar      1 RES1    0.0000
     48 C9B       12.7789   12.5981   -0.6871 C.ar      1 RES1    0.0000
     49 C10B      10.6253   11.7443   -0.0051 C.ar      1 RES1    0.0000
     50 C11B      14.3572   17.1132   -0.2420 C.3       1 RES1    0.0000
     51 C12B      16.2296   16.0633    1.1897 C.3       1 RES1    0.0000
     52 C13B      16.5627   16.1643   -1.2760 C.3       1 RES1    0.0000
     53 C14B      14.1359   17.6822   -1.6432 C.3       1 RES1    0.0000
     54 C15B      14.4034   18.2294    0.7759 C.3       1 RES1    0.0000
     55 H1B       12.0212   10.7686   -1.1381 H         1 RES1    0.0000
     56 H2B       11.0991   14.7988    1.0712 H         1 RES1    0.0000
     57 H3B        9.5545   13.0604    1.1262 H         1 RES1    0.0000
     58 H4B       13.6118   12.4670   -1.1254 H         1 RES1    0.0000
     59 H5B       16.7153   16.8699    1.3166 H         1 RES1    0.0000
     60 H6B       16.8268   15.3256    1.2193 H         1 RES1    0.0000
     61 H7B       15.5809   15.9741    1.8776 H         1 RES1    0.0000
     62 H8B       17.0427   16.9822   -1.2075 H         1 RES1    0.0000
     63 H9B       17.1660   15.4340   -1.1965 H         1 RES1    0.0000
     64 H10B      16.1255   16.1244   -2.1179 H         1 RES1    0.0000
     65 H11B      14.8554   18.2564   -1.8768 H         1 RES1    0.0000
     66 H12B      14.0796   16.9726   -2.2719 H         1 RES1    0.0000
     67 H13B      13.3235   18.1747   -1.6483 H         1 RES1    0.0000
     68 H14B      15.1590   18.7795    0.6042 H         1 RES1    0.0000
     69 H15B      13.6117   18.7509    0.7150 H         1 RES1    0.0000
     70 H16B      14.4736   17.8589    1.6483 H         1 RES1    0.0000
@<TRIPOS>BOND
     1    1    2 1
     2    2    9 1
     3    3    8 1
     4    4   10 1
     5    5   13 ar
     6    6    7 3
     7    7   42 1
     8    8   10 1
     9    9   15 1
    10   10    2 2
    11   11    4 ar
    12   12   11 ar
    13   13    4 ar
    14   14    5 ar
    15   15    8 1
    16   16    9 1
    17   17    9 1
    18   18   15 1
    19   19   15 1
    20   20    5 1
    21   21   11 1
    22   22   12 1
    23   23   13 1
    24   24   16 1
    25   25   16 1
    26   26   16 1
    27   27   17 1
    28   28   17 1
    29   29   17 1
    30   30   18 1
    31   31   18 1
    32   32   18 1
    33   33   19 1
    34   34   19 1
    35   35   19 1
    36   36   37 1
    37   37   44 1
    38   38   43 1
    39   39   45 1
    40   40   48 ar
    41   41   42 3
    42   43   45 2
    43   44   50 1
    44   45   37 1
    45   46   39 ar
    46   47   46 ar
    47   48   39 ar
    48   49   40 ar
    49   50   43 1
    50   51   44 1
    51   52   44 1
    52   53   50 1
    53   54   50 1
    54   55   40 1
    55   56   46 1
    56   57   47 1
    57   58   48 1
    58   59   51 1
    59   60   51 1
    60   61   51 1
    61   62   52 1
    62   63   52 1
    63   64   52 1
    64   65   53 1
    65   66   53 1
    66   67   53 1
    67   68   54 1
    68   69   54 1
    69   70   54 1
    70    6   14 1
    71   12   14 ar
    72   41   49 1
    73   47   49 ar
@<TRIPOS>SUBSTRUCTURE
     1 RES1 1

@<TRIPOS>CRYSIN
   8.1768   19.0191    8.6983  90.0000 103.4000  90.0000  14 1

