# MOL2 file generated by ConQuest
# Please check atom types

@<TRIPOS>MOLECULE
NOHMOO
    68    71     1
SMALL
USER_CHARGES
****
Generated from CSD

@<TRIPOS>ATOM
      1 N1         3.4644    0.5032    3.5952 N.pl3     1 RES1    1.0000
      2 N2         2.2077   -0.7937    2.3466 N.3       1 RES1    0.0000
      3 C1         0.2484    5.1363    0.2398 C.1       1 RES1    0.0000
      4 C2         0.8251    3.9623    0.8241 C.ar      1 RES1    0.0000
      5 C3         2.1102    4.0115    1.3922 C.ar      1 RES1    0.0000
      6 C4         2.6553    2.8816    1.9787 C.ar      1 RES1    0.0000
      7 C5         1.9383    1.6752    2.0003 C.ar      1 RES1    0.0000
      8 C6         0.6627    1.6243    1.4119 C.ar      1 RES1    0.0000
      9 C7         0.1187    2.7583    0.8329 C.ar      1 RES1    0.0000
     10 C8         2.5211    0.4957    2.6304 C.2       1 RES1    0.0000
     11 C9         3.7303   -0.8623    4.1479 C.3       1 RES1    0.0000
     12 C10        5.2259   -1.0126    4.3787 C.3       1 RES1    0.0000
     13 C11        2.9797   -0.9360    5.4810 C.3       1 RES1    0.0000
     14 C12        3.1266   -1.7670    3.0357 C.3       1 RES1    0.0000
     15 C13        4.1396   -2.1965    1.9787 C.3       1 RES1    0.0000
     16 C14        2.3390   -2.9684    3.5237 C.3       1 RES1    0.0000
     17 O1         3.9908    1.5329    4.1398 O.2       1 RES1   -1.0000
     18 O2         1.3694   -1.1946    1.4701 O.2       1 RES1    0.0000
     19 H1         2.6038    4.8230    1.3748 H         1 RES1    0.0000
     20 H2         3.5176    2.9226    2.3749 H         1 RES1    0.0000
     21 H3         0.1785    0.8072    1.4093 H         1 RES1    0.0000
     22 H4        -0.7455    2.7177    0.4398 H         1 RES1    0.0000
     23 H5         5.4099   -1.8722    4.7383 H         1 RES1    0.0000
     24 H6         5.5237   -0.3456    4.9869 H         1 RES1    0.0000
     25 H7         5.6796   -0.9119    3.5509 H         1 RES1    0.0000
     26 H8         3.1218   -1.7878    5.8761 H         1 RES1    0.0000
     27 H9         3.3040   -0.2589    6.0635 H         1 RES1    0.0000
     28 H10        2.0505   -0.8072    5.3330 H         1 RES1    0.0000
     29 H11        4.7491   -2.8179    2.3596 H         1 RES1    0.0000
     30 H12        4.6156   -1.4354    1.6693 H         1 RES1    0.0000
     31 H13        3.6848   -2.6040    1.2506 H         1 RES1    0.0000
     32 H14        2.9253   -3.5789    3.9543 H         1 RES1    0.0000
     33 H15        1.6761   -2.6783    4.1398 H         1 RES1    0.0000
     34 H16        1.9214   -3.3977    2.7860 H         1 RES1    0.0000
     35 N1B       -3.4644   10.7549   -3.5952 N.pl3     1 RES1    1.0000
     36 N2B       -2.2077   12.0518   -2.3466 N.3       1 RES1    0.0000
     37 C1B       -0.2484    6.1218   -0.2398 C.1       1 RES1    0.0000
     38 C2B       -0.8251    7.2958   -0.8241 C.ar      1 RES1    0.0000
     39 C3B       -2.1102    7.2466   -1.3922 C.ar      1 RES1    0.0000
     40 C4B       -2.6553    8.3765   -1.9787 C.ar      1 RES1    0.0000
     41 C5B       -1.9383    9.5829   -2.0003 C.ar      1 RES1    0.0000
     42 C6B       -0.6627    9.6338   -1.4119 C.ar      1 RES1    0.0000
     43 C7B       -0.1187    8.4998   -0.8329 C.ar      1 RES1    0.0000
     44 C8B       -2.5211   10.7624   -2.6304 C.2       1 RES1    0.0000
     45 C9B       -3.7303   12.1204   -4.1479 C.3       1 RES1    0.0000
     46 C10B      -5.2259   12.2707   -4.3787 C.3       1 RES1    0.0000
     47 C11B      -2.9797   12.1941   -5.4810 C.3       1 RES1    0.0000
     48 C12B      -3.1266   13.0251   -3.0357 C.3       1 RES1    0.0000
     49 C13B      -4.1396   13.4546   -1.9787 C.3       1 RES1    0.0000
     50 C14B      -2.3390   14.2265   -3.5237 C.3       1 RES1    0.0000
     51 O1B       -3.9908    9.7252   -4.1398 O.2       1 RES1   -1.0000
     52 O2B       -1.3694   12.4527   -1.4701 O.2       1 RES1    0.0000
     53 H1B       -2.6038    6.4351   -1.3748 H         1 RES1    0.0000
     54 H2B       -3.5176    8.3355   -2.3749 H         1 RES1    0.0000
     55 H3B       -0.1785   10.4509   -1.4093 H         1 RES1    0.0000
     56 H4B        0.7455    8.5404   -0.4398 H         1 RES1    0.0000
     57 H5B       -5.4099   13.1303   -4.7383 H         1 RES1    0.0000
     58 H6B       -5.5237   11.6037   -4.9869 H         1 RES1    0.0000
     59 H7B       -5.6796   12.1700   -3.5509 H         1 RES1    0.0000
     60 H8B       -3.1218   13.0459   -5.8761 H         1 RES1    0.0000
     61 H9B       -3.3040   11.5170   -6.0635 H         1 RES1    0.0000
     62 H10B      -2.0505   12.0653   -5.3330 H         1 RES1    0.0000
     63 H11B      -4.7491   14.0760   -2.3596 H         1 RES1    0.0000
     64 H12B      -4.6156   12.6935   -1.6693 H         1 RES1    0.0000
     65 H13B      -3.6848   13.8621   -1.2506 H         1 RES1    0.0000
     66 H14B      -2.9253   14.8370   -3.9543 H         1 RES1    0.0000
     67 H15B      -1.6761   13.9364   -4.1398 H         1 RES1    0.0000
     68 H16B      -1.9214   14.6558   -2.7860 H         1 RES1    0.0000
@<TRIPOS>BOND
     1    1   10 2
     2    2   10 1
     3    3    4 1
     4    4    5 ar
     5    5    6 ar
     6    6    7 ar
     7    7    8 ar
     8    8    9 ar
     9    9    4 ar
    10   10    7 1
    11   11    1 1
    12   12   11 1
    13   13   11 1
    14   14    2 1
    15   15   14 1
    16   16   14 1
    17   17    1 1
    18   18    2 1
    19   19    5 1
    20   20    6 1
    21   21    8 1
    22   22    9 1
    23   23   12 1
    24   24   12 1
    25   25   12 1
    26   26   13 1
    27   27   13 1
    28   28   13 1
    29   29   15 1
    30   30   15 1
    31   31   15 1
    32   32   16 1
    33   33   16 1
    34   34   16 1
    35   35   44 2
    36   36   44 1
    37   37    3 3
    38   38   37 1
    39   39   38 ar
    40   40   39 ar
    41   41   40 ar
    42   42   41 ar
    43   43   38 ar
    44   44   41 1
    45   45   35 1
    46   46   45 1
    47   47   45 1
    48   48   36 1
    49   49   48 1
    50   50   48 1
    51   51   35 1
    52   52   36 1
    53   53   39 1
    54   54   40 1
    55   55   42 1
    56   56   43 1
    57   57   46 1
    58   58   46 1
    59   59   46 1
    60   60   47 1
    61   61   47 1
    62   62   47 1
    63   63   49 1
    64   64   49 1
    65   65   49 1
    66   66   50 1
    67   67   50 1
    68   68   50 1
    69   11   14 1
    70   42   43 ar
    71   45   48 1
@<TRIPOS>SUBSTRUCTURE
     1 RES1 1

@<TRIPOS>CRYSIN
   6.0834   11.2581   19.1236  90.0000  90.8320  90.0000 231 1

