# MOL2 file generated by ConQuest
# Please check atom types

@<TRIPOS>MOLECULE
NOHQOR
    45    46     1
SMALL
USER_CHARGES
****
Generated from CSD

@<TRIPOS>ATOM
      1 O1        15.9576    0.7856    0.6275 O.2       1 RES1   -1.0000
      2 N1        16.2255    1.6858   -0.2950 N.pl3     1 RES1    1.0000
      3 C1        15.5018    2.8548   -0.3340 C.ar      1 RES1    0.0000
      4 C2        15.7756    3.7690   -1.3093 C.ar      1 RES1    0.0000
      5 H1        15.2626    4.5539   -1.3640 H         1 RES1    0.0000
      6 C3        16.7882    3.5636   -2.2145 C.ar      1 RES1    0.0000
      7 H2        16.9762    4.2031   -2.8762 H         1 RES1    0.0000
      8 C4        17.5233    2.3957   -2.1287 C.ar      1 RES1    0.0000
      9 H3        18.2250    2.2380   -2.7326 H         1 RES1    0.0000
     10 C5        17.2292    1.4792   -1.1751 C.ar      1 RES1    0.0000
     11 H4        17.7319    0.6866   -1.1252 H         1 RES1    0.0000
     12 C6        14.4662    2.9886    0.7194 C.3       1 RES1    0.0000
     13 H5        13.8329    2.2456    0.6430 H         1 RES1    0.0000
     14 H6        14.8937    2.9299    1.5996 H         1 RES1    0.0000
     15 N2        13.7353    4.2589    0.6227 N.pl3     1 RES1    0.0000
     16 H7        14.2905    4.8007    0.8583 H         1 RES1    0.0000
     17 C7        12.5017    4.2880    1.3593 C.ar      1 RES1    0.0000
     18 C8        12.3822    5.0241    2.5485 C.ar      1 RES1    0.0000
     19 C9        11.1571    4.9875    3.2086 C.ar      1 RES1    0.0000
     20 H8        11.0443    5.4908    3.9936 H         1 RES1    0.0000
     21 C10       10.1031    4.2275    2.7357 C.ar      1 RES1    0.0000
     22 H9         9.2988    4.1850    3.2195 H         1 RES1    0.0000
     23 C11       10.2361    3.5391    1.5606 C.ar      1 RES1    0.0000
     24 H10        9.5117    3.0329    1.2438 H         1 RES1    0.0000
     25 C12       11.4207    3.5647    0.8162 C.ar      1 RES1    0.0000
     26 C13       13.5341    5.8452    3.1134 C.3       1 RES1    0.0000
     27 H11       14.0919    6.1431    2.3518 H         1 RES1    0.0000
     28 C14       13.0786    7.1015    3.8797 C.3       1 RES1    0.0000
     29 H12       12.4776    7.6200    3.3225 H         1 RES1    0.0000
     30 H13       13.8542    7.6392    4.1091 H         1 RES1    0.0000
     31 H14       12.6195    6.8356    4.6912 H         1 RES1    0.0000
     32 C15       14.4133    4.9793    4.0279 C.3       1 RES1    0.0000
     33 H15       13.8825    4.6529    4.7723 H         1 RES1    0.0000
     34 H16       15.1527    5.5106    4.3666 H         1 RES1    0.0000
     35 H17       14.7624    4.2263    3.5238 H         1 RES1    0.0000
     36 C16       11.4679    2.8944   -0.5337 C.3       1 RES1    0.0000
     37 H18       12.3463    3.0998   -0.9395 H         1 RES1    0.0000
     38 C17       10.3936    3.4402   -1.4654 C.3       1 RES1    0.0000
     39 H19        9.5187    3.1853   -1.1346 H         1 RES1    0.0000
     40 H20       10.5228    3.0759   -2.3565 H         1 RES1    0.0000
     41 H21       10.4554    4.4079   -1.5013 H         1 RES1    0.0000
     42 C18       11.3519    1.3646   -0.4260 C.3       1 RES1    0.0000
     43 H22       12.0838    1.0224    0.1108 H         1 RES1    0.0000
     44 H23       11.3884    0.9735   -1.3125 H         1 RES1    0.0000
     45 H24       10.5086    1.1335   -0.0062 H         1 RES1    0.0000
@<TRIPOS>BOND
     1    1    2 1
     2    2    3 ar
     3    3    4 ar
     4    4    5 1
     5    6    4 ar
     6    7    6 1
     7    8    6 ar
     8    9    8 1
     9   10    2 ar
    10   11   10 1
    11   12    3 1
    12   13   12 1
    13   14   12 1
    14   15   12 1
    15   16   15 1
    16   17   15 1
    17   18   17 ar
    18   19   18 ar
    19   20   19 1
    20   21   19 ar
    21   22   21 1
    22   23   21 ar
    23   24   23 1
    24   25   17 ar
    25   26   18 1
    26   27   26 1
    27   28   26 1
    28   29   28 1
    29   30   28 1
    30   31   28 1
    31   32   26 1
    32   33   32 1
    33   34   32 1
    34   35   32 1
    35   36   25 1
    36   37   36 1
    37   38   36 1
    38   39   38 1
    39   40   38 1
    40   41   38 1
    41   42   36 1
    42   43   42 1
    43   44   42 1
    44   45   42 1
    45    8   10 ar
    46   23   25 ar
@<TRIPOS>SUBSTRUCTURE
     1 RES1 1

@<TRIPOS>CRYSIN
  35.4780    5.8190   15.6060  90.0000  90.0000  90.0000  60 1

