# MOL2 file generated by ConQuest
# Please check atom types

@<TRIPOS>MOLECULE
NOHROS
   108   102     3
SMALL
USER_CHARGES
****
Generated from CSD

@<TRIPOS>ATOM
      1 O1         8.2757   11.9602    8.8346 O.2       1 RES1   -1.0000
      2 N1         8.3993   10.7652    8.3741 N.pl3     1 RES1    1.0000
      3 C1         7.7660    9.7206    8.9566 C.ar      1 RES1    0.0000
      4 C2         7.8889    8.4343    8.4059 C.ar      1 RES1    0.0000
      5 H1         7.4295    7.7173    8.8049 H         1 RES1    0.0000
      6 C3         8.6547    8.2027    7.3118 C.ar      1 RES1    0.0000
      7 H2         8.7128    7.3385    6.9471 H         1 RES1    0.0000
      8 C4         9.3673    9.2751    6.7241 C.ar      1 RES1    0.0000
      9 C5         9.2286   10.5621    7.2679 C.ar      1 RES1    0.0000
     10 C6         7.0088    9.9871   10.1785 C.2       1 RES1    0.0000
     11 H3         6.9907   10.8519   10.5486 H         1 RES1    0.0000
     12 N2         6.3776    9.0405   10.7336 N.2       1 RES1    0.0000
     13 C7         5.6982    9.2623   11.9628 C.ar      1 RES1    0.0000
     14 C8         6.3846    8.9980   13.1603 C.ar      1 RES1    0.0000
     15 C9         5.6658    9.1038   14.3379 C.ar      1 RES1    0.0000
     16 H4         6.0948    8.9268   15.1560 H         1 RES1    0.0000
     17 C10        4.3351    9.4615   14.3419 C.ar      1 RES1    0.0000
     18 H5         3.8721    9.5383   15.1560 H         1 RES1    0.0000
     19 C11        3.6850    9.7052   13.1593 C.ar      1 RES1    0.0000
     20 H6         2.7771    9.9488   13.1703 H         1 RES1    0.0000
     21 C12        4.3446    9.5981   11.9530 C.ar      1 RES1    0.0000
     22 C13        7.8565    8.5975   13.1353 C.3       1 RES1    0.0000
     23 H7         8.3125    9.2218   12.5164 H         1 RES1    0.0000
     24 C14        8.5628    8.7103   14.4729 C.3       1 RES1    0.0000
     25 H8         8.5104    9.6254   14.7901 H         1 RES1    0.0000
     26 H9         9.4934    8.4568   14.3701 H         1 RES1    0.0000
     27 H10        8.1359    8.1206   15.1140 H         1 RES1    0.0000
     28 C15        8.0477    7.1974   12.5670 C.3       1 RES1    0.0000
     29 H11        7.6290    6.5493   13.1563 H         1 RES1    0.0000
     30 H12        8.9953    7.0040   12.4944 H         1 RES1    0.0000
     31 H13        7.6384    7.1464   11.6885 H         1 RES1    0.0000
     32 C16        3.4925   10.1945   10.8266 C.3       1 RES1    0.0000
     33 H14        4.1052   10.7061   10.2407 H         1 RES1    0.0000
     34 C17        3.0790    8.9642   10.0667 C.3       1 RES1    0.0000
     35 H15        3.8682    8.4698    9.7947 H         1 RES1    0.0000
     36 H16        2.5749    9.2251    9.2788 H         1 RES1    0.0000
     37 H17        2.5250    8.4039   10.6326 H         1 RES1    0.0000
     38 C18        2.2879   11.0663   11.0726 C.3       1 RES1    0.0000
     39 H18        1.9238   11.3620   10.2227 H         1 RES1    0.0000
     40 H19        2.5496   11.8387   11.5985 H         1 RES1    0.0000
     41 H20        1.6155   10.5598   11.5545 H         1 RES1    0.0000
     42 C19        3.7407    9.4737   10.4726 Du        3 SUP3    0.0000
     43 H21        4.3622    8.9382    9.9187 Du        3 SUP3    0.0000
     44 C20        2.3789    8.7986   10.4726 Du        3 SUP3    0.0000
     45 H22        1.7825    9.2747   11.0706 Du        3 SUP3    0.0000
     46 H23        2.4736    7.8818   10.7726 Du        3 SUP3    0.0000
     47 H24        2.0128    8.8091    9.5748 Du        3 SUP3    0.0000
     48 C21        3.6742   10.8546    9.9187 Du        3 SUP3    0.0000
     49 H25        3.1617   11.4195   10.5186 Du        3 SUP3    0.0000
     50 H26        3.2459   10.8342    9.0488 Du        3 SUP3    0.0000
     51 H27        4.5721   11.2115    9.8287 Du        3 SUP3    0.0000
     52 C22       10.2277    9.1280    5.6139 C.ar      1 RES1    0.0000
     53 H28       10.3415    8.2806    5.2233 H         1 RES1    0.0000
     54 C23       10.8940   10.1994    5.1025 C.ar      1 RES1    0.0000
     55 H29       11.4661   10.0827    4.3654 H         1 RES1    0.0000
     56 C24       10.7362   11.4636    5.6609 C.ar      1 RES1    0.0000
     57 H30       11.2094   12.1924    5.3013 H         1 RES1    0.0000
     58 C25        9.9057   11.6619    6.7239 C.ar      1 RES1    0.0000
     59 H31        9.7890   12.5211    7.0851 H         1 RES1    0.0000
     60 O2         7.5751    7.9408    3.4805 O.2       2 RES2   -1.0000
     61 N3         7.8370    9.1942    3.3028 N.pl3     2 RES2    1.0000
     62 C26        8.6630    9.6046    2.3103 C.ar      2 RES2    0.0000
     63 C27        8.9401   10.9705    2.1347 C.ar      2 RES2    0.0000
     64 H32        9.5004   11.2402    1.4298 H         2 RES2    0.0000
     65 C28        8.4155   11.9047    2.9596 C.ar      2 RES2    0.0000
     66 H33        8.6231   12.8140    2.8396 H         2 RES2    0.0000
     67 C29        7.5524   11.4998    4.0035 C.ar      2 RES2    0.0000
     68 C30        7.2534   10.1312    4.1639 C.ar      2 RES2    0.0000
     69 C31        9.2900    8.5804    1.4936 C.2       2 RES2    0.0000
     70 H34        9.1707    7.6738    1.7118 H         2 RES2    0.0000
     71 N4         9.9956    8.8957    0.4911 N.2       2 RES2    0.0000
     72 C32       10.6777    7.8605   -0.2100 C.ar      2 RES2    0.0000
     73 C33       10.0065    7.0554   -1.1441 C.ar      2 RES2    0.0000
     74 C34       10.7555    6.0785   -1.7962 C.ar      2 RES2    0.0000
     75 H35       10.3323    5.5144   -2.4177 H         2 RES2    0.0000
     76 C35       12.1070    5.9203   -1.5500 C.ar      2 RES2    0.0000
     77 H36       12.5870    5.2414   -1.9897 H         2 RES2    0.0000
     78 C36       12.7498    6.7519   -0.6649 C.ar      2 RES2    0.0000
     79 H37       13.6725    6.6473   -0.5199 H         2 RES2    0.0000
     80 C37       12.0576    7.7456    0.0192 C.ar      2 RES2    0.0000
     81 C38        8.5451    7.3058   -1.4692 C.3       2 RES2    0.0000
     82 H38        8.0771    7.4572   -0.6099 H         2 RES2    0.0000
     83 C39        8.4004    8.5865   -2.2919 C.3       2 RES2    0.0000
     84 H39        8.8493    8.4753   -3.1436 H         2 RES2    0.0000
     85 H40        8.7998    9.3267   -1.8098 H         2 RES2    0.0000
     86 H41        7.4596    8.7691   -2.4437 H         2 RES2    0.0000
     87 C40        7.8594    6.1377   -2.1493 C.3       2 RES2    0.0000
     88 H42        8.2795    5.9714   -3.0076 H         2 RES2    0.0000
     89 H43        6.9211    6.3469   -2.2837 H         2 RES2    0.0000
     90 H44        7.9380    5.3473   -1.5918 H         2 RES2    0.0000
     91 C41       12.7424    8.6698    1.0079 C.3       2 RES2    0.0000
     92 H45       12.2281    9.5159    1.0279 H         2 RES2    0.0000
     93 C42       12.7121    8.0828    2.4173 C.3       2 RES2    0.0000
     94 H46       11.7917    7.9364    2.6876 H         2 RES2    0.0000
     95 H47       13.1346    8.7000    3.0336 H         2 RES2    0.0000
     96 H48       13.1893    7.2376    2.4257 H         2 RES2    0.0000
     97 C43       14.1745    9.0139    0.6217 C.3       2 RES2    0.0000
     98 H49       14.7324    8.2257    0.7119 H         2 RES2    0.0000
     99 H50       14.5074    9.7141    1.2058 H         2 RES2    0.0000
    100 H51       14.1965    9.3227   -0.2980 H         2 RES2    0.0000
    101 C44        6.9742   12.3951    4.9298 C.ar      2 RES2    0.0000
    102 H52        7.1664   13.3131    4.8674 H         2 RES2    0.0000
    103 C45        6.1393   11.9457    5.9172 C.ar      2 RES2    0.0000
    104 H53        5.7604   12.5576    6.5212 H         2 RES2    0.0000
    105 C46        5.8473   10.5894    6.0344 C.ar      2 RES2    0.0000
    106 H54        5.2672   10.2950    6.7131 H         2 RES2    0.0000
    107 C47        6.3930    9.6831    5.1751 C.ar      2 RES2    0.0000
    108 H55        6.1955    8.7688    5.2593 H         2 RES2    0.0000
@<TRIPOS>BOND
     1    1    2 1
     2    2    3 ar
     3    3    4 ar
     4    4    5 1
     5    6    4 ar
     6    7    6 1
     7    8    6 ar
     8    9    2 ar
     9   10    3 1
    10   11   10 1
    11   12   10 2
    12   13   12 1
    13   14   13 ar
    14   15   14 ar
    15   16   15 1
    16   17   15 ar
    17   18   17 1
    18   19   17 ar
    19   20   19 1
    20   21   13 ar
    21   22   14 1
    22   23   22 1
    23   24   22 1
    24   25   24 1
    25   26   24 1
    26   27   24 1
    27   28   22 1
    28   29   28 1
    29   30   28 1
    30   31   28 1
    31   32   21 1
    32   33   32 1
    33   34   32 1
    34   35   34 1
    35   36   34 1
    36   37   34 1
    37   38   32 1
    38   39   38 1
    39   40   38 1
    40   41   38 1
    41   52    8 ar
    42   53   52 1
    43   54   52 ar
    44   55   54 1
    45   56   54 ar
    46   57   56 1
    47   58    9 ar
    48   59   58 1
    49   60   61 1
    50   61   62 ar
    51   62   63 ar
    52   63   64 1
    53   65   63 ar
    54   66   65 1
    55   67   65 ar
    56   68   61 ar
    57   69   62 1
    58   70   69 1
    59   71   69 2
    60   72   71 1
    61   73   72 ar
    62   74   73 ar
    63   75   74 1
    64   76   74 ar
    65   77   76 1
    66   78   76 ar
    67   79   78 1
    68   80   72 ar
    69   81   73 1
    70   82   81 1
    71   83   81 1
    72   84   83 1
    73   85   83 1
    74   86   83 1
    75   87   81 1
    76   88   87 1
    77   89   87 1
    78   90   87 1
    79   91   80 1
    80   92   91 1
    81   93   91 1
    82   94   93 1
    83   95   93 1
    84   96   93 1
    85   97   91 1
    86   98   97 1
    87   99   97 1
    88  100   97 1
    89  101   67 ar
    90  102  101 1
    91  103  101 ar
    92  104  103 1
    93  105  103 ar
    94  106  105 1
    95  107   68 ar
    96  108  107 1
    97    8    9 ar
    98   19   21 ar
    99   56   58 ar
   100   67   68 ar
   101   78   80 ar
   102  105  107 ar
@<TRIPOS>SUBSTRUCTURE
     1 RES1 1
     2 RES2 60
     3 SUP3 42

@<TRIPOS>CRYSIN
   8.5780   10.9410   20.3960  79.5800  83.8700  80.3000   2 1

