# MOL2 file generated by ConQuest
# Please check atom types

@<TRIPOS>MOLECULE
NOHRAE
   153   156     3
SMALL
USER_CHARGES
****
Generated from CSD

@<TRIPOS>ATOM
      1 O1        -0.9596    2.1840    7.4228 O.2       1 RES1   -1.0000
      2 N1        -0.1576    1.1878    7.7017 N.pl3     1 RES1    1.0000
      3 C1         1.0688    1.0828    7.0992 C.ar      1 RES1    0.0000
      4 C2         1.8673    0.0292    7.4949 C.ar      1 RES1    0.0000
      5 H1         2.7084   -0.0593    7.1103 H         1 RES1    0.0000
      6 C3         1.4735   -0.8978    8.4363 C.ar      1 RES1    0.0000
      7 H2         2.0363   -1.5948    8.6836 H         1 RES1    0.0000
      8 C4         0.2336   -0.7651    8.9961 C.ar      1 RES1    0.0000
      9 H3        -0.0654   -1.3816    9.6226 H         1 RES1    0.0000
     10 C5        -0.5564    0.2751    8.6270 C.ar      1 RES1    0.0000
     11 H4        -1.3944    0.3671    9.0169 H         1 RES1    0.0000
     12 C6         1.4175    2.0942    6.0018 C.3       1 RES1    0.0000
     13 C7         2.8294    1.8380    5.4976 C.3       1 RES1    0.0000
     14 H5         3.0392    2.4651    4.8023 H         1 RES1    0.0000
     15 H6         2.8883    0.9446    5.1500 H         1 RES1    0.0000
     16 H7         3.4514    1.9424    6.2215 H         1 RES1    0.0000
     17 C8         0.4473    1.8875    4.8317 C.3       1 RES1    0.0000
     18 H8        -0.4496    2.0591    5.1249 H         1 RES1    0.0000
     19 H9         0.5134    0.9836    4.5156 H         1 RES1    0.0000
     20 H10        0.6710    2.4916    4.1214 H         1 RES1    0.0000
     21 N2         1.2858    3.5056    6.4588 N.pl3     1 RES1    0.0000
     22 H11        0.5463    3.5557    6.9419 H         1 RES1    0.0000
     23 C9         2.4010    4.1824    7.0551 C.ar      1 RES1    0.0000
     24 C10        2.6525    4.1682    8.4385 C.ar      1 RES1    0.0000
     25 C11        3.7575    4.8603    8.9273 C.ar      1 RES1    0.0000
     26 H12        3.9266    4.8559    9.8412 H         1 RES1    0.0000
     27 C12        4.6012    5.5485    8.0955 C.ar      1 RES1    0.0000
     28 H13        5.3502    5.9810    8.4399 H         1 RES1    0.0000
     29 C13        4.3294    5.5927    6.7523 C.ar      1 RES1    0.0000
     30 H14        4.8988    6.0677    6.1893 H         1 RES1    0.0000
     31 C14        3.2250    4.9471    6.2076 C.ar      1 RES1    0.0000
     32 C15        1.7424    3.4796    9.4395 C.3       1 RES1    0.0000
     33 H15        1.0608    2.9923    8.9309 H         1 RES1    0.0000
     34 C16        2.4720    2.4704   10.3078 C.3       1 RES1    0.0000
     35 H16        2.9629    1.8628    9.7480 H         1 RES1    0.0000
     36 H17        1.8352    1.9795   10.8304 H         1 RES1    0.0000
     37 H18        3.0803    2.9303   10.8913 H         1 RES1    0.0000
     38 C17        1.0197    4.5101   10.3017 C.3       1 RES1    0.0000
     39 H19        0.4092    4.0616   10.8913 H         1 RES1    0.0000
     40 H20        0.5340    5.1151    9.7373 H         1 RES1    0.0000
     41 H21        1.6622    5.0010   10.8196 H         1 RES1    0.0000
     42 C18        2.9005    5.1726    4.7450 C.3       1 RES1    0.0000
     43 H22        2.2033    4.5322    4.4905 H         1 RES1    0.0000
     44 C19        4.0974    4.9523    3.8254 C.3       1 RES1    0.0000
     45 H23        4.7661    5.6183    4.0031 H         1 RES1    0.0000
     46 H24        3.8146    5.0195    2.9101 H         1 RES1    0.0000
     47 H25        4.4661    4.0793    3.9816 H         1 RES1    0.0000
     48 C20        2.3330    6.5807    4.5568 C.3       1 RES1    0.0000
     49 H26        1.5621    6.6930    5.1177 H         1 RES1    0.0000
     50 H27        2.0813    6.7036    3.6376 H         1 RES1    0.0000
     51 H28        2.9999    7.2290    4.7952 H         1 RES1    0.0000
     52 O2        -5.7503   -0.2053    0.8709 O.2       2 RES2   -1.0000
     53 N3        -5.0218    0.8818    0.8942 N.pl3     2 RES2    1.0000
     54 C21       -4.0275    1.0515    1.8242 C.ar      2 RES2    0.0000
     55 C22       -3.2723    2.2033    1.7267 C.ar      2 RES2    0.0000
     56 H29       -2.5748    2.3307    2.3295 H         2 RES2    0.0000
     57 C23       -3.5081    3.1709    0.7777 C.ar      2 RES2    0.0000
     58 H30       -2.9836    3.9378    0.7347 H         2 RES2    0.0000
     59 C24       -4.5377    2.9737   -0.1050 C.ar      2 RES2    0.0000
     60 H31       -4.7369    3.6220   -0.7419 H         2 RES2    0.0000
     61 C25       -5.2657    1.8291   -0.0498 C.ar      2 RES2    0.0000
     62 H32       -5.9440    1.6912   -0.6702 H         2 RES2    0.0000
     63 C26       -3.9046    0.0278    2.9595 C.3       2 RES2    0.0000
     64 C27       -2.6941    0.3538    3.8146 C.3       2 RES2    0.0000
     65 H33       -2.6176   -0.2928    4.5192 H         2 RES2    0.0000
     66 H34       -2.7956    1.2295    4.1931 H         2 RES2    0.0000
     67 H35       -1.9037    0.3299    3.2720 H         2 RES2    0.0000
     68 C28       -5.1714    0.1566    3.8175 C.3       2 RES2    0.0000
     69 H36       -5.9434   -0.0274    3.2792 H         2 RES2    0.0000
     70 H37       -5.2308    1.0481    4.1680 H         2 RES2    0.0000
     71 H38       -5.1307   -0.4706    4.5443 H         2 RES2    0.0000
     72 N4        -3.8212   -1.3781    2.4700 N.pl3     2 RES2    0.0000
     73 H39       -4.3713   -1.4683    1.7991 H         2 RES2    0.0000
     74 C29       -2.5670   -2.0185    2.2202 C.ar      2 RES2    0.0000
     75 C30       -1.9916   -2.7671    3.2667 C.ar      2 RES2    0.0000
     76 C31       -0.7904   -3.4310    3.0312 C.ar      2 RES2    0.0000
     77 H40       -0.3944   -3.9157    3.7200 H         2 RES2    0.0000
     78 C32       -0.1779   -3.3814    1.7987 C.ar      2 RES2    0.0000
     79 H41        0.6333   -3.8175    1.6629 H         2 RES2    0.0000
     80 C33       -0.7651   -2.6898    0.7698 C.ar      2 RES2    0.0000
     81 H42       -0.3541   -2.6800   -0.0645 H         2 RES2    0.0000
     82 C34       -1.9587   -2.0035    0.9479 C.ar      2 RES2    0.0000
     83 C35       -2.6569   -2.9401    4.6231 C.3       2 RES2    0.0000
     84 H43       -3.4062   -2.3103    4.6697 H         2 RES2    0.0000
     85 C36       -3.2239   -4.3500    4.7762 C.3       2 RES2    0.0000
     86 H44       -3.8346   -4.5286    4.0569 H         2 RES2    0.0000
     87 H45       -3.6861   -4.4198    5.6159 H         2 RES2    0.0000
     88 H46       -2.5077   -4.9877    4.7522 H         2 RES2    0.0000
     89 C37       -1.7128   -2.6314    5.7943 C.3       2 RES2    0.0000
     90 H47       -1.0136   -3.2877    5.8237 H         2 RES2    0.0000
     91 H48       -2.2056   -2.6526    6.6158 H         2 RES2    0.0000
     92 H49       -1.3274   -1.7593    5.6732 H         2 RES2    0.0000
     93 C38       -2.5874   -1.3188   -0.2548 C.3       2 RES2    0.0000
     94 H50       -3.3876   -0.8518    0.0645 H         2 RES2    0.0000
     95 C39       -3.0480   -2.3377   -1.2805 C.3       2 RES2    0.0000
     96 H51       -3.4827   -1.8866   -2.0069 H         2 RES2    0.0000
     97 H52       -3.6625   -2.9498   -0.8709 H         2 RES2    0.0000
     98 H53       -2.2888   -2.8224   -1.6127 H         2 RES2    0.0000
     99 C40       -1.6971   -0.2822   -0.9021 C.3       2 RES2    0.0000
    100 H54       -1.4242    0.3609   -0.2437 H         2 RES2    0.0000
    101 H55       -2.1812    0.1627   -1.6020 H         2 RES2    0.0000
    102 H56       -0.9209   -0.7111   -1.2723 H         2 RES2    0.0000
    103 O3        -6.5079   -5.4876    3.8505 O.2       3 RES3   -1.0000
    104 N5        -7.2492   -4.4273    3.7014 N.pl3     3 RES3    1.0000
    105 C41       -8.4091   -4.2695    4.4142 C.ar      3 RES3    0.0000
    106 C42       -9.1670   -3.1550    4.1311 C.ar      3 RES3    0.0000
    107 H57       -9.9701   -3.0365    4.5873 H         3 RES3    0.0000
    108 C43       -8.7898   -2.2104    3.2039 C.ar      3 RES3    0.0000
    109 H58       -9.3232   -1.4674    3.0355 H         3 RES3    0.0000
    110 C44       -7.6133   -2.3917    2.5363 C.ar      3 RES3    0.0000
    111 H59       -7.3263   -1.7619    1.9138 H         3 RES3    0.0000
    112 C45       -6.8609   -3.4982    2.7836 C.ar      3 RES3    0.0000
    113 H60       -6.0672   -3.6220    2.3187 H         3 RES3    0.0000
    114 C46       -8.7347   -5.3042    5.5033 C.3       3 RES3    0.0000
    115 C47       -7.6478   -5.2044    6.5824 C.3       3 RES3    0.0000
    116 H61       -7.8513   -5.8094    7.3003 H         3 RES3    0.0000
    117 H62       -7.6150   -4.3066    6.9204 H         3 RES3    0.0000
    118 H63       -6.7969   -5.4344    6.2036 H         3 RES3    0.0000
    119 C48      -10.0848   -4.9939    6.1266 C.3       3 RES3    0.0000
    120 H64      -10.7676   -5.0434    5.4546 H         3 RES3    0.0000
    121 H65      -10.0693   -4.1103    6.5011 H         3 RES3    0.0000
    122 H66      -10.2716   -5.6316    6.8200 H         3 RES3    0.0000
    123 N6        -8.7274   -6.7018    4.9937 N.pl3     3 RES3    0.0000
    124 H67       -8.0632   -6.7930    4.4655 H         3 RES3    0.0000
    125 C49       -9.9080   -7.3264    4.4755 C.ar      3 RES3    0.0000
    126 C50      -10.2685   -7.2571    3.1158 C.ar      3 RES3    0.0000
    127 C51      -11.3702   -7.9808    2.6728 C.ar      3 RES3    0.0000
    128 H68      -11.6010   -7.9499    1.7740 H         3 RES3    0.0000
    129 C52      -12.1268   -8.7397    3.5308 C.ar      3 RES3    0.0000
    130 H69      -12.8681   -9.2050    3.2183 H         3 RES3    0.0000
    131 C53      -11.7746   -8.8043    4.8582 C.ar      3 RES3    0.0000
    132 H70      -12.2914   -9.3156    5.4403 H         3 RES3    0.0000
    133 C54      -10.6675   -8.1263    5.3568 C.ar      3 RES3    0.0000
    134 C55       -9.4991   -6.4418    2.0944 C.3       3 RES3    0.0000
    135 H71       -8.7906   -5.9589    2.5696 H         3 RES3    0.0000
    136 C56       -8.8356   -7.3299    1.0569 C.3       3 RES3    0.0000
    137 H72       -8.2129   -7.9180    1.4909 H         3 RES3    0.0000
    138 H73       -8.3697   -6.7841    0.4193 H         3 RES3    0.0000
    139 H74       -9.5056   -7.8491    0.6057 H         3 RES3    0.0000
    140 C57      -10.3866   -5.4105    1.4156 C.3       3 RES3    0.0000
    141 H75      -11.0439   -5.8580    0.8780 H         3 RES3    0.0000
    142 H76       -9.8494   -4.8435    0.8565 H         3 RES3    0.0000
    143 H77      -10.8262   -4.8789    2.0822 H         3 RES3    0.0000
    144 C58      -10.2873   -8.3416    6.8082 C.3       3 RES3    0.0000
    145 H78       -9.5640   -7.7164    7.0207 H         3 RES3    0.0000
    146 C59      -11.4381   -8.0675    7.7744 C.3       3 RES3    0.0000
    147 H79      -11.7846   -7.1866    7.6192 H         3 RES3    0.0000
    148 H80      -11.1182   -8.1312    8.6765 H         3 RES3    0.0000
    149 H81      -12.1335   -8.7141    7.6336 H         3 RES3    0.0000
    150 C60       -9.7533   -9.7569    7.0107 C.3       3 RES3    0.0000
    151 H82      -10.4408  -10.3920    6.7985 H         3 RES3    0.0000
    152 H83       -9.4829   -9.8701    7.9239 H         3 RES3    0.0000
    153 H84       -8.9988   -9.9002    6.4330 H         3 RES3    0.0000
@<TRIPOS>BOND
     1    1    2 1
     2    2    3 ar
     3    3    4 ar
     4    4    5 1
     5    6    4 ar
     6    7    6 1
     7    8    6 ar
     8    9    8 1
     9   10    2 ar
    10   11   10 1
    11   12    3 1
    12   13   12 1
    13   14   13 1
    14   15   13 1
    15   16   13 1
    16   17   12 1
    17   18   17 1
    18   19   17 1
    19   20   17 1
    20   21   12 1
    21   22   21 1
    22   23   21 1
    23   24   23 ar
    24   25   24 ar
    25   26   25 1
    26   27   25 ar
    27   28   27 1
    28   29   27 ar
    29   30   29 1
    30   31   23 ar
    31   32   24 1
    32   33   32 1
    33   34   32 1
    34   35   34 1
    35   36   34 1
    36   37   34 1
    37   38   32 1
    38   39   38 1
    39   40   38 1
    40   41   38 1
    41   42   31 1
    42   43   42 1
    43   44   42 1
    44   45   44 1
    45   46   44 1
    46   47   44 1
    47   48   42 1
    48   49   48 1
    49   50   48 1
    50   51   48 1
    51   52   53 1
    52   53   54 ar
    53   54   55 ar
    54   55   56 1
    55   57   55 ar
    56   58   57 1
    57   59   57 ar
    58   60   59 1
    59   61   53 ar
    60   62   61 1
    61   63   54 1
    62   64   63 1
    63   65   64 1
    64   66   64 1
    65   67   64 1
    66   68   63 1
    67   69   68 1
    68   70   68 1
    69   71   68 1
    70   72   63 1
    71   73   72 1
    72   74   72 1
    73   75   74 ar
    74   76   75 ar
    75   77   76 1
    76   78   76 ar
    77   79   78 1
    78   80   78 ar
    79   81   80 1
    80   82   74 ar
    81   83   75 1
    82   84   83 1
    83   85   83 1
    84   86   85 1
    85   87   85 1
    86   88   85 1
    87   89   83 1
    88   90   89 1
    89   91   89 1
    90   92   89 1
    91   93   82 1
    92   94   93 1
    93   95   93 1
    94   96   95 1
    95   97   95 1
    96   98   95 1
    97   99   93 1
    98  100   99 1
    99  101   99 1
   100  102   99 1
   101  103  104 1
   102  104  105 ar
   103  105  106 ar
   104  106  107 1
   105  108  106 ar
   106  109  108 1
   107  110  108 ar
   108  111  110 1
   109  112  104 ar
   110  113  112 1
   111  114  105 1
   112  115  114 1
   113  116  115 1
   114  117  115 1
   115  118  115 1
   116  119  114 1
   117  120  119 1
   118  121  119 1
   119  122  119 1
   120  123  114 1
   121  124  123 1
   122  125  123 1
   123  126  125 ar
   124  127  126 ar
   125  128  127 1
   126  129  127 ar
   127  130  129 1
   128  131  129 ar
   129  132  131 1
   130  133  125 ar
   131  134  126 1
   132  135  134 1
   133  136  134 1
   134  137  136 1
   135  138  136 1
   136  139  136 1
   137  140  134 1
   138  141  140 1
   139  142  140 1
   140  143  140 1
   141  144  133 1
   142  145  144 1
   143  146  144 1
   144  147  146 1
   145  148  146 1
   146  149  146 1
   147  150  144 1
   148  151  150 1
   149  152  150 1
   150  153  150 1
   151    8   10 ar
   152   29   31 ar
   153   59   61 ar
   154   80   82 ar
   155  110  112 ar
   156  131  133 ar
@<TRIPOS>SUBSTRUCTURE
     1 RES1 1
     2 RES2 52
     3 RES3 103

@<TRIPOS>CRYSIN
  17.6660    8.8450   36.4150  90.0000 100.2100  90.0000  14 1

