# MOL2 file generated by ConQuest
# Please check atom types

@<TRIPOS>MOLECULE
NOHREI
    70    61     2
SMALL
USER_CHARGES
****
Generated from CSD

@<TRIPOS>ATOM
      1 O1         9.7262    3.3935   11.7735 O.2       1 RES1   -1.0000
      2 N1         8.6408    2.9731   12.3904 N.pl3     1 RES1    1.0000
      3 C1         7.9931    1.8439   11.9387 C.ar      1 RES1    0.0000
      4 C2         6.8186    1.4764   12.5681 C.ar      1 RES1    0.0000
      5 H1         6.3501    0.7091   12.2624 H         1 RES1    0.0000
      6 C3         6.3106    2.1920   13.6249 C.ar      1 RES1    0.0000
      7 H2         5.5014    1.9301   14.0487 H         1 RES1    0.0000
      8 C4         7.0105    3.3057   14.0567 C.ar      1 RES1    0.0000
      9 H3         6.6803    3.8110   14.7885 H         1 RES1    0.0000
     10 C5         8.1789    3.6900   13.4400 C.ar      1 RES1    0.0000
     11 C6         8.6458    1.0686   10.7991 C.3       1 RES1    0.0000
     12 C7         9.9867    0.5100   11.2939 C.3       1 RES1    0.0000
     13 H4        10.4018   -0.0209   10.5835 H         1 RES1    0.0000
     14 H5         9.8356   -0.0569   12.0784 H         1 RES1    0.0000
     15 H6        10.5797    1.2514   11.5360 H         1 RES1    0.0000
     16 C8         7.7650   -0.1100   10.4025 C.3       1 RES1    0.0000
     17 H7         6.8977    0.2218   10.0871 H         1 RES1    0.0000
     18 H8         7.6301   -0.6920   11.1795 H         1 RES1    0.0000
     19 H9         8.2010   -0.6162    9.6865 H         1 RES1    0.0000
     20 N2         8.9182    1.9250    9.6129 N.pl3     1 RES1    0.0000
     21 H10        9.2090    2.6809    9.9299 H         1 RES1    0.0000
     22 C9         7.9478    2.0657    8.5731 C.ar      1 RES1    0.0000
     23 C10        8.0647    1.2023    7.4648 C.ar      1 RES1    0.0000
     24 C11        7.1484    1.3096    6.4369 C.ar      1 RES1    0.0000
     25 H11        7.2116    0.7186    5.6942 H         1 RES1    0.0000
     26 C12        6.1419    2.2559    6.4632 C.ar      1 RES1    0.0000
     27 H12        5.5084    2.2998    5.7575 H         1 RES1    0.0000
     28 C13        6.0641    3.1305    7.5163 C.ar      1 RES1    0.0000
     29 H13        5.3828    3.7939    7.5188 H         1 RES1    0.0000
     30 C14        6.9582    3.0715    8.5816 C.ar      1 RES1    0.0000
     31 C15        9.2226    0.2273    7.3220 C.3       1 RES1    0.0000
     32 H14        9.6624    0.1422    8.2165 H         1 RES1    0.0000
     33 C16        8.7881   -1.1645    6.8804 C.3       1 RES1    0.0000
     34 H15        8.0870   -1.4940    7.4805 H         1 RES1    0.0000
     35 H16        9.5566   -1.7728    6.9113 H         1 RES1    0.0000
     36 H17        8.4405   -1.1224    5.9645 H         1 RES1    0.0000
     37 C17       10.2530    0.7867    6.3455 C.3       1 RES1    0.0000
     38 H18       10.9877    0.1460    6.2443 H         1 RES1    0.0000
     39 H19       10.6029    1.6344    6.6909 H         1 RES1    0.0000
     40 H20        9.8298    0.9385    5.4757 H         1 RES1    0.0000
     41 C18        6.8499    4.1297    9.6570 C.3       1 RES1    0.0000
     42 H21        7.5278    3.9228   10.3631 H         1 RES1    0.0000
     43 C19        7.1721    5.5124    9.0874 C.3       1 RES1    0.0000
     44 H22        8.0626    5.4984    8.6784 H         1 RES1    0.0000
     45 H23        7.1546    6.1753    9.8092 H         1 RES1    0.0000
     46 H24        6.5059    5.7506    8.4100 H         1 RES1    0.0000
     47 C20        5.4758    4.1473   10.3172 C.3       1 RES1    0.0000
     48 H25        4.8004    4.4063    9.6577 H         1 RES1    0.0000
     49 H26        5.4770    4.7931   11.0549 H         1 RES1    0.0000
     50 H27        5.2689    3.2554   10.6640 H         1 RES1    0.0000
     51 C21        9.0125    4.8962   13.8097 C.3       1 RES1    0.0000
     52 H28        9.9356    4.7665   13.4449 H         1 RES1    0.0000
     53 C22        9.1113    5.0636   15.3125 C.3       1 RES1    0.0000
     54 H29        8.2196    5.2424   15.6797 H         1 RES1    0.0000
     55 H30        9.7065    5.8131   15.5187 H         1 RES1    0.0000
     56 H31        9.4694    4.2432   15.7104 H         1 RES1    0.0000
     57 C23        8.3905    6.1279   13.1287 C.3       1 RES1    0.0000
     58 H32        7.4430    6.1904   13.3683 H         1 RES1    0.0000
     59 H33        8.4754    6.0426   12.1551 H         1 RES1    0.0000
     60 H34        8.8578    6.9375   13.4258 H         1 RES1    0.0000
     61 C24        8.3068    5.0775   14.1618 Du        2 SUP2    0.0000
     62 H35        7.6255    5.2273   14.8766 Du        2 SUP2    0.0000
     63 C25        9.7240    4.8670   14.6888 Du        2 SUP2    0.0000
     64 H36       10.3216    4.6509   13.9433 Du        2 SUP2    0.0000
     65 H37        9.7251    4.1314   15.3347 Du        2 SUP2    0.0000
     66 H38       10.0344    5.6880   15.1277 Du        2 SUP2    0.0000
     67 C26        8.2312    6.1241   12.9754 Du        2 SUP2    0.0000
     68 H39        8.6242    5.7278   12.1685 Du        2 SUP2    0.0000
     69 H40        8.7265    6.9318   13.2207 Du        2 SUP2    0.0000
     70 H41        7.2942    6.3535   12.8029 Du        2 SUP2    0.0000
@<TRIPOS>BOND
     1    1    2 1
     2    2    3 ar
     3    3    4 ar
     4    4    5 1
     5    6    4 ar
     6    7    6 1
     7    8    6 ar
     8    9    8 1
     9   10    2 ar
    10   11    3 1
    11   12   11 1
    12   13   12 1
    13   14   12 1
    14   15   12 1
    15   16   11 1
    16   17   16 1
    17   18   16 1
    18   19   16 1
    19   20   11 1
    20   21   20 1
    21   22   20 1
    22   23   22 ar
    23   24   23 ar
    24   25   24 1
    25   26   24 ar
    26   27   26 1
    27   28   26 ar
    28   29   28 1
    29   30   22 ar
    30   31   23 1
    31   32   31 1
    32   33   31 1
    33   34   33 1
    34   35   33 1
    35   36   33 1
    36   37   31 1
    37   38   37 1
    38   39   37 1
    39   40   37 1
    40   41   30 1
    41   42   41 1
    42   43   41 1
    43   44   43 1
    44   45   43 1
    45   46   43 1
    46   47   41 1
    47   48   47 1
    48   49   47 1
    49   50   47 1
    50   51   10 1
    51   52   51 1
    52   53   51 1
    53   54   53 1
    54   55   53 1
    55   56   53 1
    56   57   51 1
    57   58   57 1
    58   59   57 1
    59   60   57 1
    60    8   10 ar
    61   28   30 ar
@<TRIPOS>SUBSTRUCTURE
     1 RES1 1
     2 SUP2 61

@<TRIPOS>CRYSIN
  11.6260   18.9600   19.1660  90.0000  90.0000  90.0000  61 1

