# MOL2 file generated by ConQuest
# Please check atom types

@<TRIPOS>MOLECULE
NOHSEJ01
    86    88     2
SMALL
NO_CHARGES
****
Generated from CSD

@<TRIPOS>ATOM
      1 O1         8.0181    4.7651    2.6161 O.2       1 RES1    0.0000
      2 N1         6.7007    8.4292    3.3175 N.2       1 RES1    0.0000
      3 N2         6.7436    4.8895    2.8758 N.pl3     1 RES1    0.0000
      4 C1         7.1410    7.2440    3.2784 C.2       1 RES1    0.0000
      5 H1         8.0752    7.0836    3.3326 H         1 RES1    0.0000
      6 C2         6.2163    6.1227    3.1510 C.ar      1 RES1    0.0000
      7 C3         4.8539    6.2445    3.3915 C.ar      1 RES1    0.0000
      8 H2         4.4857    7.1017    3.5682 H         1 RES1    0.0000
      9 C4         4.0348    5.1542    3.3797 C.ar      1 RES1    0.0000
     10 H3         3.1024    5.2465    3.5342 H         1 RES1    0.0000
     11 C5         4.5957    3.9058    3.1362 C.ar      1 RES1    0.0000
     12 H4         4.0512    3.1289    3.1454 H         1 RES1    0.0000
     13 C6         5.9350    3.8006    2.8810 C.ar      1 RES1    0.0000
     14 H5         6.3076    2.9456    2.7043 H         1 RES1    0.0000
     15 C7         7.6331    9.4781    3.5736 C.ar      1 RES1    0.0000
     16 C8         7.5138   10.1306    4.8104 C.ar      1 RES1    0.0000
     17 C9         8.4125   11.1455    5.1023 C.ar      1 RES1    0.0000
     18 H6         8.3656   11.5858    5.9426 H         1 RES1    0.0000
     19 C10        9.3822   11.5247    4.1808 C.ar      1 RES1    0.0000
     20 H7        10.0099   12.2034    4.4020 H         1 RES1    0.0000
     21 C11        9.4318   10.9118    2.9399 C.ar      1 RES1    0.0000
     22 H8        10.0751   11.2034    2.3038 H         1 RES1    0.0000
     23 C12        8.5655    9.8810    2.6008 C.ar      1 RES1    0.0000
     24 C13        6.4210    9.7082    5.7820 C.3       1 RES1    0.0000
     25 H9         5.6356    9.4138    5.2384 H         1 RES1    0.0000
     26 C14        5.9495   10.8405    6.6874 C.3       1 RES1    0.0000
     27 H10        6.6492   11.0496    7.3419 H         1 RES1    0.0000
     28 H11        5.1358   10.5654    7.1587 H         1 RES1    0.0000
     29 H12        5.7615   11.6355    6.1468 H         1 RES1    0.0000
     30 C15        6.8650    8.5118    6.6259 C.3       1 RES1    0.0000
     31 H13        7.1061    7.7668    6.0356 H         1 RES1    0.0000
     32 H14        6.1315    8.2374    7.2149 H         1 RES1    0.0000
     33 H15        7.6423    8.7645    7.1665 H         1 RES1    0.0000
     34 C16        8.5655    9.2390    1.2199 C.3       1 RES1    0.0000
     35 H16        8.5314    8.2487    1.3495 H         1 RES1    0.0000
     36 C17        7.2905    9.6500    0.4594 C.3       1 RES1    0.0000
     37 H17        6.5020    9.4071    0.9883 H         1 RES1    0.0000
     38 H18        7.2606    9.1853   -0.4032 H         1 RES1    0.0000
     39 H19        7.2974   10.6174    0.3089 H         1 RES1    0.0000
     40 C18        9.8014    9.5498    0.3874 C.3       1 RES1    0.0000
     41 H20        9.8274   10.5088    0.1859 H         1 RES1    0.0000
     42 H21        9.7683    9.0406   -0.4490 H         1 RES1    0.0000
     43 H22       10.6049    9.3007    0.8901 H         1 RES1    0.0000
     44 O2         1.4491   12.7509    3.1143 O.2       2 RES2    0.0000
     45 N3         2.8729    9.0715    2.9961 N.2       2 RES2    0.0000
     46 N4         2.7486   12.6296    3.1305 N.pl3     2 RES2    0.0000
     47 C19        2.4364   10.2546    2.8526 C.2       2 RES2    0.0000
     48 H23        1.5255   10.3980    2.6258 H         2 RES2    0.0000
     49 C20        3.3291   11.3982    3.0355 C.ar      2 RES2    0.0000
     50 C21        4.7127   11.2833    3.0684 C.ar      2 RES2    0.0000
     51 H24        5.1154   10.4251    3.0040 H         2 RES2    0.0000
     52 C22        5.5088   12.4016    3.1927 C.ar      2 RES2    0.0000
     53 H25        6.4553   12.3233    3.2082 H         2 RES2    0.0000
     54 C23        4.9009   13.6346    3.2944 C.ar      2 RES2    0.0000
     55 H26        5.4311   14.4160    3.3928 H         2 RES2    0.0000
     56 C24        3.5234   13.7389    3.2534 C.ar      2 RES2    0.0000
     57 H27        3.1142   14.5947    3.3116 H         2 RES2    0.0000
     58 C25        1.9790    7.9960    2.6851 C.ar      2 RES2    0.0000
     59 C26        2.1626    7.3578    1.4573 C.ar      2 RES2    0.0000
     60 C27        3.2647    7.8243    0.5144 C.3       2 RES2    0.0000
     61 H28        3.9808    8.2374    1.0786 H         2 RES2    0.0000
     62 C28        2.7416    8.9154   -0.4254 C.3       2 RES2    0.0000
     63 H29        2.0199    8.5519   -0.9778 H         2 RES2    0.0000
     64 H30        3.4706    9.2261   -1.0027 H         2 RES2    0.0000
     65 H31        2.4013    9.6672    0.1034 H         2 RES2    0.0000
     66 C29        3.9095    6.6822   -0.2723 C.3       2 RES2    0.0000
     67 H32        4.2304    5.9976    0.3508 H         2 RES2    0.0000
     68 H33        4.6639    7.0293   -0.7932 H         2 RES2    0.0000
     69 H34        3.2476    6.2895   -0.8783 H         2 RES2    0.0000
     70 C30        1.2867    6.3268    1.1231 C.ar      2 RES2    0.0000
     71 H35        1.3680    5.8981    0.2788 H         2 RES2    0.0000
     72 C31        0.3027    5.9184    2.0027 C.ar      2 RES2    0.0000
     73 H36       -0.3053    5.2329    1.7488 H         2 RES2    0.0000
     74 C32        0.2008    6.5021    3.2449 C.ar      2 RES2    0.0000
     75 H37       -0.4496    6.1786    3.8575 H         2 RES2    0.0000
     76 C33        1.0282    7.5580    3.6257 C.ar      2 RES2    0.0000
     77 C34        0.9652    8.1899    5.0120 C.3       2 RES2    0.0000
     78 H38        1.0259    9.1808    4.8902 H         2 RES2    0.0000
     79 C35        2.1745    7.7605    5.8549 C.3       2 RES2    0.0000
     80 H39        2.1318    8.1922    6.7332 H         2 RES2    0.0000
     81 H40        3.0013    8.0270    5.3994 H         2 RES2    0.0000
     82 H41        2.1643    6.7872    5.9688 H         2 RES2    0.0000
     83 C36       -0.3236    7.9064    5.7581 C.3       2 RES2    0.0000
     84 H42       -1.0871    8.1446    5.1926 H         2 RES2    0.0000
     85 H43       -0.3486    8.4388    6.5814 H         2 RES2    0.0000
     86 H44       -0.3674    6.9546    5.9832 H         2 RES2    0.0000
@<TRIPOS>BOND
     1    1    3 1
     2    2    4 2
     3    3    6 ar
     4    4    5 1
     5    6    4 1
     6    7    6 ar
     7    8    7 1
     8    9    7 ar
     9   10    9 1
    10   11    9 ar
    11   12   11 1
    12   13    3 ar
    13   14   13 1
    14   15    2 1
    15   16   15 ar
    16   17   16 ar
    17   18   17 1
    18   19   17 ar
    19   20   19 1
    20   21   19 ar
    21   22   21 1
    22   23   15 ar
    23   24   16 1
    24   25   24 1
    25   26   24 1
    26   27   26 1
    27   28   26 1
    28   29   26 1
    29   30   24 1
    30   31   30 1
    31   32   30 1
    32   33   30 1
    33   34   23 1
    34   35   34 1
    35   36   34 1
    36   37   36 1
    37   38   36 1
    38   39   36 1
    39   40   34 1
    40   41   40 1
    41   42   40 1
    42   43   40 1
    43   44   46 1
    44   45   47 2
    45   46   49 ar
    46   47   48 1
    47   49   47 1
    48   50   49 ar
    49   51   50 1
    50   52   50 ar
    51   53   52 1
    52   54   52 ar
    53   55   54 1
    54   56   46 ar
    55   57   56 1
    56   58   45 1
    57   59   58 ar
    58   60   59 1
    59   61   60 1
    60   62   60 1
    61   63   62 1
    62   64   62 1
    63   65   62 1
    64   66   60 1
    65   67   66 1
    66   68   66 1
    67   69   66 1
    68   70   59 ar
    69   71   70 1
    70   72   70 ar
    71   73   72 1
    72   74   72 ar
    73   75   74 1
    74   76   58 ar
    75   77   76 1
    76   78   77 1
    77   79   77 1
    78   80   79 1
    79   81   79 1
    80   82   79 1
    81   83   77 1
    82   84   83 1
    83   85   83 1
    84   86   83 1
    85   11   13 ar
    86   21   23 ar
    87   54   56 ar
    88   74   76 ar
@<TRIPOS>SUBSTRUCTURE
     1 RES1 1
     2 RES2 44

@<TRIPOS>CRYSIN
  10.8530   22.6240   13.3600  90.0000 101.5490  90.0000 231 1

