# MOL2 file generated by ConQuest
# Please check atom types

@<TRIPOS>MOLECULE
NOHSEJ
    86    88     2
SMALL
USER_CHARGES
****
Generated from CSD

@<TRIPOS>ATOM
      1 N1        13.7653   -1.2931    3.1408 N.pl3     1 RES1    1.0000
      2 O1        12.4734   -1.4157    3.1083 O.2       1 RES1   -1.0000
      3 C1        14.3461   -0.0582    3.0816 C.ar      1 RES1    0.0000
      4 C2        15.7246    0.0541    3.1294 C.ar      1 RES1    0.0000
      5 H1        16.1225    0.9039    3.0825 H         1 RES1    0.0000
      6 C3        16.5193   -1.0634    3.2452 C.ar      1 RES1    0.0000
      7 H2        17.4552   -0.9855    3.2786 H         1 RES1    0.0000
      8 C4        15.9124   -2.3055    3.3113 C.ar      1 RES1    0.0000
      9 H3        16.4349   -3.0833    3.3925 H         1 RES1    0.0000
     10 C5        14.5498   -2.3984    3.2584 C.ar      1 RES1    0.0000
     11 H4        14.1451   -3.2464    3.3051 H         1 RES1    0.0000
     12 C6        13.4559    1.0926    2.9055 C.2       1 RES1    0.0000
     13 H5        12.5542    0.9537    2.6772 H         1 RES1    0.0000
     14 N2        13.8897    2.2666    3.0573 N.2       1 RES1    0.0000
     15 C7        13.0067    3.3476    2.7441 C.ar      1 RES1    0.0000
     16 C8        12.0848    3.8105    3.6968 C.ar      1 RES1    0.0000
     17 C9        11.2495    4.8587    3.3100 C.ar      1 RES1    0.0000
     18 H6        10.6178    5.1901    3.9224 H         1 RES1    0.0000
     19 C10       11.3270    5.4194    2.0571 C.ar      1 RES1    0.0000
     20 H7        10.7238    6.0940    1.8069 H         1 RES1    0.0000
     21 C11       12.2881    4.9912    1.1702 C.ar      1 RES1    0.0000
     22 H8        12.3555    5.4031    0.3285 H         1 RES1    0.0000
     23 C12       13.1618    3.9582    1.4981 C.ar      1 RES1    0.0000
     24 C13       14.2425    3.4797    0.5435 C.3       1 RES1    0.0000
     25 H9        14.9416    3.0425    1.0915 H         1 RES1    0.0000
     26 C14       13.6900    2.4197   -0.4040 C.3       1 RES1    0.0000
     27 H10       13.3205    1.6855    0.1113 H         1 RES1    0.0000
     28 H11       14.4036    2.0887   -0.9710 H         1 RES1    0.0000
     29 H12       12.9935    2.8091   -0.9551 H         1 RES1    0.0000
     30 C15       14.9164    4.6206   -0.2183 C.3       1 RES1    0.0000
     31 H13       14.2751    5.0315   -0.8200 H         1 RES1    0.0000
     32 H14       15.6626    4.2703   -0.7312 H         1 RES1    0.0000
     33 H15       15.2397    5.2830    0.4120 H         1 RES1    0.0000
     34 C16       12.0454    3.2035    5.0910 C.3       1 RES1    0.0000
     35 H16       12.1608    2.2269    4.9702 H         1 RES1    0.0000
     36 C17       13.2045    3.6600    5.9212 C.3       1 RES1    0.0000
     37 H17       13.1417    4.6169    6.0657 H         1 RES1    0.0000
     38 H18       14.0332    3.4570    5.4590 H         1 RES1    0.0000
     39 H19       13.1901    3.2033    6.7757 H         1 RES1    0.0000
     40 C18       10.7387    3.3818    5.8100 C.3       1 RES1    0.0000
     41 H20       10.7437    2.8567    6.6247 H         1 RES1    0.0000
     42 H21       10.0120    3.0855    5.2391 H         1 RES1    0.0000
     43 H22       10.6161    4.3179    6.0299 H         1 RES1    0.0000
     44 N3         6.8701    6.4649    2.9743 N.pl3     2 RES2    1.0000
     45 O2         8.1394    6.5974    2.7442 O.2       2 RES2   -1.0000
     46 C19        6.3383    5.2334    3.2371 C.ar      2 RES2    0.0000
     47 C20        4.9802    5.1051    3.4542 C.ar      2 RES2    0.0000
     48 H23        4.6156    4.2567    3.6243 H         2 RES2    0.0000
     49 C21        4.1545    6.2057    3.4253 C.ar      2 RES2    0.0000
     50 H24        3.2291    6.1167    3.5660 H         2 RES2    0.0000
     51 C22        4.7165    7.4474    3.1850 C.ar      2 RES2    0.0000
     52 H25        4.1762    8.2167    3.1792 H         2 RES2    0.0000
     53 C23        6.0591    7.5527    2.9560 C.ar      2 RES2    0.0000
     54 H26        6.4297    8.3979    2.7818 H         2 RES2    0.0000
     55 C24        7.2718    4.1138    3.3644 C.2       2 RES2    0.0000
     56 H27        8.1952    4.2771    3.4230 H         2 RES2    0.0000
     57 N4         6.8349    2.9260    3.3965 N.2       2 RES2    0.0000
     58 C25        7.7696    1.8751    3.6336 C.ar      2 RES2    0.0000
     59 C26        8.6789    1.4814    2.6376 C.ar      2 RES2    0.0000
     60 C27        9.5511    0.4397    2.9612 C.ar      2 RES2    0.0000
     61 H28       10.1711    0.1450    2.3195 H         2 RES2    0.0000
     62 C28        9.5248   -0.1672    4.1993 C.ar      2 RES2    0.0000
     63 H29       10.1525   -0.8359    4.4059 H         2 RES2    0.0000
     64 C29        8.5852    0.2007    5.1336 C.ar      2 RES2    0.0000
     65 H30        8.5597   -0.2401    5.9637 H         2 RES2    0.0000
     66 C30        7.6721    1.2168    4.8655 C.ar      2 RES2    0.0000
     67 C31        6.6067    1.6359    5.8664 C.3       2 RES2    0.0000
     68 H31        5.8244    1.9551    5.3517 H         2 RES2    0.0000
     69 C32        6.1308    0.4821    6.7553 C.3       2 RES2    0.0000
     70 H32        6.8377    0.2379    7.3745 H         2 RES2    0.0000
     71 H33        5.9094   -0.2832    6.2008 H         2 RES2    0.0000
     72 H34        5.3470    0.7589    7.2526 H         2 RES2    0.0000
     73 C33        7.0907    2.7955    6.7320 C.3       2 RES2    0.0000
     74 H35        7.8526    2.5101    7.2605 H         2 RES2    0.0000
     75 H36        6.3760    3.0787    7.3228 H         2 RES2    0.0000
     76 H37        7.3521    3.5363    6.1624 H         2 RES2    0.0000
     77 C34        8.6519    2.1204    1.2596 C.3       2 RES2    0.0000
     78 H38        8.5969    3.0991    1.3936 H         2 RES2    0.0000
     79 C35        7.3885    1.6979    0.5059 C.3       2 RES2    0.0000
     80 H39        7.4028    0.7385    0.3630 H         2 RES2    0.0000
     81 H40        7.3574    2.1522   -0.3510 H         2 RES2    0.0000
     82 H41        6.6069    1.9369    1.0266 H         2 RES2    0.0000
     83 C36        9.8973    1.8518    0.4313 C.3       2 RES2    0.0000
     84 H42       10.6828    2.1204    0.9326 H         2 RES2    0.0000
     85 H43        9.8517    2.3583   -0.3948 H         2 RES2    0.0000
     86 H44        9.9514    0.9062    0.2265 H         2 RES2    0.0000
@<TRIPOS>BOND
     1    1    2 1
     2    3    1 ar
     3    4    3 ar
     4    5    4 1
     5    6    4 ar
     6    7    6 1
     7    8    6 ar
     8    9    8 1
     9   10    1 ar
    10   11   10 1
    11   12    3 1
    12   13   12 1
    13   14   12 2
    14   15   14 1
    15   16   15 ar
    16   17   16 ar
    17   18   17 1
    18   19   17 ar
    19   20   19 1
    20   21   19 ar
    21   22   21 1
    22   23   15 ar
    23   24   23 1
    24   25   24 1
    25   26   24 1
    26   27   26 1
    27   28   26 1
    28   29   26 1
    29   30   24 1
    30   31   30 1
    31   32   30 1
    32   33   30 1
    33   34   16 1
    34   35   34 1
    35   36   34 1
    36   37   36 1
    37   38   36 1
    38   39   36 1
    39   40   34 1
    40   41   40 1
    41   42   40 1
    42   43   40 1
    43   44   45 1
    44   46   44 ar
    45   47   46 ar
    46   48   47 1
    47   49   47 ar
    48   50   49 1
    49   51   49 ar
    50   52   51 1
    51   53   44 ar
    52   54   53 1
    53   55   46 1
    54   56   55 1
    55   57   55 2
    56   58   57 1
    57   59   58 ar
    58   60   59 ar
    59   61   60 1
    60   62   60 ar
    61   63   62 1
    62   64   62 ar
    63   65   64 1
    64   66   58 ar
    65   67   66 1
    66   68   67 1
    67   69   67 1
    68   70   69 1
    69   71   69 1
    70   72   69 1
    71   73   67 1
    72   74   73 1
    73   75   73 1
    74   76   73 1
    75   77   59 1
    76   78   77 1
    77   79   77 1
    78   80   79 1
    79   81   79 1
    80   82   79 1
    81   83   77 1
    82   84   83 1
    83   85   83 1
    84   86   83 1
    85    8   10 ar
    86   21   23 ar
    87   51   53 ar
    88   64   66 ar
@<TRIPOS>SUBSTRUCTURE
     1 RES1 1
     2 RES2 44

@<TRIPOS>CRYSIN
  10.9335   22.6543   13.4702  90.0000 100.4510  90.0000 231 1

