# MOL2 file generated by ConQuest
# Please check atom types

@<TRIPOS>MOLECULE
NOHTOT
    92    94     2
SMALL
NO_CHARGES
****
Generated from CSD

@<TRIPOS>ATOM
      1 N1         7.2097    5.0964   15.6745 N.3       1 RES1    0.0000
      2 C1         7.5039    6.0804   16.5904 C.2       1 RES1    0.0000
      3 C2         7.8598    5.5391   17.9529 C.3       1 RES1    0.0000
      4 C3         7.4648    7.3799   16.2088 C.2       1 RES1    0.0000
      5 C4         7.5944    8.5417   17.1019 C.2       1 RES1    0.0000
      6 O1         7.5950    9.7011   16.7049 O.2       1 RES1    0.0000
      7 O2         7.6749    8.2337   18.3976 O.3       1 RES1    0.0000
      8 C5         7.9294    9.3111   19.3021 C.3       1 RES1    0.0000
      9 C6         7.2805    7.7534   14.7337 C.3       1 RES1    0.0000
     10 C7         6.5905    6.6338   13.9818 C.2       1 RES1    0.0000
     11 C8         5.9167    6.9666   12.7109 C.2       1 RES1    0.0000
     12 O3         5.4745    6.1745   11.9057 O.2       1 RES1    0.0000
     13 O4         5.8381    8.3015   12.5392 O.3       1 RES1    0.0000
     14 C9         5.2304    8.7909   11.3026 C.3       1 RES1    0.0000
     15 C10        6.1376    9.2381   10.4344 C.3       1 RES1    0.0000
     16 C11        6.6050    5.3614   14.4456 C.2       1 RES1    0.0000
     17 C12        6.0012    4.1613   13.7796 C.3       1 RES1    0.0000
     18 C13        8.6350    8.1102   14.0963 C.ar      1 RES1    0.0000
     19 C14        8.8699    9.3894   13.6307 C.ar      1 RES1    0.0000
     20 C15       10.0993    9.6876   13.0544 C.ar      1 RES1    0.0000
     21 N2        10.2990   11.0420   12.5392 N.pl3     1 RES1    0.0000
     22 O5        11.3875   11.3477   12.0640 O.2       1 RES1    0.0000
     23 O6         9.3733   11.8266   12.5697 O.2       1 RES1    0.0000
     24 C16       11.1217    8.7833   12.9628 C.ar      1 RES1    0.0000
     25 C17       10.8889    7.5042   13.4323 C.ar      1 RES1    0.0000
     26 C18        9.6464    7.1646   13.9895 C.ar      1 RES1    0.0000
     27 H1         7.4125    4.2433   15.8787 H         1 RES1    0.0000
     28 H2         8.0580    6.2679   18.5445 H         1 RES1    0.0000
     29 H3         7.1173    5.0384   18.2983 H         1 RES1    0.0000
     30 H4         8.6274    4.9669   17.8823 H         1 RES1    0.0000
     31 H5         7.9721    8.9761   20.2009 H         1 RES1    0.0000
     32 H6         8.7637    9.7282   19.0769 H         1 RES1    0.0000
     33 H7         7.2208    9.9556   19.2353 H         1 RES1    0.0000
     34 H8         6.7180    8.5296   14.6898 H         1 RES1    0.0000
     35 H9         4.6196    9.5024   11.5126 H         1 RES1    0.0000
     36 H10        4.7283    8.0809   10.8962 H         1 RES1    0.0000
     37 H11        5.7020    9.5498    9.6386 H         1 RES1    0.0000
     38 H12        6.6306    9.9594   10.8332 H         1 RES1    0.0000
     39 H13        6.7398    8.5243   10.2111 H         1 RES1    0.0000
     40 H14        5.6086    4.4233   12.9438 H         1 RES1    0.0000
     41 H15        6.6855    3.5070   13.6193 H         1 RES1    0.0000
     42 H16        5.3255    3.7856   14.3463 H         1 RES1    0.0000
     43 H17        8.1900   10.0633   13.6994 H         1 RES1    0.0000
     44 H18       11.9706    9.0280   12.5869 H         1 RES1    0.0000
     45 H19       11.5847    6.8439   13.3788 H         1 RES1    0.0000
     46 H20        9.4913    6.2671   14.2929 H         1 RES1    0.0000
     47 N3         8.2176   10.5767    5.4137 N.3       2 RES2    0.0000
     48 C19        7.6092   10.3049    4.1848 C.2       2 RES2    0.0000
     49 C20        7.0133   11.5013    3.5131 C.3       2 RES2    0.0000
     50 C21        7.6030    9.0228    3.7383 C.2       2 RES2    0.0000
     51 C22        6.9166    8.6809    2.4712 C.2       2 RES2    0.0000
     52 O7         6.3988    9.4459    1.6984 O.2       2 RES2    0.0000
     53 O8         6.9238    7.3370    2.2785 O.3       2 RES2    0.0000
     54 C23        6.3246    6.8996    1.0438 C.3       2 RES2    0.0000
     55 C24        8.3204    7.9107    4.4882 C.3       2 RES2    0.0000
     56 C25        8.5008    8.2917    5.9519 C.2       2 RES2    0.0000
     57 C26        8.6426    7.1360    6.8469 C.2       2 RES2    0.0000
     58 O9         8.6063    5.9848    6.4614 O.2       2 RES2    0.0000
     59 O10        8.7830    7.4567    8.1483 O.3       2 RES2    0.0000
     60 C27        9.0597    6.3710    9.0662 C.3       2 RES2    0.0000
     61 C28        9.6682    6.9598   10.2798 C.3       2 RES2    0.0000
     62 C29        8.5300    9.5980    6.3335 C.2       2 RES2    0.0000
     63 C30        8.8624   10.1566    7.6960 C.3       2 RES2    0.0000
     64 C31        9.6644    7.5825    3.8299 C.ar      2 RES2    0.0000
     65 C32        9.8996    6.3116    3.3318 C.ar      2 RES2    0.0000
     66 C33       11.1075    6.0480    2.6926 C.ar      2 RES2    0.0000
     67 N4        11.3161    4.6921    2.1468 N.pl3     2 RES2    0.0000
     68 O11       12.3790    4.4399    1.5839 O.2       2 RES2    0.0000
     69 O12       10.4131    3.8804    2.2556 O.2       2 RES2    0.0000
     70 C34       12.1018    6.9907    2.5418 C.ar      2 RES2    0.0000
     71 C35       11.8464    8.2631    3.0303 C.ar      2 RES2    0.0000
     72 C36       10.6536    8.5529    3.6677 C.ar      2 RES2    0.0000
     73 H21        8.4148   11.4320    5.6122 H         2 RES2    0.0000
     74 H22        6.6169   11.2378    2.6792 H         2 RES2    0.0000
     75 H23        6.3413   11.8845    4.0799 H         2 RES2    0.0000
     76 H24        7.7016   12.1503    3.3490 H         2 RES2    0.0000
     77 H25        6.3702    5.9419    0.9885 H         2 RES2    0.0000
     78 H26        5.4064    7.1781    1.0171 H         2 RES2    0.0000
     79 H27        6.7984    7.2858    0.3034 H         2 RES2    0.0000
     80 H28        7.7707    7.1247    4.4520 H         2 RES2    0.0000
     81 H29        9.6545    5.7356    8.6616 H         2 RES2    0.0000
     82 H30        8.2455    5.9201    9.3009 H         2 RES2    0.0000
     83 H31        9.8629    6.2634   10.9115 H         2 RES2    0.0000
     84 H32       10.4822    7.4063   10.0337 H         2 RES2    0.0000
     85 H33        9.0643    7.5915   10.6767 H         2 RES2    0.0000
     86 H34        9.0709    9.4368    8.2971 H         2 RES2    0.0000
     87 H35        9.6191   10.7416    7.6235 H         2 RES2    0.0000
     88 H36        8.1095   10.6475    8.0338 H         2 RES2    0.0000
     89 H37        9.2395    5.6212    3.4291 H         2 RES2    0.0000
     90 H38       12.9362    6.7753    2.1201 H         2 RES2    0.0000
     91 H39       12.5049    8.9527    2.9235 H         2 RES2    0.0000
     92 H40       10.5026    9.4384    4.0074 H         2 RES2    0.0000
@<TRIPOS>BOND
     1    1    2 1
     2    2    3 1
     3    3   28 1
     4    4    2 2
     5    5    4 1
     6    6    5 2
     7    7    5 1
     8    8    7 1
     9    9    4 1
    10   10    9 1
    11   11   10 1
    12   12   11 2
    13   13   11 1
    14   14   13 1
    15   15   14 1
    16   16    1 1
    17   17   16 1
    18   18    9 1
    19   19   18 ar
    20   20   19 ar
    21   21   20 1
    22   22   21 2
    23   23   21 2
    24   24   20 ar
    25   25   24 ar
    26   26   18 ar
    27   27    1 1
    28   29    3 1
    29   30    3 1
    30   31    8 1
    31   32    8 1
    32   33    8 1
    33   34    9 1
    34   35   14 1
    35   36   14 1
    36   37   15 1
    37   38   15 1
    38   39   15 1
    39   40   17 1
    40   41   17 1
    41   42   17 1
    42   43   19 1
    43   44   24 1
    44   45   25 1
    45   46   26 1
    46   47   48 1
    47   48   49 1
    48   49   74 1
    49   50   48 2
    50   51   50 1
    51   52   51 2
    52   53   51 1
    53   54   53 1
    54   55   50 1
    55   56   55 1
    56   57   56 1
    57   58   57 2
    58   59   57 1
    59   60   59 1
    60   61   60 1
    61   62   47 1
    62   63   62 1
    63   64   55 1
    64   65   64 ar
    65   66   65 ar
    66   67   66 1
    67   68   67 2
    68   69   67 2
    69   70   66 ar
    70   71   70 ar
    71   72   64 ar
    72   73   47 1
    73   75   49 1
    74   76   49 1
    75   77   54 1
    76   78   54 1
    77   79   54 1
    78   80   55 1
    79   81   60 1
    80   82   60 1
    81   83   61 1
    82   84   61 1
    83   85   61 1
    84   86   63 1
    85   87   63 1
    86   88   63 1
    87   89   65 1
    88   90   70 1
    89   91   71 1
    90   92   72 1
    91   10   16 2
    92   25   26 ar
    93   56   62 2
    94   71   72 ar
@<TRIPOS>SUBSTRUCTURE
     1 RES1 1
     2 RES2 47

@<TRIPOS>CRYSIN
  12.3400    7.5290   19.1570  90.0000  95.0500  90.0000   4 1

