# MOL2 file generated by ConQuest
# Please check atom types

@<TRIPOS>MOLECULE
NOHTAZ
    30    30     1
SMALL
NO_CHARGES
****
Generated from CSD

@<TRIPOS>ATOM
      1 N1         1.6060   10.2727    0.5549 N.3       1 RES1    0.0000
      2 N2         3.5454   11.6303    0.5152 N.3       1 RES1    0.0000
      3 N3         2.1499   11.6614    2.3837 N.3       1 RES1    0.0000
      4 N4         0.5059   10.6215   -0.2406 N.pl3     1 RES1    0.0000
      5 N5         4.2186   12.4717   -0.3114 N.pl3     1 RES1    0.0000
      6 N6         1.6206   12.3922    3.4213 N.pl3     1 RES1    0.0000
      7 O1        -0.5877   10.7202    0.2845 O.2       1 RES1    0.0000
      8 O2         0.7186   10.6869   -1.4438 O.2       1 RES1    0.0000
      9 O3         4.7822   13.4290    0.1868 O.2       1 RES1    0.0000
     10 O4         4.2259   12.1765   -1.4948 O.2       1 RES1    0.0000
     11 O5         2.2807   13.3452    3.8233 O.2       1 RES1    0.0000
     12 O6         0.5212   12.0628    3.8459 O.2       1 RES1    0.0000
     13 C1         2.9328   10.4422   -0.0368 C.3       1 RES1    0.0000
     14 C2         3.5015   12.0070    1.9435 C.3       1 RES1    0.0000
     15 C3         1.4145   10.4487    2.0157 C.3       1 RES1    0.0000
     16 C4         3.7778    9.2016    0.0651 C.3       1 RES1    0.0000
     17 C5         4.6002   11.4070    2.7616 C.3       1 RES1    0.0000
     18 C6         1.7880    9.2199    2.7984 C.3       1 RES1    0.0000
     19 H1         2.8509   10.5818   -0.9625 H         1 RES1    0.0000
     20 H2         3.5673   12.9965    1.9251 H         1 RES1    0.0000
     21 H3         0.5044   10.5496    2.1374 H         1 RES1    0.0000
     22 H4         4.0132    8.9827    0.8493 H         1 RES1    0.0000
     23 H5         4.7076    9.4012   -0.5096 H         1 RES1    0.0000
     24 H6         3.3041    8.4139   -0.2265 H         1 RES1    0.0000
     25 H7         5.4094   11.7945    2.4630 H         1 RES1    0.0000
     26 H8         4.5907   10.3993    2.8027 H         1 RES1    0.0000
     27 H9         4.5030   11.7301    3.5954 H         1 RES1    0.0000
     28 H10        1.1038    8.2958    2.4488 H         1 RES1    0.0000
     29 H11        2.6682    8.9183    2.6611 H         1 RES1    0.0000
     30 H12        1.3304    9.3154    3.5529 H         1 RES1    0.0000
@<TRIPOS>BOND
     1    1    4 1
     2    2    5 1
     3    3    6 1
     4    4    7 2
     5    5    9 2
     6    6   11 2
     7    8    4 2
     8   10    5 2
     9   12    6 2
    10   13    1 1
    11   14    2 1
    12   15    1 1
    13   16   13 1
    14   17   14 1
    15   18   15 1
    16   19   13 1
    17   20   14 1
    18   21   15 1
    19   22   16 1
    20   23   16 1
    21   24   16 1
    22   25   17 1
    23   26   17 1
    24   27   17 1
    25   28   18 1
    26   29   18 1
    27   30   18 1
    28    2   13 1
    29    3   14 1
    30    3   15 1
@<TRIPOS>SUBSTRUCTURE
     1 RES1 1

@<TRIPOS>CRYSIN
   7.3100   10.7320   14.1550  90.0000  90.0000  90.0000  19 1

