# MOL2 file generated by ConQuest
# Please check atom types

@<TRIPOS>MOLECULE
NOJLAB
    48    50     1
SMALL
NO_CHARGES
****
Generated from CSD

@<TRIPOS>ATOM
      1 C1         2.6624    6.2910    8.8439 C.2       1 RES1    0.0000
      2 C2         1.5662    3.6420    9.0317 C.2       1 RES1    0.0000
      3 C3         2.3897    4.2601   10.1448 C.3       1 RES1    0.0000
      4 H1         2.9725    3.5489   10.5373 H         1 RES1    0.0000
      5 C4         1.4594    4.7874   11.2502 C.3       1 RES1    0.0000
      6 H2         1.9974    5.1643   11.9776 H         1 RES1    0.0000
      7 H3         0.9122    4.0511   11.5961 H         1 RES1    0.0000
      8 H4         0.8757    5.4835   10.8822 H         1 RES1    0.0000
      9 C5         0.5969    6.8870    7.6357 C.3       1 RES1    0.0000
     10 H5         0.6051    7.7056    8.1925 H         1 RES1    0.0000
     11 H6        -0.3240    6.5238    7.6405 H         1 RES1    0.0000
     12 C6         0.9873    7.2492    6.2070 C.3       1 RES1    0.0000
     13 H7         0.4630    8.0400    5.9247 H         1 RES1    0.0000
     14 H8         1.9440    7.5041    6.1935 H         1 RES1    0.0000
     15 C7         0.7662    6.1316    5.1964 C.3       1 RES1    0.0000
     16 H9         1.1290    6.4203    4.3217 H         1 RES1    0.0000
     17 H10       -0.2082    5.9944    5.0856 H         1 RES1    0.0000
     18 C8         1.4096    4.7951    5.5779 C.3       1 RES1    0.0000
     19 H11        1.3976    4.2047    4.7822 H         1 RES1    0.0000
     20 H12        2.3586    4.9606    5.8091 H         1 RES1    0.0000
     21 C9         0.7540    4.0503    6.7386 C.3       1 RES1    0.0000
     22 H13        0.9951    3.0827    6.6617 H         1 RES1    0.0000
     23 C10       -1.3881    3.3779    7.5133 C.3       1 RES1    0.0000
     24 H14       -1.1120    2.4400    7.4391 H         1 RES1    0.0000
     25 H15       -2.3446    3.4530    7.3120 H         1 RES1    0.0000
     26 H16       -1.2196    3.6971    8.4237 H         1 RES1    0.0000
     27 C11        4.6299    5.4335   10.0345 C.3       1 RES1    0.0000
     28 H17        5.0784    6.1381    9.5027 H         1 RES1    0.0000
     29 H18        5.1115    4.5837    9.8726 H         1 RES1    0.0000
     30 C12        4.7393    5.7847   11.5026 C.ar      1 RES1    0.0000
     31 C13        5.1951    4.8310   12.4024 C.ar      1 RES1    0.0000
     32 H19        5.4383    3.9672   12.0893 H         1 RES1    0.0000
     33 C14        5.2992    5.1295   13.7608 C.ar      1 RES1    0.0000
     34 H20        5.6027    4.4792   14.3831 H         1 RES1    0.0000
     35 C15        4.9468    6.3974   14.1716 C.ar      1 RES1    0.0000
     36 C16        4.5075    7.3723   13.3012 C.ar      1 RES1    0.0000
     37 H21        4.2859    8.2416   13.6153 H         1 RES1    0.0000
     38 C17        4.3959    7.0535   11.9564 C.ar      1 RES1    0.0000
     39 H22        4.0823    7.7056   11.3408 H         1 RES1    0.0000
     40 N1         1.5094    5.8968    8.2192 N.am      1 RES1    0.0000
     41 N2         1.2066    4.5302    8.0532 N.am      1 RES1    0.0000
     42 N3         3.2504    5.2925    9.5651 N.am      1 RES1    0.0000
     43 N4         5.0730    6.7177   15.6006 N.pl3     1 RES1    0.0000
     44 O1         3.0759    7.4446    8.7641 O.2       1 RES1    0.0000
     45 O2         1.2827    2.4558    8.9830 O.2       1 RES1    0.0000
     46 O3        -0.6445    4.1663    6.5882 O.3       1 RES1    0.0000
     47 O4         5.2559    7.8854   15.9100 O.2       1 RES1    0.0000
     48 O5         4.9712    5.8059   16.4051 O.2       1 RES1    0.0000
@<TRIPOS>BOND
     1    1   40 1
     2    2    3 1
     3    3    4 1
     4    5    3 1
     5    6    5 1
     6    7    5 1
     7    8    5 1
     8    9   10 1
     9   11    9 1
    10   12    9 1
    11   13   12 1
    12   14   12 1
    13   15   12 1
    14   16   15 1
    15   17   15 1
    16   18   15 1
    17   19   18 1
    18   20   18 1
    19   21   18 1
    20   22   21 1
    21   23   24 1
    22   25   23 1
    23   26   23 1
    24   27   28 1
    25   29   27 1
    26   30   27 1
    27   31   30 ar
    28   32   31 1
    29   33   31 ar
    30   34   33 1
    31   35   33 ar
    32   36   35 ar
    33   37   36 1
    34   38   30 ar
    35   39   38 1
    36   40    9 1
    37   41    2 1
    38   42    1 1
    39   43   35 1
    40   44    1 2
    41   45    2 2
    42   46   21 1
    43   47   43 2
    44   48   43 2
    45    3   42 1
    46   21   41 1
    47   23   46 1
    48   27   42 1
    49   36   38 ar
    50   40   41 1
@<TRIPOS>SUBSTRUCTURE
     1 RES1 1

@<TRIPOS>CRYSIN
   8.3044   10.8929    9.6338  90.0000  90.2690  90.0000   4 1

