# MOL2 file generated by ConQuest
# Please check atom types

@<TRIPOS>MOLECULE
NOKSAJ
    65    67     1
SMALL
NO_CHARGES
****
Generated from CSD

@<TRIPOS>ATOM
      1 O1         4.4504    1.3196    1.7356 O.2       1 RES1    0.0000
      2 O2         2.6169    2.2894    0.8036 O.3       1 RES1    0.0000
      3 O3         0.0431   -1.6165    3.8687 O.2       1 RES1    0.0000
      4 O4         1.7802    3.6123    3.5472 O.3       1 RES1    0.0000
      5 O5        -0.4094    3.0375    3.7964 O.2       1 RES1    0.0000
      6 N1         1.0927    1.6234    2.7952 N.am      1 RES1    0.0000
      7 N2         0.8125   -0.5844    3.7842 N.pl3     1 RES1    0.0000
      8 N3         2.4446    1.2852    2.7843 N.am      1 RES1    0.0000
      9 C1         3.2865    1.6264    1.7493 C.2       1 RES1    0.0000
     10 C2         1.9871   -0.4632    4.3749 C.2       1 RES1    0.0000
     11 C3         3.8006    1.2642    4.7675 C.2       1 RES1    0.0000
     12 C4         2.4910   -1.5622    5.2431 C.ar      1 RES1    0.0000
     13 C5         3.8069   -1.9811    5.0913 C.ar      1 RES1    0.0000
     14 C6         2.8286    0.7015    4.0317 C.2       1 RES1    0.0000
     15 C7         4.1732    0.9651    6.1577 C.ar      1 RES1    0.0000
     16 C8         0.7278    2.8168    3.4434 C.2       1 RES1    0.0000
     17 C9         0.2609    0.4536    2.8547 C.3       1 RES1    0.0000
     18 C10        3.3496    2.8649   -0.3530 C.3       1 RES1    0.0000
     19 C11        4.3305   -2.9622    5.9258 C.ar      1 RES1    0.0000
     20 C12        3.2068    0.7955    7.1404 C.ar      1 RES1    0.0000
     21 C13        1.6873   -2.1477    6.2234 C.ar      1 RES1    0.0000
     22 C14        4.8830    0.5069    8.8160 C.ar      1 RES1    0.0000
     23 C15        1.6543    4.9701    4.1399 C.3       1 RES1    0.0000
     24 C16        5.5116    0.9346    6.5504 C.ar      1 RES1    0.0000
     25 C17        3.5611    0.5592    8.4522 C.ar      1 RES1    0.0000
     26 C18        2.2287   -3.1157    7.0573 C.ar      1 RES1    0.0000
     27 C19        3.5487   -3.5208    6.9081 C.ar      1 RES1    0.0000
     28 C20        5.8561    0.6898    7.8595 C.ar      1 RES1    0.0000
     29 C21        4.4317    3.7946    0.1407 C.3       1 RES1    0.0000
     30 C22        1.1830    4.8630    5.5730 C.3       1 RES1    0.0000
     31 C23        3.9053    1.7533   -1.2118 C.3       1 RES1    0.0000
     32 C24        3.0868    5.4661    4.0654 C.3       1 RES1    0.0000
     33 C25        2.2483    3.6146   -1.0781 C.3       1 RES1    0.0000
     34 C26        0.7439    5.8152    3.2842 C.3       1 RES1    0.0000
     35 H1         4.3114    1.9398    4.3369 H         1 RES1    0.0000
     36 H2         4.3513   -1.5967    4.4139 H         1 RES1    0.0000
     37 H3         0.1788    0.0670    1.9479 H         1 RES1    0.0000
     38 H4        -0.6446    0.7135    3.1586 H         1 RES1    0.0000
     39 H5         5.2308   -3.2458    5.8179 H         1 RES1    0.0000
     40 H6         2.2880    0.8443    6.9056 H         1 RES1    0.0000
     41 H7         0.7790   -1.8865    6.3190 H         1 RES1    0.0000
     42 H8         5.1249    0.3465    9.7205 H         1 RES1    0.0000
     43 H9         6.1929    1.0851    5.9051 H         1 RES1    0.0000
     44 H10        2.8855    0.4305    9.1082 H         1 RES1    0.0000
     45 H11        1.6916   -3.5051    7.7367 H         1 RES1    0.0000
     46 H12        3.9105   -4.1838    7.4836 H         1 RES1    0.0000
     47 H13        6.7730    0.6459    8.1044 H         1 RES1    0.0000
     48 H14        5.1238    3.2745    0.6003 H         1 RES1    0.0000
     49 H15        4.0448    4.4447    0.7627 H         1 RES1    0.0000
     50 H16        4.8290    4.2660   -0.6208 H         1 RES1    0.0000
     51 H17        0.2582    4.5379    5.5888 H         1 RES1    0.0000
     52 H18        1.2279    5.7441    5.9992 H         1 RES1    0.0000
     53 H19        1.7576    4.2360    6.0608 H         1 RES1    0.0000
     54 H20        4.6116    1.2828   -0.7217 H         1 RES1    0.0000
     55 H21        4.2766    2.1315   -2.0368 H         1 RES1    0.0000
     56 H22        3.1885    1.1230   -1.4348 H         1 RES1    0.0000
     57 H23        3.3668    5.5183    3.1279 H         1 RES1    0.0000
     58 H24        3.6735    4.8464    4.5473 H         1 RES1    0.0000
     59 H25        3.1465    6.3556    4.4737 H         1 RES1    0.0000
     60 H26        1.9108    4.3337   -0.5045 H         1 RES1    0.0000
     61 H27        1.5187    2.9971   -1.2912 H         1 RES1    0.0000
     62 H28        2.6047    3.9985   -1.9068 H         1 RES1    0.0000
     63 H29        1.0950    5.8506    2.3703 H         1 RES1    0.0000
     64 H30        0.7002    6.7234    3.6512 H         1 RES1    0.0000
     65 H31       -0.1538    5.4231    3.2749 H         1 RES1    0.0000
@<TRIPOS>BOND
     1    1    9 2
     2    2    9 1
     3    3    7 1
     4    4   16 1
     5    5   16 2
     6    6    8 1
     7    7   10 2
     8    8    9 1
     9   10   12 1
    10   11   14 2
    11   12   13 ar
    12   13   19 ar
    13   14    8 1
    14   15   11 1
    15   16    6 1
    16   17    6 1
    17   18    2 1
    18   19   27 ar
    19   20   15 ar
    20   21   12 ar
    21   22   25 ar
    22   23    4 1
    23   24   15 ar
    24   25   20 ar
    25   26   21 ar
    26   27   26 ar
    27   28   22 ar
    28   29   18 1
    29   30   23 1
    30   31   18 1
    31   32   23 1
    32   33   18 1
    33   34   23 1
    34   35   11 1
    35   36   13 1
    36   37   17 1
    37   38   17 1
    38   39   19 1
    39   40   20 1
    40   41   21 1
    41   42   22 1
    42   43   24 1
    43   44   25 1
    44   45   26 1
    45   46   27 1
    46   47   28 1
    47   48   29 1
    48   49   29 1
    49   50   29 1
    50   51   30 1
    51   52   30 1
    52   53   30 1
    53   54   31 1
    54   55   31 1
    55   56   31 1
    56   57   32 1
    57   58   32 1
    58   59   32 1
    59   60   33 1
    60   61   33 1
    61   62   33 1
    62   63   34 1
    63   64   34 1
    64   65   34 1
    65    7   17 1
    66   10   14 1
    67   24   28 ar
@<TRIPOS>SUBSTRUCTURE
     1 RES1 1

@<TRIPOS>CRYSIN
   6.7701   11.1660   17.8910  74.1700  82.5240  85.5100   2 1

