# MOL2 file generated by ConQuest
# Please check atom types

@<TRIPOS>MOLECULE
NOMESL
    12    12     1
SMALL
NO_CHARGES
****
Generated from CSD

@<TRIPOS>ATOM
      1 C1        -1.8501    1.9991    0.0000 C.ar      1 RES1    0.0000
      2 C2        -0.6162    1.4583    0.0000 C.ar      1 RES1    0.0000
      3 C3        -0.2195    0.1337    0.0000 C.ar      1 RES1    0.0000
      4 C4        -1.3384   -0.6846    0.0000 C.ar      1 RES1    0.0000
      5 C5        -2.6586   -0.3246    0.0000 C.ar      1 RES1    0.0000
      6 C6        -2.9160    1.0269    0.0000 C.ar      1 RES1    0.0000
      7 C7        -2.2604    3.4557    0.0000 C.3       1 RES1    0.0000
      8 C8         1.2067   -0.3625    0.0000 C.3       1 RES1    0.0000
      9 C9        -3.7850   -1.3187    0.0000 C.3       1 RES1    0.0000
     10 N1         0.4860    2.4414    0.0000 N.pl3     1 RES1    0.0000
     11 O1         0.6495    3.1874    0.9496 O.2       1 RES1    0.0000
     12 O2         1.2263    2.5936   -0.9496 O.2       1 RES1    0.0000
@<TRIPOS>BOND
     1    1    2 ar
     2    2    3 ar
     3    3    4 ar
     4    4    5 ar
     5    5    6 ar
     6    6    1 ar
     7    7    1 1
     8    8    3 1
     9    9    5 1
    10   10    2 1
    11   11   10 2
    12   12   10 2
@<TRIPOS>SUBSTRUCTURE
     1 RES1 1

@<TRIPOS>CRYSIN
  15.1400    8.4100    7.2600  90.0000  90.0000  90.0000  33 1

