# MOL2 file generated by ConQuest
# Please check atom types

@<TRIPOS>MOLECULE
NOMKEG
    22    22     1
SMALL
NO_CHARGES
****
Generated from CSD

@<TRIPOS>ATOM
      1 O1         2.5659    3.3270    5.7379 O.2       1 RES1    0.0000
      2 O2         6.2891    1.2833    2.9445 O.3       1 RES1    0.0000
      3 N1         3.6446    2.0824    4.1857 N.am      1 RES1    0.0000
      4 N2         3.9538    2.6162    1.9541 N.am      1 RES1    0.0000
      5 O3         2.6120    3.9320    3.2717 O.2       1 RES1    0.0000
      6 O4         8.4026    1.1988    2.4391 O.2       1 RES1    0.0000
      7 O5         3.7635    3.0250   -0.2278 O.2       1 RES1    0.0000
      8 O6         7.0622   -0.1322    1.3800 O.2       1 RES1    0.0000
      9 N3         7.3367    0.7195    2.1714 N.pl3     1 RES1    0.0000
     10 C1         4.2646    1.2288    1.5915 C.3       1 RES1    0.0000
     11 O7         3.9061    4.7003    1.1279 O.2       1 RES1    0.0000
     12 N4         3.8455    3.5176    0.8802 N.pl3     1 RES1    0.0000
     13 O8         2.8374    1.2034    6.0708 O.2       1 RES1    0.0000
     14 C2         3.3188    2.9752    3.1620 C.2       1 RES1    0.0000
     15 C3         4.2535    0.7456    4.0372 C.3       1 RES1    0.0000
     16 C4         5.0113    0.6240    2.7487 C.3       1 RES1    0.0000
     17 N5         2.9429    2.2232    5.4247 N.pl3     1 RES1    0.0000
     18 H1         3.4771    0.7436    1.4073 H         1 RES1    0.0000
     19 H2         3.5418    0.0647    4.0296 H         1 RES1    0.0000
     20 H3         4.8368    1.2610    0.7874 H         1 RES1    0.0000
     21 H4         4.7868    0.6014    4.7778 H         1 RES1    0.0000
     22 H5         5.1432   -0.3039    2.5883 H         1 RES1    0.0000
@<TRIPOS>BOND
     1    1   17 2
     2    2    9 1
     3    3   14 1
     4    4   10 1
     5    5   14 2
     6    6    9 2
     7    7   12 2
     8    8    9 2
     9   10   16 1
    10   11   12 2
    11   12    4 1
    12   13   17 2
    13   14    4 1
    14   15    3 1
    15   16    2 1
    16   17    3 1
    17   18   10 1
    18   19   15 1
    19   20   10 1
    20   21   15 1
    21   22   16 1
    22   15   16 1
@<TRIPOS>SUBSTRUCTURE
     1 RES1 1

@<TRIPOS>CRYSIN
  10.5724    6.4665   13.4316  90.0000 103.1570  90.0000 231 1

