# MOL2 file generated by ConQuest
# Please check atom types

@<TRIPOS>MOLECULE
NOMNOU
   139   136     3
SMALL
NO_CHARGES
****
Generated from CSD

@<TRIPOS>ATOM
      1 C1         1.5961    4.8271   11.3181 C.ar      1 RES1    0.0000
      2 C2         1.6522    3.5357   10.8638 C.ar      1 RES1    0.0000
      3 H1         1.0136    2.9140   11.1317 H         1 RES1    0.0000
      4 C3         2.6650    3.1675   10.0022 C.ar      1 RES1    0.0000
      5 H2         2.7136    2.2864    9.7072 H         1 RES1    0.0000
      6 C4         3.6105    4.0777    9.5691 C.ar      1 RES1    0.0000
      7 C5         3.5085    5.3967   10.0384 C.ar      1 RES1    0.0000
      8 H3         4.1194    6.0358    9.7488 H         1 RES1    0.0000
      9 C6         2.5139    5.7546   10.9163 C.ar      1 RES1    0.0000
     10 H4         2.4675    6.6261   11.2385 H         1 RES1    0.0000
     11 C7         4.6940    3.6852    8.6290 C.2       1 RES1    0.0000
     12 C8         4.8097    2.2606    8.4308 C.1       1 RES1    0.0000
     13 C9         5.5168    4.5554    7.9980 C.2       1 RES1    0.0000
     14 H5         5.3406    5.4445    8.2067 H         1 RES1    0.0000
     15 C10        6.6165    4.3922    7.0644 C.ar      1 RES1    0.0000
     16 C11        7.1858    3.1645    6.6544 C.ar      1 RES1    0.0000
     17 H6         6.8963    2.3730    7.0483 H         1 RES1    0.0000
     18 C12        8.1540    3.1182    5.6913 C.ar      1 RES1    0.0000
     19 H7         8.4847    2.2898    5.4283 H         1 RES1    0.0000
     20 C13        8.6704    4.2794    5.0826 C.ar      1 RES1    0.0000
     21 C14        8.1797    5.5092    5.5412 C.ar      1 RES1    0.0000
     22 H8         8.5233    6.3043    5.2020 H         1 RES1    0.0000
     23 C15        7.1861    5.5363    6.5016 C.ar      1 RES1    0.0000
     24 H9         6.8776    6.3664    6.7894 H         1 RES1    0.0000
     25 C16       10.4169    5.3023    3.6454 C.ar      1 RES1    0.0000
     26 C17       10.5481    5.6330    2.2933 C.ar      1 RES1    0.0000
     27 H10       10.0591    5.1699    1.6544 H         1 RES1    0.0000
     28 C18       11.4005    6.6426    1.9096 C.ar      1 RES1    0.0000
     29 H11       11.4751    6.8456    1.0046 H         1 RES1    0.0000
     30 C19       12.1426    7.3588    2.8128 C.ar      1 RES1    0.0000
     31 C20       12.0052    7.0569    4.1414 C.ar      1 RES1    0.0000
     32 H12       12.4863    7.5386    4.7749 H         1 RES1    0.0000
     33 C21       11.1557    6.0401    4.5504 C.ar      1 RES1    0.0000
     34 H13       11.0821    5.8500    5.4572 H         1 RES1    0.0000
     35 C22       13.8541    9.0136    3.1983 C.3       1 RES1    0.0000
     36 H14       14.4612    8.3801    3.6092 H         1 RES1    0.0000
     37 H15       13.3501    9.4531    3.9006 H         1 RES1    0.0000
     38 C23       14.6257   10.0265    2.4164 C.3       1 RES1    0.0000
     39 H16       15.2642    9.5789    1.8571 H         1 RES1    0.0000
     40 H17       15.0869   10.6125    3.0209 H         1 RES1    0.0000
     41 H18       14.0238   10.5371    1.8716 H         1 RES1    0.0000
     42 C24        9.7855    2.9557    3.3504 C.ar      1 RES1    0.0000
     43 C25       10.9719    2.2803    3.4970 C.ar      1 RES1    0.0000
     44 H19       11.6367    2.6262    4.0472 H         1 RES1    0.0000
     45 C26       11.1777    1.1027    2.8381 C.ar      1 RES1    0.0000
     46 H20       11.9656    0.6244    2.9630 H         1 RES1    0.0000
     47 C27       10.2088    0.6319    1.9910 C.ar      1 RES1    0.0000
     48 C28        9.0064    1.2893    1.8227 C.ar      1 RES1    0.0000
     49 H21        8.3528    0.9547    1.2507 H         1 RES1    0.0000
     50 C29        8.8080    2.4628    2.5322 C.ar      1 RES1    0.0000
     51 H22        8.0011    2.9188    2.4508 H         1 RES1    0.0000
     52 N1         0.5330    5.2172   12.2412 N.pl3     1 RES1    0.0000
     53 N2         9.5910    4.2003    4.0451 N.pl3     1 RES1    0.0000
     54 N3         4.8438    1.1310    8.3113 N.1       1 RES1    0.0000
     55 O1        -0.5064    4.5504   12.2159 O.2       1 RES1    0.0000
     56 O2         0.6083    6.2999   12.7879 O.2       1 RES1    0.0000
     57 O3        12.9601    8.3300    2.3096 O.3       1 RES1    0.0000
     58 C30        9.8041   -1.0061    0.3602 C.3       1 RES1    0.0000
     59 H23        9.8119   -0.3691   -0.3711 H         1 RES1    0.0000
     60 H24        8.8982   -1.1075    0.6932 H         1 RES1    0.0000
     61 C31       10.4179   -2.3460   -0.0434 C.3       1 RES1    0.0000
     62 H25       11.3763   -2.2724   -0.0398 H         1 RES1    0.0000
     63 H26       10.1185   -2.5827   -0.9249 H         1 RES1    0.0000
     64 H27       10.1472   -3.0233    0.5792 H         1 RES1    0.0000
     65 O4        10.7638   -0.6226    1.4480 O.3       1 RES1    0.0000
     66 O5         0.0490    4.4134   13.0684 Du        3 SUP3    0.0000
     67 C32       11.1879   -1.4794    0.9702 Du        3 SUP3    0.0000
     68 H28       11.3191   -1.9263    1.8209 Du        3 SUP3    0.0000
     69 H29       11.9892   -0.9737    0.7638 Du        3 SUP3    0.0000
     70 C33       10.9251   -2.5122   -0.1267 Du        3 SUP3    0.0000
     71 H30       10.0086   -2.8057   -0.0724 Du        3 SUP3    0.0000
     72 H31       11.5087   -3.2605   -0.0109 Du        3 SUP3    0.0000
     73 H32       11.0763   -2.1102   -0.9865 Du        3 SUP3    0.0000
     74 O6         9.9945   -0.5495    1.0534 Du        3 SUP3    0.0000
     75 C34        6.2616    9.2401    0.3095 C.3       2 RES2    0.0000
     76 H33        6.1179    8.9525   -0.5955 H         2 RES2    0.0000
     77 H34        7.1139    9.6757    0.3747 H         2 RES2    0.0000
     78 H35        5.5682    9.8554    0.5629 H         2 RES2    0.0000
     79 C35        6.2335    8.0478    1.2254 C.3       2 RES2    0.0000
     80 H36        6.9604    7.4438    1.0064 H         2 RES2    0.0000
     81 H37        6.3411    8.3341    2.1467 H         2 RES2    0.0000
     82 C36        4.7187    6.2898    1.8529 C.ar      2 RES2    0.0000
     83 C37        5.6495    5.6761    2.6680 C.ar      2 RES2    0.0000
     84 H38        6.5116    6.0180    2.7313 H         2 RES2    0.0000
     85 C38        5.2908    4.5418    3.3942 C.ar      2 RES2    0.0000
     86 H39        5.9238    4.1257    3.9332 H         2 RES2    0.0000
     87 C39        4.0118    4.0276    3.3256 C.ar      2 RES2    0.0000
     88 C40        3.0771    4.6708    2.5357 C.ar      2 RES2    0.0000
     89 H40        2.2056    4.3494    2.4960 H         2 RES2    0.0000
     90 C41        3.4343    5.7944    1.8010 C.ar      2 RES2    0.0000
     91 H41        2.7994    6.2172    1.2670 H         2 RES2    0.0000
     92 C42        4.4462    1.6585    3.7804 C.ar      2 RES2    0.0000
     93 C43        5.0990    0.9892    4.7828 C.ar      2 RES2    0.0000
     94 H42        4.9938    1.2775    5.6600 H         2 RES2    0.0000
     95 C44        5.9107   -0.1042    4.5272 C.ar      2 RES2    0.0000
     96 H43        6.3312   -0.5473    5.2274 H         2 RES2    0.0000
     97 C45        6.0901   -0.5290    3.2392 C.ar      2 RES2    0.0000
     98 C46        5.4346    0.1130    2.2267 C.ar      2 RES2    0.0000
     99 H44        5.5350   -0.1829    1.3503 H         2 RES2    0.0000
    100 C47        4.6162    1.2098    2.4968 C.ar      2 RES2    0.0000
    101 H45        4.1812    1.6417    1.7974 H         2 RES2    0.0000
    102 C48        7.8033   -2.0958    3.8536 C.3       2 RES2    0.0000
    103 H46        7.3026   -2.4052    4.6246 H         2 RES2    0.0000
    104 H47        8.4054   -1.3933    4.1450 H         2 RES2    0.0000
    105 C49        8.5884   -3.2244    3.2834 C.3       2 RES2    0.0000
    106 H48        8.0579   -3.6871    2.6318 H         2 RES2    0.0000
    107 H49        8.8324   -3.8305    3.9857 H         2 RES2    0.0000
    108 H50        9.3829   -2.8823    2.8653 H         2 RES2    0.0000
    109 C50        2.7257    2.8688    5.0715 C.ar      2 RES2    0.0000
    110 C51        2.1258    1.7045    5.5604 C.ar      2 RES2    0.0000
    111 H51        2.3956    0.8757    5.2346 H         2 RES2    0.0000
    112 C52        1.1380    1.7719    6.5181 C.ar      2 RES2    0.0000
    113 H52        0.7581    0.9796    6.8238 H         2 RES2    0.0000
    114 C53        0.6823    2.9890    7.0512 C.ar      2 RES2    0.0000
    115 C54        1.3465    4.1448    6.6039 C.ar      2 RES2    0.0000
    116 H53        1.1155    4.9674    6.9686 H         2 RES2    0.0000
    117 C55        2.3215    4.0915    5.6495 C.ar      2 RES2    0.0000
    118 H54        2.7296    4.8808    5.3740 H         2 RES2    0.0000
    119 C56       -0.4348    2.9386    7.9672 C.2       2 RES2    0.0000
    120 H55       -0.6998    2.0711    8.1723 H         2 RES2    0.0000
    121 C57       -1.1800    3.8837    8.5909 C.2       2 RES2    0.0000
    122 C58       -0.9017    5.2747    8.4058 C.1       2 RES2    0.0000
    123 C59       -2.3335    3.5924    9.4802 C.ar      2 RES2    0.0000
    124 C60       -2.6598    2.2915    9.8755 C.ar      2 RES2    0.0000
    125 H56       -2.1239    1.5846    9.5950 H         2 RES2    0.0000
    126 C61       -3.7533    2.0282   10.6738 C.ar      2 RES2    0.0000
    127 H57       -3.9610    1.1560   10.9199 H         2 RES2    0.0000
    128 C62       -4.5324    3.0786   11.0973 C.ar      2 RES2    0.0000
    129 C63       -4.2428    4.3685   10.7443 C.ar      2 RES2    0.0000
    130 H58       -4.7769    5.0689   11.0412 H         2 RES2    0.0000
    131 C64       -3.1536    4.6140    9.9459 C.ar      2 RES2    0.0000
    132 H59       -2.9575    5.4920    9.7090 H         2 RES2    0.0000
    133 N4         3.6600    2.8329    4.0516 N.pl3     2 RES2    0.0000
    134 N5        -0.7306    6.4047    8.2881 N.1       2 RES2    0.0000
    135 N6        -5.6955    2.8012   11.9486 N.pl3     2 RES2    0.0000
    136 O7        -6.3996    3.7178   12.2829 O.2       2 RES2    0.0000
    137 O8        -5.8891    1.6460   12.2919 O.2       2 RES2    0.0000
    138 O9         6.9079   -1.5825    2.8807 O.3       2 RES2    0.0000
    139 O10        4.9885    7.3878    1.0630 O.3       2 RES2    0.0000
@<TRIPOS>BOND
     1    1    2 ar
     2    2    3 1
     3    4    2 ar
     4    5    4 1
     5    6    4 ar
     6    7    6 ar
     7    8    7 1
     8    9    1 ar
     9   10    9 1
    10   11    6 1
    11   12   11 1
    12   13   11 2
    13   14   13 1
    14   15   13 1
    15   16   15 ar
    16   17   16 1
    17   18   16 ar
    18   19   18 1
    19   20   18 ar
    20   21   20 ar
    21   22   21 1
    22   23   15 ar
    23   24   23 1
    24   25   26 ar
    25   26   27 1
    26   28   26 ar
    27   29   28 1
    28   30   28 ar
    29   31   30 ar
    30   32   31 1
    31   33   25 ar
    32   34   33 1
    33   35   36 1
    34   37   35 1
    35   38   35 1
    36   39   38 1
    37   40   38 1
    38   41   38 1
    39   42   43 ar
    40   43   44 1
    41   45   43 ar
    42   46   45 1
    43   47   45 ar
    44   48   47 ar
    45   49   48 1
    46   50   42 ar
    47   51   50 1
    48   52    1 1
    49   53   20 1
    50   54   12 3
    51   55   52 2
    52   56   52 2
    53   57   30 1
    54   58   59 1
    55   60   58 1
    56   61   58 1
    57   62   61 1
    58   63   61 1
    59   64   61 1
    60   65   47 1
    61   75   76 1
    62   77   75 1
    63   78   75 1
    64   79   75 1
    65   80   79 1
    66   81   79 1
    67   82   83 ar
    68   83   84 1
    69   85   83 ar
    70   86   85 1
    71   87   85 ar
    72   88   87 ar
    73   89   88 1
    74   90   82 ar
    75   91   90 1
    76   92   93 ar
    77   93   94 1
    78   95   93 ar
    79   96   95 1
    80   97   95 ar
    81   98   97 ar
    82   99   98 1
    83  100   92 ar
    84  101  100 1
    85  102  103 1
    86  104  102 1
    87  105  102 1
    88  106  105 1
    89  107  105 1
    90  108  105 1
    91  109  110 ar
    92  110  111 1
    93  112  110 ar
    94  113  112 1
    95  114  112 ar
    96  115  114 ar
    97  116  115 1
    98  117  109 ar
    99  118  117 1
   100  119  114 1
   101  120  119 1
   102  121  119 2
   103  122  121 1
   104  123  121 1
   105  124  123 ar
   106  125  124 1
   107  126  124 ar
   108  127  126 1
   109  128  126 ar
   110  129  128 ar
   111  130  129 1
   112  131  123 ar
   113  132  131 1
   114  133   87 1
   115  134  122 3
   116  135  128 1
   117  136  135 2
   118  137  135 2
   119  138   97 1
   120  139   79 1
   121    7    9 ar
   122   21   23 ar
   123   25   53 1
   124   31   33 ar
   125   35   57 1
   126   42   53 1
   127   48   50 ar
   128   58   65 1
   129   82  139 1
   130   88   90 ar
   131   92  133 1
   132   98  100 ar
   133  102  138 1
   134  109  133 1
   135  115  117 ar
   136  129  131 ar
@<TRIPOS>SUBSTRUCTURE
     1 RES1 1
     2 RES2 75
     3 SUP3 66

@<TRIPOS>CRYSIN
  11.8990   12.6560   18.7970  85.6230  74.8280  87.5640   2 1

