# MOL2 file generated by ConQuest
# Please check atom types

@<TRIPOS>MOLECULE
NOMNIO
    79    67     2
SMALL
NO_CHARGES
****
Generated from CSD

@<TRIPOS>ATOM
      1 N1         9.3966    6.8889    1.0225 N.pl3     1 RES1    0.0000
      2 C1        10.1698    5.7948    1.5204 C.ar      1 RES1    0.0000
      3 C2         9.1060    6.9018   -0.3818 C.ar      1 RES1    0.0000
      4 C3         8.6270    7.6764    1.8945 C.ar      1 RES1    0.0000
      5 C4         7.0712    9.2010    3.6794 C.ar      1 RES1    0.0000
      6 C5         8.4815    6.9358   -3.0730 C.ar      1 RES1    0.0000
      7 C6         7.4605    8.2974    1.4839 C.ar      1 RES1    0.0000
      8 H1         7.1803    8.2098    0.6020 H         1 RES1    0.0000
      9 C7         6.7127    9.0405    2.3603 C.ar      1 RES1    0.0000
     10 H2         5.9357    9.4499    2.0527 H         1 RES1    0.0000
     11 C8         9.0231    7.8455    3.2080 C.ar      1 RES1    0.0000
     12 H3         9.8082    7.4472    3.5046 H         1 RES1    0.0000
     13 C9         8.2640    8.6029    4.0910 C.ar      1 RES1    0.0000
     14 H4         8.5549    8.7144    4.9675 H         1 RES1    0.0000
     15 O1         8.1476    7.0643   -4.4164 O.3       1 RES1    0.0000
     16 C10        5.5801   10.9769    6.7911 C.ar      1 RES1    0.0000
     17 C11       11.4473    5.5887    1.0181 C.ar      1 RES1    0.0000
     18 H5        11.8069    6.1845    0.4028 H         1 RES1    0.0000
     19 C12        8.9087    8.0718   -2.4710 C.ar      1 RES1    0.0000
     20 H6         8.9807    8.8615   -2.9590 H         1 RES1    0.0000
     21 C13        9.2343    8.0530   -1.1320 C.ar      1 RES1    0.0000
     22 H7         9.5463    8.8298   -0.7270 H         1 RES1    0.0000
     23 C14       12.1858    4.4896    1.4363 C.ar      1 RES1    0.0000
     24 H8        13.0328    4.3425    1.0822 H         1 RES1    0.0000
     25 C15        4.0184   12.3419    8.6159 C.ar      1 RES1    0.0000
     26 C16       10.4523    3.8370    2.8838 C.ar      1 RES1    0.0000
     27 H9        10.1213    3.2608    3.5355 H         1 RES1    0.0000
     28 C17        6.2281    9.9719    4.5968 C.2       1 RES1    0.0000
     29 H10        5.4559   10.3415    4.2338 H         1 RES1    0.0000
     30 C18        5.1709   11.7241    9.0209 C.ar      1 RES1    0.0000
     31 H11        5.4300   11.7558    9.9128 H         1 RES1    0.0000
     32 C19        6.4347   10.1959    5.8395 C.2       1 RES1    0.0000
     33 H12        7.2105    9.8278    6.1969 H         1 RES1    0.0000
     34 C20        9.6810    4.9173    2.4444 C.ar      1 RES1    0.0000
     35 H13        8.8251    5.0395    2.7864 H         1 RES1    0.0000
     36 C21        8.3843    5.7636   -2.3769 C.ar      1 RES1    0.0000
     37 H14        8.1156    4.9806   -2.8019 H         1 RES1    0.0000
     38 N2         3.2076   13.0366    9.6251 N.pl3     1 RES1    0.0000
     39 C22       11.6836    3.6320    2.3559 C.ar      1 RES1    0.0000
     40 C23        8.6920    5.7627   -1.0258 C.ar      1 RES1    0.0000
     41 H15        8.6163    4.9716   -0.5433 H         1 RES1    0.0000
     42 C24        5.9442   11.0565    8.0980 C.ar      1 RES1    0.0000
     43 H16        6.7327   10.6492    8.3757 H         1 RES1    0.0000
     44 C25        4.4246   11.6290    6.3927 C.ar      1 RES1    0.0000
     45 H17        4.1789   11.6019    5.4964 H         1 RES1    0.0000
     46 C26        3.6073   12.3351    7.3057 C.ar      1 RES1    0.0000
     47 H18        2.8317   12.7718    7.0335 H         1 RES1    0.0000
     48 O2         2.2091   13.6068    9.2444 O.2       1 RES1    0.0000
     49 O3         3.5417   12.9845   10.7925 O.2       1 RES1    0.0000
     50 C27       13.7457    0.9979    3.8531 C.3       1 RES1    0.0000
     51 H19       13.7809    0.5159    3.0221 H         1 RES1    0.0000
     52 H20       13.6488    0.3756    4.5779 H         1 RES1    0.0000
     53 H21       14.5567    1.4980    3.9671 H         1 RES1    0.0000
     54 C28       12.5406    1.9642    3.8376 C.3       1 RES1    0.0000
     55 H22       11.7043    1.4731    3.8598 H         1 RES1    0.0000
     56 H23       12.5714    2.5661    4.5968 H         1 RES1    0.0000
     57 O4        12.6766    2.6634    2.6381 O.3       1 RES1    0.0000
     58 C29        7.8700    6.0171   -5.1689 C.3       1 RES1    0.0000
     59 H24        7.1166    5.5328   -4.7982 H         1 RES1    0.0000
     60 H25        8.6334    5.4196   -5.1965 H         1 RES1    0.0000
     61 C30        7.5377    6.4990   -6.5720 C.3       1 RES1    0.0000
     62 H26        6.8716    7.1892   -6.5244 H         1 RES1    0.0000
     63 H27        7.2016    5.7659   -7.0910 H         1 RES1    0.0000
     64 H28        8.3300    6.8475   -6.9870 H         1 RES1    0.0000
     65 C31       13.5552    1.1496    4.1718 Du        2 SUP2    0.0000
     66 H29       12.8741    0.4843    4.0401 Du        2 SUP2    0.0000
     67 H30       13.4978    1.4822    5.0759 Du        2 SUP2    0.0000
     68 H31       14.4168    0.7626    4.0291 Du        2 SUP2    0.0000
     69 O5        11.9659    2.2991    2.8683 Du        2 SUP2    0.0000
     70 C32       13.3324    2.3353    3.1648 Du        2 SUP2    0.0000
     71 H32       13.5711    3.1839    3.5743 Du        2 SUP2    0.0000
     72 H33       13.8629    2.2086    2.3659 Du        2 SUP2    0.0000
     73 C33        8.3320    7.9043   -5.3205 Du        2 SUP2    0.0000
     74 H34        9.2628    8.1781   -5.3326 Du        2 SUP2    0.0000
     75 H35        7.7844    8.6895   -5.1622 Du        2 SUP2    0.0000
     76 C34        7.9461    7.2458   -6.6993 Du        2 SUP2    0.0000
     77 H36        8.4604    6.4447   -6.8276 Du        2 SUP2    0.0000
     78 H37        8.1304    7.8613   -7.4119 Du        2 SUP2    0.0000
     79 H38        7.0106    7.0286   -6.6993 Du        2 SUP2    0.0000
@<TRIPOS>BOND
     1    1    2 1
     2    2   17 ar
     3    3    1 1
     4    4    1 1
     5    5    9 ar
     6    6   15 1
     7    7    4 ar
     8    8    7 1
     9    9    7 ar
    10   10    9 1
    11   11    4 ar
    12   12   11 1
    13   13    5 ar
    14   14   13 1
    15   15   58 1
    16   16   32 1
    17   17   18 1
    18   19    6 ar
    19   20   19 1
    20   21    3 ar
    21   22   21 1
    22   23   17 ar
    23   24   23 1
    24   25   30 ar
    25   26   27 1
    26   28    5 1
    27   29   28 1
    28   30   31 1
    29   32   28 2
    30   33   32 1
    31   34    2 ar
    32   35   34 1
    33   36    6 ar
    34   37   36 1
    35   38   25 1
    36   39   23 ar
    37   40    3 ar
    38   41   40 1
    39   42   16 ar
    40   43   42 1
    41   44   16 ar
    42   45   44 1
    43   46   25 ar
    44   47   46 1
    45   48   38 2
    46   49   38 2
    47   50   51 1
    48   52   50 1
    49   53   50 1
    50   54   50 1
    51   55   54 1
    52   56   54 1
    53   57   39 1
    54   58   59 1
    55   60   58 1
    56   61   58 1
    57   62   61 1
    58   63   61 1
    59   64   61 1
    60   11   13 ar
    61   19   21 ar
    62   26   34 ar
    63   26   39 ar
    64   30   42 ar
    65   36   40 ar
    66   44   46 ar
    67   54   57 1
@<TRIPOS>SUBSTRUCTURE
     1 RES1 1
     2 SUP2 65

@<TRIPOS>CRYSIN
  10.3260   22.6290   12.1740  90.0000 114.6360  90.0000  14 1

