# MOL2 file generated by ConQuest
# Please check atom types

@<TRIPOS>MOLECULE
NOPHKN
    56    58     2
SMALL
NO_CHARGES
****
Generated from CSD

@<TRIPOS>ATOM
      1 C1         6.3802   10.3914    6.9131 C.2       1 RES1    0.0000
      2 O1         6.0077   10.8078    7.9980 O.2       1 RES1    0.0000
      3 C2         6.3154    8.9055    6.6502 C.ar      1 RES1    0.0000
      4 C3         6.5578    8.0421    7.7019 C.ar      1 RES1    0.0000
      5 C4         6.4433    6.6805    7.5213 C.ar      1 RES1    0.0000
      6 C5         6.0701    6.2175    6.2930 C.ar      1 RES1    0.0000
      7 C6         5.8031    7.0316    5.2400 C.ar      1 RES1    0.0000
      8 C7         5.9457    8.3932    5.4113 C.ar      1 RES1    0.0000
      9 N1         5.9037    4.7448    6.1124 N.pl3     1 RES1    0.0000
     10 O2         6.1725    4.0230    7.0366 O.2       1 RES1    0.0000
     11 O3         5.4910    4.3625    5.0341 O.2       1 RES1    0.0000
     12 C8         6.9096   11.3244    5.8906 C.ar      1 RES1    0.0000
     13 C9         6.5858   12.6756    6.0208 C.ar      1 RES1    0.0000
     14 C10        7.0933   13.6046    5.1430 C.ar      1 RES1    0.0000
     15 C11        7.9188   13.1573    4.1351 C.ar      1 RES1    0.0000
     16 C12        8.2606   11.8426    3.9798 C.ar      1 RES1    0.0000
     17 C13        7.7586   10.9262    4.8642 C.ar      1 RES1    0.0000
     18 N2         8.4527   14.1362    3.1750 N.pl3     1 RES1    0.0000
     19 O4         8.2613   15.3291    3.3928 O.2       1 RES1    0.0000
     20 O5         9.0502   13.7333    2.1871 O.2       1 RES1    0.0000
     21 H1         6.8420    8.4361    8.6713 H         1 RES1    0.0000
     22 H2         6.6407    5.9982    8.3393 H         1 RES1    0.0000
     23 H3         5.5113    6.9999    4.2892 H         1 RES1    0.0000
     24 H4         5.7716    9.0590    4.5813 H         1 RES1    0.0000
     25 H5         5.9287   12.9886    6.8122 H         1 RES1    0.0000
     26 H6         6.8477   14.6540    5.2453 H         1 RES1    0.0000
     27 H7         8.9157   11.5332    3.1737 H         1 RES1    0.0000
     28 H8         8.0208    9.8806    4.7672 H         1 RES1    0.0000
     29 C14        5.1933    3.7738    1.0623 C.2       2 RES2    0.0000
     30 O6         6.2382    4.1254    0.5498 O.2       2 RES2    0.0000
     31 C15        4.9437    2.3123    1.3306 C.ar      2 RES2    0.0000
     32 C16        5.4926    1.3752    0.4541 C.ar      2 RES2    0.0000
     33 C17        5.3254    0.0322    0.6998 C.ar      2 RES2    0.0000
     34 C18        4.6499   -0.3397    1.8219 C.ar      2 RES2    0.0000
     35 C19        4.1074    0.5496    2.7249 C.ar      2 RES2    0.0000
     36 C20        4.2596    1.9038    2.4500 C.ar      2 RES2    0.0000
     37 N3         4.4481   -1.7972    2.1154 N.pl3     2 RES2    0.0000
     38 O7         4.8799   -2.5660    1.2974 O.2       2 RES2    0.0000
     39 O8         3.8856   -2.1106    3.1379 O.2       2 RES2    0.0000
     40 C21        4.1511    4.7875    1.4328 C.ar      2 RES2    0.0000
     41 C22        4.5919    6.0791    1.6957 C.ar      2 RES2    0.0000
     42 C23        3.6804    7.0683    2.0025 C.ar      2 RES2    0.0000
     43 C24        2.3428    6.7417    2.0171 C.ar      2 RES2    0.0000
     44 C25        1.8632    5.4763    1.7303 C.ar      2 RES2    0.0000
     45 C26        2.7932    4.4936    1.4474 C.ar      2 RES2    0.0000
     46 N4         1.3478    7.8007    2.3770 N.pl3     2 RES2    0.0000
     47 O9         1.7866    8.9186    2.5284 O.2       2 RES2    0.0000
     48 O10        0.2023    7.5037    2.4726 O.2       2 RES2    0.0000
     49 H9         6.0461    1.7000   -0.4117 H         2 RES2    0.0000
     50 H10        5.7134   -0.7065    0.0133 H         2 RES2    0.0000
     51 H11        3.5819    0.2059    3.5987 H         2 RES2    0.0000
     52 H12        3.8397    2.6373    3.1206 H         2 RES2    0.0000
     53 H13        5.6429    6.3097    1.6599 H         2 RES2    0.0000
     54 H14        4.0070    8.0683    2.2309 H         2 RES2    0.0000
     55 H15        0.8042    5.2630    1.7263 H         2 RES2    0.0000
     56 H16        2.4581    3.4799    1.2350 H         2 RES2    0.0000
@<TRIPOS>BOND
     1    1    2 2
     2    3    1 1
     3    4    3 ar
     4    5    4 ar
     5    6    5 ar
     6    7    6 ar
     7    8    3 ar
     8    9    6 1
     9   10    9 2
    10   11    9 2
    11   12    1 1
    12   13   12 ar
    13   14   13 ar
    14   15   14 ar
    15   16   15 ar
    16   17   12 ar
    17   18   15 1
    18   19   18 2
    19   20   18 2
    20   21    4 1
    21   22    5 1
    22   23    7 1
    23   24    8 1
    24   25   13 1
    25   26   14 1
    26   27   16 1
    27   28   17 1
    28   29   30 2
    29   31   29 1
    30   32   31 ar
    31   33   32 ar
    32   34   33 ar
    33   35   34 ar
    34   36   31 ar
    35   37   34 1
    36   38   37 2
    37   39   37 2
    38   40   29 1
    39   41   40 ar
    40   42   41 ar
    41   43   42 ar
    42   44   43 ar
    43   45   40 ar
    44   46   43 1
    45   47   46 2
    46   48   46 2
    47   49   32 1
    48   50   33 1
    49   51   35 1
    50   52   36 1
    51   53   41 1
    52   54   42 1
    53   55   44 1
    54   56   45 1
    55    7    8 ar
    56   16   17 ar
    57   35   36 ar
    58   44   45 ar
@<TRIPOS>SUBSTRUCTURE
     1 RES1 1
     2 RES2 29

@<TRIPOS>CRYSIN
   7.3230   12.6340   13.3010  89.3700  86.7500  87.0900   2 1

