# MOL2 file generated by ConQuest
# Please check atom types

@<TRIPOS>MOLECULE
NOPHKN01
    28    29     1
SMALL
NO_CHARGES
****
Generated from CSD

@<TRIPOS>ATOM
      1 O1         3.2055    7.7686    6.0332 O.2       1 RES1    0.0000
      2 O2        -1.6343   11.4369    2.8875 O.2       1 RES1    0.0000
      3 O3        -1.3775   10.2620    1.1294 O.2       1 RES1    0.0000
      4 N1        -1.0678   10.5659    2.2599 N.pl3     1 RES1    0.0000
      5 C1         3.2055    7.7686    4.8157 C.2       1 RES1    0.0000
      6 C2         2.1458    8.5243    4.0825 C.ar      1 RES1    0.0000
      7 C3         1.5395    9.5992    4.7374 C.ar      1 RES1    0.0000
      8 H1         1.8566    9.8692    5.5921 H         1 RES1    0.0000
      9 C4         0.4835   10.2748    4.1548 C.ar      1 RES1    0.0000
     10 H2         0.0654   11.0034    4.5970 H         1 RES1    0.0000
     11 C5         0.0546    9.8565    2.9069 C.ar      1 RES1    0.0000
     12 C6         0.6391    8.8065    2.2186 C.ar      1 RES1    0.0000
     13 H3         0.3244    8.5517    1.3590 H         1 RES1    0.0000
     14 C7         1.6948    8.1371    2.8170 C.ar      1 RES1    0.0000
     15 H4         2.1131    7.4144    2.3663 H         1 RES1    0.0000
     16 O2M        8.0454    4.1003    2.8875 O.2       1 RES1    0.0000
     17 O3M        7.7885    5.2752    1.1294 O.2       1 RES1    0.0000
     18 N1M        7.4789    4.9713    2.2599 N.pl3     1 RES1    0.0000
     19 C2M        4.2653    7.0129    4.0825 C.ar      1 RES1    0.0000
     20 C3M        4.8715    5.9380    4.7374 C.ar      1 RES1    0.0000
     21 H1M        4.5544    5.6680    5.5921 H         1 RES1    0.0000
     22 C4M        5.9275    5.2624    4.1548 C.ar      1 RES1    0.0000
     23 H2M        6.3457    4.5338    4.5970 H         1 RES1    0.0000
     24 C5M        6.3564    5.6807    2.9069 C.ar      1 RES1    0.0000
     25 C6M        5.7720    6.7307    2.2186 C.ar      1 RES1    0.0000
     26 H3M        6.0867    6.9855    1.3590 H         1 RES1    0.0000
     27 C7M        4.7162    7.4001    2.8170 C.ar      1 RES1    0.0000
     28 H4M        4.2980    8.1228    2.3663 H         1 RES1    0.0000
@<TRIPOS>BOND
     1    1    5 2
     2    2    4 2
     3    3    4 2
     4    4   11 1
     5    5    6 1
     6    6    7 ar
     7    7    8 1
     8    9    7 ar
     9   10    9 1
    10   11    9 ar
    11   12   11 ar
    12   13   12 1
    13   14    6 ar
    14   15   14 1
    15   16   18 2
    16   17   18 2
    17   18   24 1
    18   19    5 1
    19   20   19 ar
    20   21   20 1
    21   22   20 ar
    22   23   22 1
    23   24   22 ar
    24   25   24 ar
    25   26   25 1
    26   27   19 ar
    27   28   27 1
    28   12   14 ar
    29   25   27 ar
@<TRIPOS>SUBSTRUCTURE
     1 RES1 1

@<TRIPOS>CRYSIN
  12.8221   31.0744    6.0751  90.0000  90.0000  90.0000  43 1

