# MOL2 file generated by ConQuest
# Please check atom types

@<TRIPOS>MOLECULE
NOPMAH
    69    74     3
SMALL
NO_CHARGES
****
Generated from CSD

@<TRIPOS>ATOM
      1 C1         3.8393    0.1955    0.5769 C.ar      1 RES1    0.0000
      2 C2         3.8270    0.8041    1.8395 C.ar      1 RES1    0.0000
      3 C3         2.6794    0.7989    2.6736 C.ar      1 RES1    0.0000
      4 C4         1.5136    0.1330    2.2066 C.ar      1 RES1    0.0000
      5 C5         1.5404   -0.4962    0.9298 C.ar      1 RES1    0.0000
      6 H1         0.7700   -0.9444    0.5991 H         1 RES1    0.0000
      7 C6         2.6935   -0.4500    0.1775 C.ar      1 RES1    0.0000
      8 H2         2.6975   -0.8889   -0.6656 H         1 RES1    0.0000
      9 C7         1.5460    2.0617    5.9643 C.ar      1 RES1    0.0000
     10 C8         2.7112    2.6729    6.4141 C.ar      1 RES1    0.0000
     11 H3         2.7252    3.1016    7.2613 H         1 RES1    0.0000
     12 C9         3.8540    2.6565    5.6245 C.ar      1 RES1    0.0000
     13 H4         4.6505    3.0742    5.9320 H         1 RES1    0.0000
     14 C10        3.8332    2.0287    4.3840 C.ar      1 RES1    0.0000
     15 C11        2.6688    1.4175    3.9342 C.ar      1 RES1    0.0000
     16 C12        1.5252    1.4338    4.7239 C.ar      1 RES1    0.0000
     17 O1         0.7045    8.1249    9.6968 O.3       2 RES2    0.0000
     18 H5         0.0220    8.1402   10.1859 H         2 RES2    0.0000
     19 O2         5.1417    4.6041    0.5547 O.2       2 RES2    0.0000
     20 O3         6.4342    5.2518    2.0856 O.2       2 RES2    0.0000
     21 O4         5.0037   -0.9319   -1.1578 O.3       1 RES1    0.0000
     22 O5         0.5706    2.6246    7.9733 O.2       1 RES1    0.0000
     23 O6        -0.7280    2.1102    6.3919 O.2       1 RES1    0.0000
     24 O7         6.0286   -0.2997    0.1452 Du        3 SUP3    0.0000
     25 C13        4.1655    5.0983    2.5888 C.ar      2 RES2    0.0000
     26 C14        4.2799    5.8084    3.8192 C.ar      2 RES2    0.0000
     27 C15        3.0658    5.7784    4.6170 C.ar      2 RES2    0.0000
     28 C16        1.8736    5.1088    4.1460 C.ar      2 RES2    0.0000
     29 C17        1.8899    4.5078    2.8924 C.ar      2 RES2    0.0000
     30 H6         1.0966    4.1008    2.5636 H         2 RES2    0.0000
     31 C18        3.0033    4.4860    2.1300 C.ar      2 RES2    0.0000
     32 H7         2.9938    4.0551    1.2838 H         2 RES2    0.0000
     33 C19        5.4007    6.5023    4.3326 C.ar      2 RES2    0.0000
     34 H8         6.1989    6.5301    3.8192 H         2 RES2    0.0000
     35 C20        5.3729    7.1220    5.5196 C.ar      2 RES2    0.0000
     36 H9         6.1434    7.6011    5.8020 H         2 RES2    0.0000
     37 C21        4.2146    7.0914    6.3899 C.ar      2 RES2    0.0000
     38 C22        4.2011    7.7179    7.5941 C.ar      2 RES2    0.0000
     39 H10        4.9729    8.1842    7.8906 H         2 RES2    0.0000
     40 C23        3.0566    7.6816    8.4029 C.ar      2 RES2    0.0000
     41 H11        3.0744    8.1000    9.2561 H         2 RES2    0.0000
     42 C24        1.9005    7.0471    7.9783 C.ar      2 RES2    0.0000
     43 C25        1.8500    6.3721    6.7298 C.ar      2 RES2    0.0000
     44 C26        0.7326    5.7297    6.2306 C.ar      2 RES2    0.0000
     45 H12       -0.0596    5.7069    6.7550 H         2 RES2    0.0000
     46 C27        0.7336    5.1171    4.9841 C.ar      2 RES2    0.0000
     47 H13       -0.0584    4.6877    4.6835 H         2 RES2    0.0000
     48 C28        3.0574    6.4317    5.9331 C.ar      2 RES2    0.0000
     49 C29        0.6773    6.9910    8.9041 C.3       2 RES2    0.0000
     50 H14       -0.1580    6.9883    8.3545 H         2 RES2    0.0000
     51 C30        0.7241    5.7106    9.7856 C.3       2 RES2    0.0000
     52 H15        1.5337    5.7240   10.3382 H         2 RES2    0.0000
     53 H16        0.7352    4.9181    9.2097 H         2 RES2    0.0000
     54 H17       -0.0656    5.6832   10.3644 H         2 RES2    0.0000
     55 C31        4.9438    1.4533   -1.2142 C.3       1 RES1    0.0000
     56 H18        5.6164    1.4056   -1.9252 H         1 RES1    0.0000
     57 H19        5.1264    2.2275   -0.6424 H         1 RES1    0.0000
     58 H20        4.0527    1.5444   -1.6126 H         1 RES1    0.0000
     59 C32        4.9961    0.2032   -0.3933 C.3       1 RES1    0.0000
     60 C33        5.0054    2.0605    3.5550 C.ar      1 RES1    0.0000
     61 H21        5.7904    2.4887    3.8757 H         1 RES1    0.0000
     62 C34        5.0155    1.5124    2.3710 C.ar      1 RES1    0.0000
     63 H22        5.7997    1.5685    1.8385 H         1 RES1    0.0000
     64 C35        0.3406    0.7051    4.2297 C.ar      1 RES1    0.0000
     65 H23       -0.4429    0.6553    4.7642 H         1 RES1    0.0000
     66 C36        0.3720    0.1022    3.0043 C.ar      1 RES1    0.0000
     67 H24       -0.4024   -0.3480    2.6887 H         1 RES1    0.0000
     68 N1         5.3243    4.9686    1.7094 N.pl3     2 RES2    0.0000
     69 N2         0.3916    2.2291    6.8528 N.pl3     1 RES1    0.0000
@<TRIPOS>BOND
     1    1    2 ar
     2    2    3 ar
     3    3    4 ar
     4    4    5 ar
     5    5    6 1
     6    7    1 ar
     7    8    7 1
     8    9   10 ar
     9   10   11 1
    10   12   10 ar
    11   13   12 1
    12   14   12 ar
    13   15    3 ar
    14   16    9 ar
    15   17   18 1
    16   19   68 2
    17   20   68 2
    18   21   59 1
    19   22   69 2
    20   23   69 2
    21   25   26 ar
    22   26   27 ar
    23   27   28 ar
    24   28   29 ar
    25   29   30 1
    26   31   25 ar
    27   32   31 1
    28   33   26 ar
    29   34   33 1
    30   35   33 ar
    31   36   35 1
    32   37   35 ar
    33   38   37 ar
    34   39   38 1
    35   40   38 ar
    36   41   40 1
    37   42   40 ar
    38   43   42 ar
    39   44   43 ar
    40   45   44 1
    41   46   28 ar
    42   47   46 1
    43   48   27 ar
    44   49   17 1
    45   50   49 1
    46   51   49 1
    47   52   51 1
    48   53   51 1
    49   54   51 1
    50   55   56 1
    51   57   55 1
    52   58   55 1
    53   59    1 1
    54   60   14 ar
    55   61   60 1
    56   62    2 ar
    57   63   62 1
    58   64   16 ar
    59   65   64 1
    60   66    4 ar
    61   67   66 1
    62   68   25 1
    63   69    9 1
    64    5    7 ar
    65   14   15 ar
    66   15   16 ar
    67   29   31 ar
    68   37   48 ar
    69   42   49 1
    70   43   48 ar
    71   44   46 ar
    72   55   59 1
    73   60   62 ar
    74   64   66 ar
@<TRIPOS>SUBSTRUCTURE
     1 RES1 1
     2 RES2 17
     3 SUP3 24

@<TRIPOS>CRYSIN
   7.8796    8.1629   10.5470  72.9890  87.9000  84.6080   1 1

