# MOL2 file generated by ConQuest
# Please check atom types

@<TRIPOS>MOLECULE
NOPROA
     8     7     1
SMALL
NO_CHARGES
****
Generated from CSD

@<TRIPOS>ATOM
      1 O1         1.1913    1.1284   -4.4843 O.co2     1 RES1    0.0000
      2 O2         1.0637    2.5220   -6.1958 O.co2     1 RES1    0.0000
      3 O3         4.0991    2.9016   -6.0141 O.2       1 RES1    0.0000
      4 O4         4.4498    3.1824   -8.1463 O.2       1 RES1    0.0000
      5 C1         1.5636    1.5184   -5.7082 C.2       1 RES1    0.0000
      6 C2         2.5942    0.5668   -6.4061 C.3       1 RES1    0.0000
      7 C3         3.2439    1.3260   -7.5631 C.3       1 RES1    0.0000
      8 N1         3.9296    2.5688   -7.2093 N.pl3     1 RES1    0.0000
@<TRIPOS>BOND
     1    1    5 1
     2    2    5 2
     3    3    8 2
     4    4    8 2
     5    5    6 1
     6    6    7 1
     7    7    8 1
@<TRIPOS>SUBSTRUCTURE
     1 RES1 1

@<TRIPOS>CRYSIN
  20.0200    5.2000    9.5700  90.0000  92.4300  90.0000  15 2

