# MOL2 file generated by ConQuest
# Please check atom types

@<TRIPOS>MOLECULE
NOQBOM
   102   106     2
SMALL
NO_CHARGES
****
Generated from CSD

@<TRIPOS>ATOM
      1 C1         5.2295   17.1558    4.6820 C.3       1 RES1    0.0000
      2 H1         6.0107   17.4416    4.1829 H         1 RES1    0.0000
      3 H2         4.4776   17.1235    4.0694 H         1 RES1    0.0000
      4 C2         5.4755   15.7709    5.2496 C.3       1 RES1    0.0000
      5 H3         6.2464   15.8235    5.8523 H         1 RES1    0.0000
      6 C3         4.2814   15.2716    6.0568 C.ar      1 RES1    0.0000
      7 C4         3.0522   15.1221    5.4424 C.ar      1 RES1    0.0000
      8 H4         2.9803   15.3450    4.5415 H         1 RES1    0.0000
      9 C5         1.9347   14.6662    6.0865 C.ar      1 RES1    0.0000
     10 H5         1.1016   14.6086    5.6775 H         1 RES1    0.0000
     11 C6         2.1458   14.3155    7.3514 C.ar      1 RES1    0.0000
     12 H6         1.4070   13.9448    7.7748 H         1 RES1    0.0000
     13 C7         3.2001   14.3957    8.0973 C.ar      1 RES1    0.0000
     14 H7         3.2241   14.1477    8.9937 H         1 RES1    0.0000
     15 C8         4.3628   14.9317    7.3523 C.ar      1 RES1    0.0000
     16 H8         5.1744   15.0344    7.7955 H         1 RES1    0.0000
     17 C9         5.8324   14.7944    4.1000 C.3       1 RES1    0.0000
     18 H9         5.0969   14.8090    3.4523 H         1 RES1    0.0000
     19 C10        7.1173   15.1947    3.3658 C.3       1 RES1    0.0000
     20 H10        7.0336   16.0915    3.0388 H         1 RES1    0.0000
     21 H11        7.2632   14.5961    2.6279 H         1 RES1    0.0000
     22 H12        7.8605   15.1421    3.9712 H         1 RES1    0.0000
     23 C11        5.9844   13.3774    4.5964 C.2       1 RES1    0.0000
     24 C12        6.9299   13.1808    5.7505 C.3       1 RES1    0.0000
     25 H13        7.2740   14.0324    6.0307 H         1 RES1    0.0000
     26 H14        7.6568   12.6172    5.4766 H         1 RES1    0.0000
     27 H15        6.4621   12.7675    6.4811 H         1 RES1    0.0000
     28 C13        5.3597   12.3379    3.9955 C.2       1 RES1    0.0000
     29 C14        4.5189   12.4053    2.7703 C.2       1 RES1    0.0000
     30 C15        5.3834   10.9156    4.3162 C.2       1 RES1    0.0000
     31 C16        6.0198   10.2025    5.4685 C.3       1 RES1    0.0000
     32 H16        5.8497    9.2606    5.3946 H         1 RES1    0.0000
     33 H17        5.6497   10.5306    6.2919 H         1 RES1    0.0000
     34 H18        6.9670   10.3578    5.4577 H         1 RES1    0.0000
     35 C17        3.3736   10.5614    1.4964 C.ar      1 RES1    0.0000
     36 C18        2.9775   11.3146    0.4072 C.ar      1 RES1    0.0000
     37 H19        3.2485   12.2014    0.3333 H         1 RES1    0.0000
     38 C19        2.1898   10.7611   -0.5586 C.ar      1 RES1    0.0000
     39 H20        1.9226   11.2796   -1.2820 H         1 RES1    0.0000
     40 C20        1.7869    9.4585   -0.4865 C.ar      1 RES1    0.0000
     41 H21        1.2592    9.0878   -1.1568 H         1 RES1    0.0000
     42 C21        2.1718    8.7123    0.5883 C.ar      1 RES1    0.0000
     43 H22        1.8958    7.8278    0.6550 H         1 RES1    0.0000
     44 C22        2.9646    9.2526    1.5739 C.ar      1 RES1    0.0000
     45 H23        3.2249    8.7296    2.2964 H         1 RES1    0.0000
     46 N1         4.9476   18.1307    5.7451 N.pl3     1 RES1    0.0000
     47 N2         4.1904   11.1002    2.5072 N.am      1 RES1    0.0000
     48 N3         4.7216   10.2210    3.4658 N.2       1 RES1    0.0000
     49 O1         5.8280   18.3709    6.5171 O.2       1 RES1    0.0000
     50 O2         3.8561   18.6382    5.7910 O.2       1 RES1    0.0000
     51 O3         4.1752   13.3734    2.0919 O.2       1 RES1    0.0000
     52 C23        3.6071    3.5903    8.0018 C.3       2 RES2    0.0000
     53 H24        2.9167    3.2964    8.6172 H         2 RES2    0.0000
     54 H25        3.2211    3.6321    7.1135 H         2 RES2    0.0000
     55 C24        4.1030    4.9792    8.4135 C.3       2 RES2    0.0000
     56 H26        4.5449    4.8971    9.2847 H         2 RES2    0.0000
     57 C25        5.1145    5.5123    7.4235 C.ar      2 RES2    0.0000
     58 C26        6.4386    5.7142    7.7775 C.ar      2 RES2    0.0000
     59 H27        6.7239    5.5108    8.6397 H         2 RES2    0.0000
     60 C27        7.3460    6.2222    6.8442 C.ar      2 RES2    0.0000
     61 H28        8.2289    6.3650    7.0964 H         2 RES2    0.0000
     62 C28        6.9630    6.5052    5.5892 C.ar      2 RES2    0.0000
     63 H29        7.5816    6.8334    4.9775 H         2 RES2    0.0000
     64 C29        5.6599    6.3098    5.2090 C.ar      2 RES2    0.0000
     65 H30        5.3931    6.5102    4.3415 H         2 RES2    0.0000
     66 C30        2.8797    5.9228    8.5811 C.3       2 RES2    0.0000
     67 H31        2.3694    5.9091    7.7451 H         2 RES2    0.0000
     68 C31        1.9533    5.4632    9.7072 C.3       2 RES2    0.0000
     69 H32        1.6783    4.5589    9.5469 H         2 RES2    0.0000
     70 H33        1.1803    6.0318    9.7379 H         2 RES2    0.0000
     71 H34        2.4201    5.5133   10.5451 H         2 RES2    0.0000
     72 C32        3.3361    7.3364    8.8226 C.2       2 RES2    0.0000
     73 C33        4.1464    7.5523   10.0730 C.3       2 RES2    0.0000
     74 H35        4.2673    6.7131   10.5253 H         2 RES2    0.0000
     75 H36        3.6859    8.1635   10.6514 H         2 RES2    0.0000
     76 H37        5.0045    7.9155    9.8406 H         2 RES2    0.0000
     77 C34        3.0208    8.3536    7.9964 C.2       2 RES2    0.0000
     78 C35        2.1766    8.2674    6.7703 C.2       2 RES2    0.0000
     79 C36        3.3975    9.7611    8.0613 C.2       2 RES2    0.0000
     80 C37        4.2302   10.5005    9.0451 C.3       2 RES2    0.0000
     81 H38        4.2745   11.4248    8.7955 H         2 RES2    0.0000
     82 H39        5.1151   10.1298    9.0577 H         2 RES2    0.0000
     83 H40        3.8377   10.4229    9.9181 H         2 RES2    0.0000
     84 C38        4.7486    5.8199    6.1153 C.ar      2 RES2    0.0000
     85 H41        3.8672    5.6911    5.8487 H         2 RES2    0.0000
     86 C39        1.4931   10.0787    5.1523 C.ar      2 RES2    0.0000
     87 C40        0.6396    9.3107    4.3892 C.ar      2 RES2    0.0000
     88 H42        0.5000    8.4140    4.5937 H         2 RES2    0.0000
     89 C41       -0.0037    9.8944    3.3135 C.ar      2 RES2    0.0000
     90 H43       -0.5734    9.3758    2.7919 H         2 RES2    0.0000
     91 C42        0.1712   11.1994    2.9991 C.ar      2 RES2    0.0000
     92 H44       -0.2828   11.5802    2.2811 H         2 RES2    0.0000
     93 C43        1.0172   11.9459    3.7478 C.ar      2 RES2    0.0000
     94 H45        1.1548   12.8401    3.5315 H         2 RES2    0.0000
     95 C44        1.6759   11.3970    4.8225 C.ar      2 RES2    0.0000
     96 H46        2.2510   11.9233    5.3288 H         2 RES2    0.0000
     97 N4         4.7245    2.6211    8.0117 N.pl3     2 RES2    0.0000
     98 N5         2.1760    9.5379    6.2703 N.am      2 RES2    0.0000
     99 N6         2.9164   10.4246    7.0595 N.2       2 RES2    0.0000
    100 O4         5.2099    2.3276    6.9658 O.2       2 RES2    0.0000
    101 O5         5.0768    2.2068    9.0883 O.2       2 RES2    0.0000
    102 O6         1.5903    7.3098    6.2721 O.2       2 RES2    0.0000
@<TRIPOS>BOND
     1    1    2 1
     2    3    1 1
     3    4    1 1
     4    5    4 1
     5    6    4 1
     6    7    6 ar
     7    8    7 1
     8    9    7 ar
     9   10    9 1
    10   11    9 ar
    11   12   11 1
    12   13   11 ar
    13   14   13 1
    14   15    6 ar
    15   16   15 1
    16   17    4 1
    17   18   17 1
    18   19   17 1
    19   20   19 1
    20   21   19 1
    21   22   19 1
    22   23   17 1
    23   24   23 1
    24   25   24 1
    25   26   24 1
    26   27   24 1
    27   28   23 2
    28   29   28 1
    29   30   28 1
    30   31   30 1
    31   32   31 1
    32   33   31 1
    33   34   31 1
    34   35   36 ar
    35   36   37 1
    36   38   36 ar
    37   39   38 1
    38   40   38 ar
    39   41   40 1
    40   42   40 ar
    41   43   42 1
    42   44   35 ar
    43   45   44 1
    44   46    1 1
    45   47   29 1
    46   48   30 2
    47   49   46 2
    48   50   46 2
    49   51   29 2
    50   52   53 1
    51   54   52 1
    52   55   52 1
    53   56   55 1
    54   57   55 1
    55   58   57 ar
    56   59   58 1
    57   60   58 ar
    58   61   60 1
    59   62   60 ar
    60   63   62 1
    61   64   62 ar
    62   65   64 1
    63   66   55 1
    64   67   66 1
    65   68   66 1
    66   69   68 1
    67   70   68 1
    68   71   68 1
    69   72   66 1
    70   73   72 1
    71   74   73 1
    72   75   73 1
    73   76   73 1
    74   77   72 2
    75   78   77 1
    76   79   77 1
    77   80   79 1
    78   81   80 1
    79   82   80 1
    80   83   80 1
    81   84   57 ar
    82   85   84 1
    83   86   87 ar
    84   87   88 1
    85   89   87 ar
    86   90   89 1
    87   91   89 ar
    88   92   91 1
    89   93   91 ar
    90   94   93 1
    91   95   86 ar
    92   96   95 1
    93   97   52 1
    94   98   78 1
    95   99   79 2
    96  100   97 2
    97  101   97 2
    98  102   78 2
    99   13   15 ar
   100   35   47 1
   101   42   44 ar
   102   47   48 1
   103   64   84 ar
   104   86   98 1
   105   93   95 ar
   106   98   99 1
@<TRIPOS>SUBSTRUCTURE
     1 RES1 1
     2 RES2 52

@<TRIPOS>CRYSIN
   8.9480   25.0490    9.3770  90.0000 106.1040  90.0000   4 1

