# MOL2 file generated by ConQuest
# Please check atom types

@<TRIPOS>MOLECULE
NOQVUL
    54    56     2
SMALL
NO_CHARGES
****
Generated from CSD

@<TRIPOS>ATOM
      1 N1         1.3411    1.1501    6.9593 N.2       1 RES1    0.0000
      2 N2         1.1444    0.4108   11.7091 N.pl3     1 RES1    0.0000
      3 N3         6.8811    3.6820    9.8266 N.2       2 RES2    0.0000
      4 N4         6.1873    3.9657    5.0779 N.pl3     2 RES2    0.0000
      5 O1         0.2001    1.0506    4.3725 O.3       1 RES1    0.0000
      6 O2         0.0736   -0.1340   11.5323 O.2       1 RES1    0.0000
      7 O3         1.6290    0.5800   12.8107 O.2       1 RES1    0.0000
      8 O4         5.9455    3.0280   12.3916 O.3       2 RES2    0.0000
      9 O5         5.1489    3.3313    5.2416 O.2       2 RES2    0.0000
     10 O6         6.5464    4.3899    3.9947 O.2       2 RES2    0.0000
     11 C1         1.9795    0.6995    5.9558 C.2       1 RES1    0.0000
     12 H1         2.8557    0.4196    6.0971 H         1 RES1    0.0000
     13 C2         1.4646    0.5896    4.6362 C.2       1 RES1    0.0000
     14 C3         2.0098    0.1022    3.5005 C.2       1 RES1    0.0000
     15 H2         2.8579   -0.2676    3.4045 H         1 RES1    0.0000
     16 C4         1.0557    0.2615    2.4980 C.2       1 RES1    0.0000
     17 H3         1.1531    0.0199    1.6049 H         1 RES1    0.0000
     18 C5        -0.0260    0.8243    3.0499 C.2       1 RES1    0.0000
     19 C6        -1.3370    1.2393    2.5140 C.3       1 RES1    0.0000
     20 H4        -1.3651    1.0655    1.5703 H         1 RES1    0.0000
     21 H5        -1.4646    2.1777    2.6687 H         1 RES1    0.0000
     22 H6        -2.0336    0.7443    2.9513 H         1 RES1    0.0000
     23 C7         2.0098    1.2014    8.2059 C.ar      1 RES1    0.0000
     24 C8         1.2894    0.8132    9.3043 C.ar      1 RES1    0.0000
     25 H7         0.4089    0.5303    9.2217 H         1 RES1    0.0000
     26 C9         1.9016    0.8511   10.5334 C.ar      1 RES1    0.0000
     27 C10        3.1845    1.2853   10.7093 C.ar      1 RES1    0.0000
     28 H8         3.5761    1.2983   11.5544 H         1 RES1    0.0000
     29 C11        3.8811    1.7030    9.5976 C.ar      1 RES1    0.0000
     30 H9         4.7508    2.0215    9.6909 H         1 RES1    0.0000
     31 C12        3.2992    1.6517    8.3606 C.ar      1 RES1    0.0000
     32 H10        3.7838    1.9243    7.6141 H         1 RES1    0.0000
     33 C13        7.6519    3.1923   10.6960 C.2       2 RES2    0.0000
     34 H11        8.5476    3.0851   10.4747 H         2 RES2    0.0000
     35 C14        7.2322    2.7918   12.0023 C.2       2 RES2    0.0000
     36 C15        7.9116    2.2072   13.0047 C.2       2 RES2    0.0000
     37 H12        8.8050    1.9530   12.9914 H         2 RES2    0.0000
     38 C16        7.0159    2.0544   14.0685 C.2       2 RES2    0.0000
     39 H13        7.2020    1.6708   14.8949 H         2 RES2    0.0000
     40 C17        5.8433    2.5621   13.6766 C.2       2 RES2    0.0000
     41 C18        4.5237    2.7233   14.3138 C.3       2 RES2    0.0000
     42 H14        4.3636    3.6536   14.4870 H         2 RES2    0.0000
     43 H15        4.5042    2.2363   15.1402 H         2 RES2    0.0000
     44 H16        3.8422    2.3848   13.7272 H         2 RES2    0.0000
     45 C19        7.4096    4.0281    8.5637 C.ar      2 RES2    0.0000
     46 C20        6.5940    3.8543    7.4581 C.ar      2 RES2    0.0000
     47 H17        5.7352    3.5116    7.5608 H         2 RES2    0.0000
     48 C21        7.0505    4.1858    6.2243 C.ar      2 RES2    0.0000
     49 C22        8.3204    4.7096    6.0225 C.ar      2 RES2    0.0000
     50 H18        8.6190    4.9163    5.1640 H         2 RES2    0.0000
     51 C23        9.1252    4.9152    7.1156 C.ar      2 RES2    0.0000
     52 H19        9.9754    5.2758    7.0089 H         2 RES2    0.0000
     53 C24        8.6687    4.5867    8.3739 C.ar      2 RES2    0.0000
     54 H20        9.2139    4.7410    9.1097 H         2 RES2    0.0000
@<TRIPOS>BOND
     1    1   11 2
     2    2    6 2
     3    3   33 2
     4    4    9 2
     5    5   13 1
     6    7    2 2
     7    8   35 1
     8   10    4 2
     9   11   12 1
    10   13   11 1
    11   14   13 2
    12   15   14 1
    13   16   14 1
    14   17   16 1
    15   18    5 1
    16   19   18 1
    17   20   19 1
    18   21   19 1
    19   22   19 1
    20   23    1 1
    21   24   23 ar
    22   25   24 1
    23   26    2 1
    24   27   26 ar
    25   28   27 1
    26   29   27 ar
    27   30   29 1
    28   31   23 ar
    29   32   31 1
    30   33   34 1
    31   35   33 1
    32   36   35 2
    33   37   36 1
    34   38   36 1
    35   39   38 1
    36   40    8 1
    37   41   40 1
    38   42   41 1
    39   43   41 1
    40   44   41 1
    41   45    3 1
    42   46   45 ar
    43   47   46 1
    44   48    4 1
    45   49   48 ar
    46   50   49 1
    47   51   49 ar
    48   52   51 1
    49   53   45 ar
    50   54   53 1
    51   16   18 2
    52   24   26 ar
    53   29   31 ar
    54   38   40 2
    55   46   48 ar
    56   51   53 ar
@<TRIPOS>SUBSTRUCTURE
     1 RES1 1
     2 RES2 3

@<TRIPOS>CRYSIN
  21.6340    3.8286   26.6600  90.0000  90.0000  90.0000  29 1

