# MOL2 file generated by ConQuest
# Please check atom types

@<TRIPOS>MOLECULE
NORCED
    23    24     1
SMALL
NO_CHARGES
****
Generated from CSD

@<TRIPOS>ATOM
      1 O1         8.4193    3.8335    5.3875 O.3       1 RES1    0.0000
      2 O2         6.2216    5.3709    1.2193 O.2       1 RES1    0.0000
      3 O3         4.1633    5.7422    1.7634 O.2       1 RES1    0.0000
      4 N1         7.6329    1.6782    5.2031 N.ar      1 RES1    0.0000
      5 N2         9.8984    2.1914    5.7666 N.ar      1 RES1    0.0000
      6 N3         5.3099    5.4068    2.0369 N.pl3     1 RES1    0.0000
      7 C1         7.9316    0.3748    5.2762 C.ar      1 RES1    0.0000
      8 H1         7.2435   -0.2604    5.1124 H         1 RES1    0.0000
      9 C2         9.1962   -0.0832    5.5794 C.ar      1 RES1    0.0000
     10 H2         9.3981   -1.0108    5.6205 H         1 RES1    0.0000
     11 C3        10.1565    0.8845    5.8199 C.ar      1 RES1    0.0000
     12 H3        11.0394    0.6044    6.0321 H         1 RES1    0.0000
     13 C4         8.6436    2.4926    5.4565 C.ar      1 RES1    0.0000
     14 C5         7.1253    4.2551    5.0470 C.ar      1 RES1    0.0000
     15 C6         6.1934    4.4661    6.0501 C.ar      1 RES1    0.0000
     16 H4         6.4056    4.2693    6.9548 H         1 RES1    0.0000
     17 C7         4.9455    4.9692    5.7127 C.ar      1 RES1    0.0000
     18 H5         4.2964    5.1092    6.3913 H         1 RES1    0.0000
     19 C8         4.6363    5.2707    4.3910 C.ar      1 RES1    0.0000
     20 H6         3.7832    5.6153    4.1533 H         1 RES1    0.0000
     21 C9         5.6075    5.0539    3.4346 C.ar      1 RES1    0.0000
     22 C10        6.8638    4.5414    3.7207 C.ar      1 RES1    0.0000
     23 H7         7.5101    4.3947    3.0409 H         1 RES1    0.0000
@<TRIPOS>BOND
     1    1   13 1
     2    2    6 2
     3    3    6 2
     4    4    7 ar
     5    5   11 ar
     6    6   21 1
     7    7    8 1
     8    9    7 ar
     9   10    9 1
    10   11    9 ar
    11   12   11 1
    12   13    4 ar
    13   14    1 1
    14   15   14 ar
    15   16   15 1
    16   17   15 ar
    17   18   17 1
    18   19   17 ar
    19   20   19 1
    20   21   19 ar
    21   22   14 ar
    22   23   22 1
    23    5   13 ar
    24   21   22 ar
@<TRIPOS>SUBSTRUCTURE
     1 RES1 1

@<TRIPOS>CRYSIN
  18.1360    7.3355   14.5986  90.0000  90.0000  90.0000  60 1

