# MOL2 file generated by ConQuest
# Please check atom types

@<TRIPOS>MOLECULE
NORDEE
    35    37     1
SMALL
NO_CHARGES
****
Generated from CSD

@<TRIPOS>ATOM
      1 N1         1.1470    7.6835   12.1322 N.pl3     1 RES1    0.0000
      2 O1        -0.0494    7.7515   11.8485 O.2       1 RES1    0.0000
      3 O2         1.9880    8.4465   11.6704 O.2       1 RES1    0.0000
      4 O3         2.6960    3.5713   15.5570 O.3       1 RES1    0.0000
      5 C1         1.5755    6.6307   13.0495 C.ar      1 RES1    0.0000
      6 C2         2.8548    6.6683   13.5730 C.ar      1 RES1    0.0000
      7 H1         3.4505    7.3715   13.3419 H         1 RES1    0.0000
      8 C3         3.2546    5.6648   14.4402 C.ar      1 RES1    0.0000
      9 H2         4.1290    5.6742   14.8134 H         1 RES1    0.0000
     10 C4         2.3681    4.6443   14.7621 C.ar      1 RES1    0.0000
     11 C5         1.0887    4.6156   14.2177 C.ar      1 RES1    0.0000
     12 H3         0.4946    3.9065   14.4351 H         1 RES1    0.0000
     13 C6         0.6844    5.6167   13.3640 C.ar      1 RES1    0.0000
     14 H4        -0.1910    5.6126   12.9955 H         1 RES1    0.0000
     15 C7         3.6943    3.6925   16.5288 C.ar      1 RES1    0.0000
     16 C8         4.6290    2.6837   16.6013 C.ar      1 RES1    0.0000
     17 H5         4.6430    1.9987   15.9434 H         1 RES1    0.0000
     18 C9         5.5514    2.6726   17.6402 C.ar      1 RES1    0.0000
     19 H6         6.1882    1.9694   17.6876 H         1 RES1    0.0000
     20 C10        5.5651    3.6690   18.6180 C.ar      1 RES1    0.0000
     21 C11        4.6120    4.6842   18.4949 C.ar      1 RES1    0.0000
     22 H7         4.6027    5.3851   19.1370 H         1 RES1    0.0000
     23 C12        3.6799    4.7024   17.4687 C.ar      1 RES1    0.0000
     24 H8         3.0391    5.4021   17.4125 H         1 RES1    0.0000
     25 C13        6.5491    3.6549   19.7431 C.ar      1 RES1    0.0000
     26 C14        7.4164    2.5887   19.9480 C.ar      1 RES1    0.0000
     27 H9         7.3837    1.8433   19.3606 H         1 RES1    0.0000
     28 C15        8.3325    2.5899   20.9967 C.ar      1 RES1    0.0000
     29 H10        8.9157    1.8492   21.1122 H         1 RES1    0.0000
     30 C16        8.4006    3.6508   21.8649 C.ar      1 RES1    0.0000
     31 H11        9.0202    3.6467   22.5861 H         1 RES1    0.0000
     32 C17        7.5569    4.7218   21.6740 C.ar      1 RES1    0.0000
     33 H12        7.5961    5.4642   22.2643 H         1 RES1    0.0000
     34 C18        6.6511    4.7235   20.6265 C.ar      1 RES1    0.0000
     35 H13        6.0830    5.4760   20.5078 H         1 RES1    0.0000
@<TRIPOS>BOND
     1    1    2 2
     2    3    1 2
     3    4   10 1
     4    5    1 1
     5    6    5 ar
     6    7    6 1
     7    8    6 ar
     8    9    8 1
     9   10    8 ar
    10   11   10 ar
    11   12   11 1
    12   13    5 ar
    13   14   13 1
    14   15    4 1
    15   16   15 ar
    16   17   16 1
    17   18   16 ar
    18   19   18 1
    19   20   18 ar
    20   21   20 ar
    21   22   21 1
    22   23   15 ar
    23   24   23 1
    24   25   20 1
    25   26   25 ar
    26   27   26 1
    27   28   26 ar
    28   29   28 1
    29   30   28 ar
    30   31   30 1
    31   32   30 ar
    32   33   32 1
    33   34   25 ar
    34   35   34 1
    35   11   13 ar
    36   21   23 ar
    37   32   34 ar
@<TRIPOS>SUBSTRUCTURE
     1 RES1 1

@<TRIPOS>CRYSIN
   9.6435    5.8648   24.6884  90.0000  95.7040  90.0000  14 1

