# MOL2 file generated by ConQuest
# Please check atom types

@<TRIPOS>MOLECULE
NOSBUD
    30    29     1
SMALL
NO_CHARGES
****
Generated from CSD

@<TRIPOS>ATOM
      1 C1         0.8042    0.8242    1.8008 C.3       1 RES1    0.0000
      2 C2         2.1936    0.2284    2.0328 C.3       1 RES1    0.0000
      3 C3         2.2151   -1.1618    1.3430 C.3       1 RES1    0.0000
      4 C4         3.1601    1.1618    1.2697 C.3       1 RES1    0.0000
      5 H1         0.8022    1.8073    2.2281 H         1 RES1    0.0000
      6 H2         0.5118    0.9235    0.7447 H         1 RES1    0.0000
      7 H3         2.5074    0.1192    2.9729 H         1 RES1    0.0000
      8 H4         1.5291   -1.8172    1.8008 H         1 RES1    0.0000
      9 H5         1.9131   -1.0625    0.2930 H         1 RES1    0.0000
     10 H6         3.2205   -1.5888    1.4468 H         1 RES1    0.0000
     11 H7         3.1237    2.1548    2.0145 H         1 RES1    0.0000
     12 H8         2.8676    1.2611    0.2137 H         1 RES1    0.0000
     13 H9         4.1621    0.7448    1.4040 H         1 RES1    0.0000
     14 N1        -0.2620   -0.0298    2.4235 N.pl3     1 RES1    0.0000
     15 O1        -1.0213   -0.7745    1.6787 O.2       1 RES1    0.0000
     16 N1B       -0.3979    0.0298    3.6810 N.pl3     1 RES1    0.0000
     17 C1B       -1.4642   -0.8242    4.3036 C.3       1 RES1    0.0000
     18 O1B        0.3614    0.7745    4.4257 O.2       1 RES1    0.0000
     19 C2B       -2.8535   -0.2284    4.0717 C.3       1 RES1    0.0000
     20 H1B       -1.4622   -1.8073    3.8763 H         1 RES1    0.0000
     21 H2B       -1.1717   -0.9235    5.3597 H         1 RES1    0.0000
     22 C3B       -2.8750    1.1618    4.7615 C.3       1 RES1    0.0000
     23 C4B       -3.8200   -1.1618    4.8347 C.3       1 RES1    0.0000
     24 H3B       -3.1673   -0.1192    3.1316 H         1 RES1    0.0000
     25 H4B       -2.1890    1.8172    4.3036 H         1 RES1    0.0000
     26 H5B       -2.5730    1.0625    5.8114 H         1 RES1    0.0000
     27 H6B       -3.8804    1.5888    4.6577 H         1 RES1    0.0000
     28 H7B       -3.7837   -2.1548    4.0900 H         1 RES1    0.0000
     29 H8B       -3.5275   -1.2611    5.8908 H         1 RES1    0.0000
     30 H9B       -4.8221   -0.7447    4.7004 H         1 RES1    0.0000
@<TRIPOS>BOND
     1    1    2 1
     2    2    3 1
     3    3    8 1
     4    4    2 1
     5    5    1 1
     6    6    1 1
     7    7    2 1
     8    9    3 1
     9   10    3 1
    10   11    4 1
    11   12    4 1
    12   13    4 1
    13   14    1 1
    14   15   14 un
    15   16   14 un
    16   17   16 1
    17   18   16 un
    18   19   17 1
    19   20   17 1
    20   21   17 1
    21   22   19 1
    22   23   19 1
    23   24   19 1
    24   25   22 1
    25   26   22 1
    26   27   22 1
    27   28   23 1
    28   29   23 1
    29   30   23 1
@<TRIPOS>SUBSTRUCTURE
     1 RES1 1

@<TRIPOS>CRYSIN
   8.8400    9.9300    6.1400  90.0000  96.1700  90.0000  14 1

