# MOL2 file generated by ConQuest
# Please check atom types

@<TRIPOS>MOLECULE
NOSHUY
    15    15     1
SMALL
NO_CHARGES
****
Generated from CSD

@<TRIPOS>ATOM
      1 O1        -2.1146   -1.9984   -3.4502 O.3       1 RES1    0.0000
      2 O2        -1.0725    0.4302   -1.1544 O.2       1 RES1    0.0000
      3 O3        -2.3114   -4.3136   -5.7076 O.2       1 RES1    0.0000
      4 O4         0.5192   -2.6834   -7.3035 O.2       1 RES1    0.0000
      5 N1        -0.8244   -1.7655   -4.0796 N.3       1 RES1    0.0000
      6 N2        -0.9613   -1.8036   -0.9761 N.am      1 RES1    0.0000
      7 N3        -2.8370   -2.2766   -6.5296 N.am      1 RES1    0.0000
      8 N4         0.3855   -0.6443   -6.3434 N.am      1 RES1    0.0000
      9 C1        -2.0546   -3.1313   -5.8729 C.2       1 RES1    0.0000
     10 C2         0.0826   -1.9399   -6.4381 C.2       1 RES1    0.0000
     11 C3        -0.1174   -3.0632   -4.1534 C.3       1 RES1    0.0000
     12 C4        -0.7805   -2.4988   -5.3768 C.3       1 RES1    0.0000
     13 C5        -2.3825   -0.8161   -2.6700 C.3       1 RES1    0.0000
     14 C6        -1.4100   -0.6936   -1.5317 C.2       1 RES1    0.0000
     15 C7        -3.8181   -1.0094   -2.1434 C.3       1 RES1    0.0000
@<TRIPOS>BOND
     1    1    5 1
     2    2   14 2
     3    3    9 2
     4    4   10 2
     5    5   11 1
     6    6   14 1
     7    7    9 1
     8    8   10 1
     9    9   12 1
    10   10   12 1
    11   11   12 1
    12   12    5 1
    13   13    1 1
    14   14   13 1
    15   15   13 1
@<TRIPOS>SUBSTRUCTURE
     1 RES1 1

@<TRIPOS>CRYSIN
   6.2500    5.0850   16.2450  90.0000  98.7700  90.0000   4 1

