# MOL2 file generated by ConQuest
# Please check atom types

@<TRIPOS>MOLECULE
NOSLEM
    42    44     1
SMALL
NO_CHARGES
****
Generated from CSD

@<TRIPOS>ATOM
      1 N1         2.5299    5.9999    1.3970 N.pl3     1 RES1    0.0000
      2 O1         3.3227    6.3452    0.5616 O.2       1 RES1    0.0000
      3 C1         2.4627    6.7722    2.6502 C.ar      1 RES1    0.0000
      4 N2         2.3794    4.6949    3.9559 N.3       1 RES1    0.0000
      5 O2         1.7692    5.0761    1.2377 O.2       1 RES1    0.0000
      6 C2         2.3530    6.1230    3.8662 C.ar      1 RES1    0.0000
      7 N3         2.1505    9.1948    6.0383 N.3       1 RES1    0.0000
      8 O3         2.1013    2.0697    4.9538 O.3       1 RES1    0.0000
      9 C3         2.2810    6.9530    4.9925 C.ar      1 RES1    0.0000
     10 H1         2.1467    6.5543    5.7784 H         1 RES1    0.0000
     11 N4         2.5318   10.3233    3.5444 N.pl3     1 RES1    0.0000
     12 H2         2.3927   10.6991    4.2901 H         1 RES1    0.0000
     13 H3         2.4362   10.6947    2.7368 H         1 RES1    0.0000
     14 O4         2.2905   10.3124    8.6173 O.3       1 RES1    0.0000
     15 C4         2.3056    8.3397    4.9059 C.ar      1 RES1    0.0000
     16 C5         2.4684    8.9649    3.6465 C.ar      1 RES1    0.0000
     17 C6         2.5374    8.1512    2.5249 C.ar      1 RES1    0.0000
     18 H4         2.5724    8.5063    1.7513 H         1 RES1    0.0000
     19 C7         3.3009    4.1688    4.9600 C.3       1 RES1    0.0000
     20 H5         3.0228    4.5827    5.8759 H         1 RES1    0.0000
     21 H6         4.0370    4.5914    4.9291 H         1 RES1    0.0000
     22 C8         3.3833    2.6742    4.7914 C.3       1 RES1    0.0000
     23 H7         3.8714    2.2145    5.2694 H         1 RES1    0.0000
     24 H8         3.8327    2.4422    4.0132 H         1 RES1    0.0000
     25 C9         1.2015    2.5860    3.9962 C.3       1 RES1    0.0000
     26 H9         0.3671    2.2810    4.3597 H         1 RES1    0.0000
     27 H10        1.1419    2.2200    3.0478 H         1 RES1    0.0000
     28 C10        1.0464    4.0903    4.1478 C.3       1 RES1    0.0000
     29 H11        0.6708    4.5914    3.4299 H         1 RES1    0.0000
     30 H12        0.8070    4.3703    5.0497 H         1 RES1    0.0000
     31 C11        3.3823    9.8113    6.5164 C.3       1 RES1    0.0000
     32 H13        3.9367    9.1882    6.9852 H         1 RES1    0.0000
     33 H14        3.9187   10.1283    5.8295 H         1 RES1    0.0000
     34 C12        3.0370   10.8723    7.5390 C.3       1 RES1    0.0000
     35 H15        2.3927   11.5390    7.1368 H         1 RES1    0.0000
     36 H16        3.9292   11.1054    7.8624 H         1 RES1    0.0000
     37 C13        1.0767    9.7558    8.1347 C.3       1 RES1    0.0000
     38 H17        0.5147    9.3571    8.8881 H         1 RES1    0.0000
     39 H18        0.6717   10.4507    7.5344 H         1 RES1    0.0000
     40 C14        1.3832    8.6469    7.1491 C.3       1 RES1    0.0000
     41 H19        0.7030    8.2950    6.8351 H         1 RES1    0.0000
     42 H20        1.9073    7.9769    7.5947 H         1 RES1    0.0000
@<TRIPOS>BOND
     1    1    2 2
     2    3    1 1
     3    4    6 1
     4    5    1 2
     5    6    3 ar
     6    7   15 1
     7    8   22 1
     8    9    6 ar
     9   10    9 1
    10   11   12 1
    11   13   11 1
    12   14   34 1
    13   15    9 ar
    14   16   11 1
    15   17    3 ar
    16   18   17 1
    17   19    4 1
    18   20   19 1
    19   21   19 1
    20   22   19 1
    21   23   22 1
    22   24   22 1
    23   25    8 1
    24   26   25 1
    25   27   25 1
    26   28    4 1
    27   29   28 1
    28   30   28 1
    29   31    7 1
    30   32   31 1
    31   33   31 1
    32   34   31 1
    33   35   34 1
    34   36   34 1
    35   37   14 1
    36   38   37 1
    37   39   37 1
    38   40    7 1
    39   41   40 1
    40   42   40 1
    41   15   16 ar
    42   16   17 ar
    43   25   28 1
    44   37   40 1
@<TRIPOS>SUBSTRUCTURE
     1 RES1 1

@<TRIPOS>CRYSIN
   9.4610   10.8930   15.4710  90.0000  90.0000  90.0000  19 1

