# MOL2 file generated by ConQuest
# Please check atom types

@<TRIPOS>MOLECULE
NOSLIQ
    31    32     1
SMALL
NO_CHARGES
****
Generated from CSD

@<TRIPOS>ATOM
      1 O1        12.7904   -2.1027   -0.1564 O.3       1 RES1    0.0000
      2 O2         9.2990    0.1766    1.5712 O.3       1 RES1    0.0000
      3 O3         7.8584    1.4627    2.5343 O.2       1 RES1    0.0000
      4 O4         8.5787   -0.2464    3.6396 O.2       1 RES1    0.0000
      5 O5         9.8088   -2.7179   -1.4599 O.3       1 RES1    0.0000
      6 O6         8.0309   -4.0570   -1.2774 O.2       1 RES1    0.0000
      7 O7         9.4511   -4.2934   -2.8945 O.2       1 RES1    0.0000
      8 N1        11.2176   -0.5152   -0.4640 N.2       1 RES1    0.0000
      9 N2        15.6480   -0.0923   -2.3423 N.ar      1 RES1    0.0000
     10 N3         8.5203    0.4784    2.6925 N.pl3     1 RES1    0.0000
     11 N4         9.0172   -3.7762   -1.9040 N.pl3     1 RES1    0.0000
     12 C1        10.5854   -1.5104    0.4199 C.3       1 RES1    0.0000
     13 C2        11.6894   -2.5753    0.6484 C.3       1 RES1    0.0000
     14 C3        12.3830   -0.9373   -0.7221 C.2       1 RES1    0.0000
     15 C4        13.3710   -0.2730   -1.5910 C.ar      1 RES1    0.0000
     16 C5        14.7030   -0.6735   -1.5968 C.ar      1 RES1    0.0000
     17 C6        15.2522    0.9215   -3.1241 C.ar      1 RES1    0.0000
     18 C7        13.9589    1.3912   -3.1854 C.ar      1 RES1    0.0000
     19 C8        12.9951    0.7871   -2.3962 C.ar      1 RES1    0.0000
     20 C9        10.2265   -0.9199    1.7751 C.3       1 RES1    0.0000
     21 C10        9.3465   -2.0882   -0.2396 C.3       1 RES1    0.0000
     22 H1        11.4855   -3.5026    0.4056 H         1 RES1    0.0000
     23 H2        11.9526   -2.6734    1.5691 H         1 RES1    0.0000
     24 H3        15.0120   -1.4552   -1.0767 H         1 RES1    0.0000
     25 H4        15.9851    1.3229   -3.6774 H         1 RES1    0.0000
     26 H5        13.7098    2.2668   -3.8818 H         1 RES1    0.0000
     27 H6        12.1556    1.0917   -2.4366 H         1 RES1    0.0000
     28 H7        10.9527   -0.5618    2.2161 H         1 RES1    0.0000
     29 H8         9.7289   -1.5546    2.3288 H         1 RES1    0.0000
     30 H9         8.7434   -1.4058   -0.4957 H         1 RES1    0.0000
     31 H10        8.8975   -2.7314    0.3508 H         1 RES1    0.0000
@<TRIPOS>BOND
     1    1   13 1
     2    2   10 1
     3    3   10 2
     4    4   10 2
     5    5   11 1
     6    6   11 2
     7    7   11 2
     8    8   12 1
     9    9   16 ar
    10   12   13 1
    11   13   22 1
    12   14    1 1
    13   15   14 1
    14   16   15 ar
    15   17    9 ar
    16   18   17 ar
    17   19   15 ar
    18   20    2 1
    19   21    5 1
    20   23   13 1
    21   24   16 1
    22   25   17 1
    23   26   18 1
    24   27   19 1
    25   28   20 1
    26   29   20 1
    27   30   21 1
    28   31   21 1
    29    8   14 2
    30   12   20 1
    31   12   21 1
    32   18   19 ar
@<TRIPOS>SUBSTRUCTURE
     1 RES1 1

@<TRIPOS>CRYSIN
  14.6220    5.3150   17.0510  90.0000 109.2900  90.0000 231 1

