# MOL2 file generated by ConQuest
# Please check atom types

@<TRIPOS>MOLECULE
NOSNUE
    23    23     1
SMALL
NO_CHARGES
****
Generated from CSD

@<TRIPOS>ATOM
      1 O1        -1.6324    0.6537   14.1649 O.2       1 RES1    0.0000
      2 O2         0.1683   -0.2646   13.5003 O.2       1 RES1    0.0000
      3 O3         2.8725    5.0505   14.0610 O.2       1 RES1    0.0000
      4 O4         0.2353    1.8288   13.9364 O.3       1 RES1    0.0000
      5 O5         0.9098    4.4591   13.1679 O.3       1 RES1    0.0000
      6 N1        -0.5074    0.6537   13.8533 N.pl3     1 RES1    0.0000
      7 N2         4.0629    6.2879   10.1563 N.ar      1 RES1    0.0000
      8 C1         2.1336    4.9571   13.1264 C.2       1 RES1    0.0000
      9 C2         2.5035    5.3851   11.7348 C.ar      1 RES1    0.0000
     10 C3         1.5617    5.2840   10.7171 C.ar      1 RES1    0.0000
     11 C4         1.8641    5.7120    9.4502 C.ar      1 RES1    0.0000
     12 C5         3.0724    6.1789    9.2009 C.ar      1 RES1    0.0000
     13 C6         3.7480    5.8832   11.4648 C.ar      1 RES1    0.0000
     14 C7         0.3967    4.0933   14.4972 C.3       1 RES1    0.0000
     15 C8        -0.5549    2.9727   14.3310 C.3       1 RES1    0.0000
     16 H1        -1.1872    3.1439   14.0403 H         1 RES1    0.0000
     17 H2        -0.5923    2.7626   13.4172 H         1 RES1    0.0000
     18 H3         0.0851    4.7937   14.9957 H         1 RES1    0.0000
     19 H4         0.9669    3.7898   14.9749 H         1 RES1    0.0000
     20 H5         0.9059    5.1984   10.3848 H         1 RES1    0.0000
     21 H6         1.7070    6.0311    8.5155 H         1 RES1    0.0000
     22 H7         3.1938    6.8170    8.5571 H         1 RES1    0.0000
     23 H8         4.4770    5.7276   12.2125 H         1 RES1    0.0000
@<TRIPOS>BOND
     1    1    6 2
     2    2    6 2
     3    3    8 2
     4    4    6 1
     5    5    8 1
     6    7   12 ar
     7    8    9 1
     8    9   10 ar
     9   10   11 ar
    10   11   12 ar
    11   12   22 1
    12   13    7 ar
    13   14    5 1
    14   15    4 1
    15   16   15 1
    16   17   15 1
    17   18   14 1
    18   19   14 1
    19   20   10 1
    20   21   11 1
    21   23   13 1
    22    9   13 ar
    23   14   15 1
@<TRIPOS>SUBSTRUCTURE
     1 RES1 1

@<TRIPOS>CRYSIN
   5.9970    7.7820   20.7710  90.0000  90.6600  90.0000 231 1

