# MOL2 file generated by ConQuest
# Please check atom types

@<TRIPOS>MOLECULE
NOTRAP
    66    68     2
SMALL
NO_CHARGES
****
Generated from CSD

@<TRIPOS>ATOM
      1 N1         3.2470    8.1840   -1.3770 N.am      1 RES1    0.0000
      2 C1         4.3679    7.5886   -1.8984 C.2       1 RES1    0.0000
      3 O1         4.6282    6.4341   -1.6235 O.2       1 RES1    0.0000
      4 C2         5.2269    8.4041   -2.8731 C.3       1 RES1    0.0000
      5 C3         5.1667    9.8738   -2.4311 C.3       1 RES1    0.0000
      6 C4         3.7454   10.3891   -2.2837 C.3       1 RES1    0.0000
      7 C5         2.8691    9.5011   -1.4677 C.2       1 RES1    0.0000
      8 O2         1.8537    9.8813   -0.9237 O.2       1 RES1    0.0000
      9 C6         6.6662    7.8538   -2.8192 C.3       1 RES1    0.0000
     10 C7         7.6371    8.4967   -3.7911 C.3       1 RES1    0.0000
     11 C8         4.6655    8.1602   -4.2898 C.ar      1 RES1    0.0000
     12 C9         4.5952    9.1571   -5.2446 C.ar      1 RES1    0.0000
     13 C10        4.1699    8.8907   -6.5282 C.ar      1 RES1    0.0000
     14 C11        3.7999    7.6174   -6.8625 C.ar      1 RES1    0.0000
     15 C12        3.8279    6.6105   -5.9416 C.ar      1 RES1    0.0000
     16 C13        4.2710    6.8832   -4.6638 C.ar      1 RES1    0.0000
     17 N2         3.3854    7.3197   -8.2509 N.pl3     1 RES1    0.0000
     18 O3         3.0348    6.1815   -8.5115 O.2       1 RES1    0.0000
     19 O4         3.4313    8.2215   -9.0612 O.2       1 RES1    0.0000
     20 N3        -0.1707    1.3083   -0.5582 N.am      2 RES2    0.0000
     21 C14        0.5773    2.2202   -1.2750 C.2       2 RES2    0.0000
     22 O5         1.6945    2.4953   -0.8954 O.2       2 RES2    0.0000
     23 C15       -0.0559    2.7943   -2.5387 C.3       2 RES2    0.0000
     24 C16       -1.5776    2.9069   -2.3064 C.3       2 RES2    0.0000
     25 C17       -2.2115    1.5960   -1.8927 C.3       2 RES2    0.0000
     26 C18       -1.4643    0.9056   -0.7905 C.2       2 RES2    0.0000
     27 O6        -1.9555    0.0063   -0.1190 O.2       2 RES2    0.0000
     28 C19        0.4926    4.2064   -2.8192 C.3       2 RES2    0.0000
     29 C20        1.9182    4.3190   -3.3122 C.3       2 RES2    0.0000
     30 C21        0.2008    1.8412   -3.7146 C.ar      2 RES2    0.0000
     31 C22        0.8110    0.5979   -3.5729 C.ar      2 RES2    0.0000
     32 C23        0.9251   -0.2614   -4.6468 C.ar      2 RES2    0.0000
     33 C24        0.4295    0.1238   -5.8651 C.ar      2 RES2    0.0000
     34 C25       -0.1348    1.3571   -6.0578 C.ar      2 RES2    0.0000
     35 C26       -0.2366    2.2077   -4.9840 C.ar      2 RES2    0.0000
     36 N4         0.4819   -0.8205   -6.9843 N.pl3     2 RES2    0.0000
     37 O7         1.1180   -1.8599   -6.8257 O.2       2 RES2    0.0000
     38 O8        -0.0688   -0.5191   -8.0270 O.2       2 RES2    0.0000
     39 H1         2.8010    7.6574   -0.8472 H         1 RES1    0.0000
     40 H2         5.6278    9.9676   -1.5839 H         1 RES1    0.0000
     41 H3         5.6328   10.4179   -3.0856 H         1 RES1    0.0000
     42 H4         3.7719   11.2660   -1.8700 H         1 RES1    0.0000
     43 H5         3.3546   10.4905   -3.1649 H         1 RES1    0.0000
     44 H6         7.0075    7.9726   -1.9182 H         1 RES1    0.0000
     45 H7         6.6382    6.9007   -2.9977 H         1 RES1    0.0000
     46 H8         8.5034    8.0964   -3.6891 H         1 RES1    0.0000
     47 H9         7.6959    9.4373   -3.6098 H         1 RES1    0.0000
     48 H10        7.3259    8.3628   -4.6893 H         1 RES1    0.0000
     49 H11        4.8404   10.0239   -5.0180 H         1 RES1    0.0000
     50 H12        4.1348    9.5699   -7.1628 H         1 RES1    0.0000
     51 H13        3.5532    5.7524   -6.1740 H         1 RES1    0.0000
     52 H14        4.3055    6.1952   -4.0376 H         1 RES1    0.0000
     53 H15        0.2474    0.9093    0.1360 H         2 RES2    0.0000
     54 H16       -1.7433    3.5698   -1.6179 H         2 RES2    0.0000
     55 H17       -1.9986    3.2183   -3.1252 H         2 RES2    0.0000
     56 H18       -3.1208    1.7636   -1.6037 H         2 RES2    0.0000
     57 H19       -2.2503    1.0081   -2.6634 H         2 RES2    0.0000
     58 H20       -0.0839    4.6255   -3.4766 H         2 RES2    0.0000
     59 H21        0.4188    4.7218   -2.0004 H         2 RES2    0.0000
     60 H22        2.1377    5.2434   -3.4482 H         2 RES2    0.0000
     61 H23        2.0086    3.8437   -4.1424 H         2 RES2    0.0000
     62 H24        2.5134    3.9413   -2.6606 H         2 RES2    0.0000
     63 H25        1.1459    0.3440   -2.7427 H         2 RES2    0.0000
     64 H26        1.3324   -1.0907   -4.5448 H         2 RES2    0.0000
     65 H27       -0.4432    1.6135   -6.8965 H         2 RES2    0.0000
     66 H28       -0.6081    3.0507   -5.1086 H         2 RES2    0.0000
@<TRIPOS>BOND
     1    1    2 1
     2    2    3 2
     3    4    2 1
     4    5    4 1
     5    6    5 1
     6    7    1 1
     7    8    7 2
     8    9    4 1
     9   10    9 1
    10   11    4 1
    11   12   11 ar
    12   13   12 ar
    13   14   13 ar
    14   15   14 ar
    15   16   11 ar
    16   17   14 1
    17   18   17 2
    18   19   17 2
    19   20   21 1
    20   21   22 2
    21   23   21 1
    22   24   23 1
    23   25   24 1
    24   26   20 1
    25   27   26 2
    26   28   23 1
    27   29   28 1
    28   30   23 1
    29   31   30 ar
    30   32   31 ar
    31   33   32 ar
    32   34   33 ar
    33   35   30 ar
    34   36   33 1
    35   37   36 2
    36   38   36 2
    37   39    1 1
    38   40    5 1
    39   41    5 1
    40   42    6 1
    41   43    6 1
    42   44    9 1
    43   45    9 1
    44   46   10 1
    45   47   10 1
    46   48   10 1
    47   49   12 1
    48   50   13 1
    49   51   15 1
    50   52   16 1
    51   53   20 1
    52   54   24 1
    53   55   24 1
    54   56   25 1
    55   57   25 1
    56   58   28 1
    57   59   28 1
    58   60   29 1
    59   61   29 1
    60   62   29 1
    61   63   31 1
    62   64   32 1
    63   65   34 1
    64   66   35 1
    65    6    7 1
    66   15   16 ar
    67   25   26 1
    68   34   35 ar
@<TRIPOS>SUBSTRUCTURE
     1 RES1 1
     2 RES2 20

@<TRIPOS>CRYSIN
   7.1710   12.5080   28.3340  90.0000  90.0000  90.0000  19 1

