# MOL2 file generated by ConQuest
# Please check atom types

@<TRIPOS>MOLECULE
NOTRIZ
    98    92     3
SMALL
NO_CHARGES
****
Generated from CSD

@<TRIPOS>ATOM
      1 C1        -0.2716    7.2304   10.0162 C.ar      1 RES1    0.0000
      2 C2        -0.1823    5.8612   10.0060 C.ar      1 RES1    0.0000
      3 H1        -0.0620    5.3999   10.8050 H         1 RES1    0.0000
      4 C3        -0.2705    5.1657    8.8186 C.ar      1 RES1    0.0000
      5 H2        -0.1956    4.2386    8.8297 H         1 RES1    0.0000
      6 C4        -0.4672    5.8124    7.6107 C.ar      1 RES1    0.0000
      7 C5        -0.5652    7.1887    7.6431 C.ar      1 RES1    0.0000
      8 H3        -0.6960    7.6537    6.8493 H         1 RES1    0.0000
      9 C6        -0.4724    7.8970    8.8388 C.ar      1 RES1    0.0000
     10 H4        -0.5464    8.8245    8.8363 H         1 RES1    0.0000
     11 C7        -0.5405    5.0377    6.3491 C.ar      1 RES1    0.0000
     12 C8        -1.0360    3.7453    6.3242 C.ar      1 RES1    0.0000
     13 H5        -1.3518    3.3672    7.1132 H         1 RES1    0.0000
     14 C9        -1.0732    3.0039    5.1657 C.ar      1 RES1    0.0000
     15 H6        -1.4118    2.1384    5.1879 H         1 RES1    0.0000
     16 C10       -0.6180    3.5229    3.9710 C.ar      1 RES1    0.0000
     17 C11       -0.1327    4.8182    3.9815 C.ar      1 RES1    0.0000
     18 H7         0.1744    5.1963    3.1892 H         1 RES1    0.0000
     19 C12       -0.0948    5.5585    5.1382 C.ar      1 RES1    0.0000
     20 H8         0.2360    6.4277    5.1111 H         1 RES1    0.0000
     21 C13       -0.6605    2.7913    2.6711 C.2       1 RES1    0.0000
     22 C14       -1.0829    1.3779    2.6387 C.2       1 RES1    0.0000
     23 H9        -1.1598    0.9053    3.4364 H         1 RES1    0.0000
     24 C15       -1.3507    0.7759    1.5050 C.2       1 RES1    0.0000
     25 H10       -1.1997    1.2672    0.7297 H         1 RES1    0.0000
     26 C16       -1.8621   -0.5888    1.3233 C.ar      1 RES1    0.0000
     27 C17       -2.2617   -1.3827    2.3936 C.ar      1 RES1    0.0000
     28 H11       -2.2271   -1.0353    3.2560 H         1 RES1    0.0000
     29 C18       -2.7084   -2.6756    2.2041 C.ar      1 RES1    0.0000
     30 H12       -2.9645   -3.1905    2.9354 H         1 RES1    0.0000
     31 C19       -2.7739   -3.2031    0.9332 C.ar      1 RES1    0.0000
     32 H13       -3.0599   -4.0772    0.7931 H         1 RES1    0.0000
     33 C20       -2.4074   -2.4071   -0.1179 C.ar      1 RES1    0.0000
     34 C21       -1.9578   -1.1097    0.0412 C.ar      1 RES1    0.0000
     35 H14       -1.7240   -0.5952   -0.6980 H         1 RES1    0.0000
     36 O1        -0.3679    3.3764    1.6442 O.2       1 RES1    0.0000
     37 O2        -2.4158   -2.1848   -2.4170 O.2       1 RES1    0.0000
     38 O3        -2.7402   -4.1469   -1.6031 O.2       1 RES1    0.0000
     39 N1        -2.5218   -2.9469   -1.4727 N.pl3     1 RES1    0.0000
     40 O4        -0.1697    7.8130   11.2550 O.3       1 RES1    0.0000
     41 C22        0.0239    9.1880   11.3126 C.3       1 RES1    0.0000
     42 H15        0.0783    9.4658   12.2293 H         1 RES1    0.0000
     43 H16        0.8387    9.4163   10.8601 H         1 RES1    0.0000
     44 H17       -0.7138    9.6335   10.8868 H         1 RES1    0.0000
     45 O5        -0.1274    8.3220   10.8701 Du        3 SUP3    0.0000
     46 C23        0.4969    9.5927   10.5195 Du        3 SUP3    0.0000
     47 H18        0.4704   10.1752   11.2809 Du        3 SUP3    0.0000
     48 H19        1.4117    9.4360   10.2690 Du        3 SUP3    0.0000
     49 H20        0.0268    9.9912    9.7881 Du        3 SUP3    0.0000
     50 C24       -2.1252   12.4559   10.0033 C.ar      2 RES2    0.0000
     51 C25       -3.3303   11.9527    9.5378 C.ar      2 RES2    0.0000
     52 H21       -4.1060   12.0649   10.0386 H         2 RES2    0.0000
     53 C26       -3.3795   11.2854    8.3324 C.ar      2 RES2    0.0000
     54 H22       -4.1950   10.9645    8.0215 H         2 RES2    0.0000
     55 C27       -2.2306   11.0819    7.5703 C.ar      2 RES2    0.0000
     56 C28       -1.0495   11.6043    8.0574 C.ar      2 RES2    0.0000
     57 H23       -0.2708   11.4966    7.5606 H         2 RES2    0.0000
     58 C29       -0.9891   12.2845    9.2630 C.ar      2 RES2    0.0000
     59 H24       -0.1776   12.6226    9.5677 H         2 RES2    0.0000
     60 C30       -2.2788   10.3077    6.3038 C.ar      2 RES2    0.0000
     61 C31       -1.4002   10.5594    5.2584 C.ar      2 RES2    0.0000
     62 H25       -0.7868   11.2541    5.3382 H         2 RES2    0.0000
     63 C32       -1.4165    9.8040    4.1066 C.ar      2 RES2    0.0000
     64 H26       -0.8213   10.0004    3.4197 H         2 RES2    0.0000
     65 C33       -2.3093    8.7543    3.9595 C.ar      2 RES2    0.0000
     66 C34       -3.2003    8.5088    4.9837 C.ar      2 RES2    0.0000
     67 H27       -3.8125    7.8136    4.9007 H         2 RES2    0.0000
     68 C35       -3.1976    9.2767    6.1273 C.ar      2 RES2    0.0000
     69 H28       -3.8210    9.1026    6.7942 H         2 RES2    0.0000
     70 C36       -2.3088    7.9842    2.6783 C.2       2 RES2    0.0000
     71 C37       -2.8239    6.5962    2.6791 C.2       2 RES2    0.0000
     72 H29       -3.0244    6.1827    3.4881 H         2 RES2    0.0000
     73 C38       -3.0025    5.9368    1.5499 C.2       2 RES2    0.0000
     74 H30       -2.7668    6.3811    0.7681 H         2 RES2    0.0000
     75 C39       -3.5319    4.5794    1.3969 C.ar      2 RES2    0.0000
     76 C40       -3.6576    4.0583    0.1157 C.ar      2 RES2    0.0000
     77 H31       -3.4264    4.5691   -0.6262 H         2 RES2    0.0000
     78 C41       -4.1311    2.7694   -0.0399 C.ar      2 RES2    0.0000
     79 C42       -4.4777    1.9733    1.0207 C.ar      2 RES2    0.0000
     80 H32       -4.7795    1.1041    0.8866 H         2 RES2    0.0000
     81 C43       -4.3678    2.4952    2.2916 C.ar      2 RES2    0.0000
     82 H33       -4.6085    1.9790    3.0256 H         2 RES2    0.0000
     83 C44       -3.9023    3.7804    2.4796 C.ar      2 RES2    0.0000
     84 H34       -3.8348    4.1203    3.3428 H         2 RES2    0.0000
     85 O6        -1.8903    8.5054    1.6656 O.2       2 RES2    0.0000
     86 O7        -4.1868    3.0014   -2.3408 O.2       2 RES2    0.0000
     87 O8        -4.4919    1.0390   -1.5332 O.2       2 RES2    0.0000
     88 N2        -4.2749    2.2350   -1.3989 N.pl3     2 RES2    0.0000
     89 O9        -2.2321   12.9601   11.2809 O.3       2 RES2    0.0000
     90 C45       -1.0275   13.4660   11.8386 C.3       2 RES2    0.0000
     91 H35       -1.1972   13.7936   12.7235 H         2 RES2    0.0000
     92 H36       -0.3726   12.7646   11.8770 H         2 RES2    0.0000
     93 H37       -0.6964   14.1816   11.2909 H         2 RES2    0.0000
     94 O10       -2.1306   13.2439   11.1389 Du        3 SUP3    0.0000
     95 C46       -0.9042   13.8861   11.5514 Du        3 SUP3    0.0000
     96 H38       -1.0635   14.3951   12.3495 Du        3 SUP3    0.0000
     97 H39       -0.2356   13.2192   11.7233 Du        3 SUP3    0.0000
     98 H40       -0.5993   14.4716   10.8534 Du        3 SUP3    0.0000
@<TRIPOS>BOND
     1    1    2 ar
     2    2    3 1
     3    4    2 ar
     4    5    4 1
     5    6    4 ar
     6    7    6 ar
     7    8    7 1
     8    9    1 ar
     9   10    9 1
    10   11    6 1
    11   12   11 ar
    12   13   12 1
    13   14   12 ar
    14   15   14 1
    15   16   14 ar
    16   17   16 ar
    17   18   17 1
    18   19   11 ar
    19   20   19 1
    20   21   16 1
    21   22   21 1
    22   23   22 1
    23   24   22 2
    24   25   24 1
    25   26   24 1
    26   27   26 ar
    27   28   27 1
    28   29   27 ar
    29   30   29 1
    30   31   29 ar
    31   32   31 1
    32   33   31 ar
    33   34   26 ar
    34   35   34 1
    35   36   21 2
    36   37   39 2
    37   38   39 2
    38   39   33 1
    39   40    1 1
    40   41   40 1
    41   42   41 1
    42   43   41 1
    43   44   41 1
    44   50   51 ar
    45   51   52 1
    46   53   51 ar
    47   54   53 1
    48   55   53 ar
    49   56   55 ar
    50   57   56 1
    51   58   50 ar
    52   59   58 1
    53   60   55 1
    54   61   60 ar
    55   62   61 1
    56   63   61 ar
    57   64   63 1
    58   65   63 ar
    59   66   65 ar
    60   67   66 1
    61   68   60 ar
    62   69   68 1
    63   70   65 1
    64   71   70 1
    65   72   71 1
    66   73   71 2
    67   74   73 1
    68   75   73 1
    69   76   75 ar
    70   77   76 1
    71   78   76 ar
    72   79   78 ar
    73   80   79 1
    74   81   79 ar
    75   82   81 1
    76   83   75 ar
    77   84   83 1
    78   85   70 2
    79   86   88 2
    80   87   88 2
    81   88   78 1
    82   89   50 1
    83   90   89 1
    84   91   90 1
    85   92   90 1
    86   93   90 1
    87    7    9 ar
    88   17   19 ar
    89   33   34 ar
    90   56   58 ar
    91   66   68 ar
    92   81   83 ar
@<TRIPOS>SUBSTRUCTURE
     1 RES1 1
     2 RES2 50
     3 SUP3 45

@<TRIPOS>CRYSIN
  10.1924   10.8732   16.9675  97.9260  93.7110 107.7290   2 1

