# MOL2 file generated by ConQuest
# Please check atom types

@<TRIPOS>MOLECULE
NOXBZP10
    13    13     1
SMALL
NO_CHARGES
****
Generated from CSD

@<TRIPOS>ATOM
      1 C1         1.6965    1.1262    2.7104 C.ar      1 RES1    0.0000
      2 C2         2.5157    0.7878    3.8035 C.ar      1 RES1    0.0000
      3 C3         2.1090   -0.2424    4.7280 C.ar      1 RES1    0.0000
      4 C4         0.8889   -0.8080    4.4594 C.ar      1 RES1    0.0000
      5 C5         0.0116   -0.5151    3.3979 C.ar      1 RES1    0.0000
      6 C6         0.4648    0.4848    2.5049 C.ar      1 RES1    0.0000
      7 C7         2.2601    2.1412    1.8227 C.2       1 RES1    0.0000
      8 N1         0.3951   -1.9139    5.3734 N.pl3     1 RES1    0.0000
      9 O1         3.3466    2.6210    1.8148 O.2       1 RES1    0.0000
     10 O2         1.2898    2.4745    0.9087 O.3       1 RES1    0.0000
     11 O3         1.8766    3.4896    0.0026 O.3       1 RES1    0.0000
     12 O4         1.1736   -2.3179    6.2399 O.2       1 RES1    0.0000
     13 O5        -0.7437   -2.3533    5.1837 O.2       1 RES1    0.0000
@<TRIPOS>BOND
     1    1    2 ar
     2    2    3 ar
     3    3    4 ar
     4    4    5 ar
     5    5    6 ar
     6    6    1 ar
     7    7    1 1
     8    8    4 1
     9    9    7 2
    10   10    7 1
    11   11   10 1
    12   12    8 2
    13   13    8 2
@<TRIPOS>SUBSTRUCTURE
     1 RES1 1

@<TRIPOS>CRYSIN
   5.8100    5.0500   26.3400  90.0000  90.0000  90.0000  19 1

