# MOL2 file generated by ConQuest
# Please check atom types

@<TRIPOS>MOLECULE
NOXBZA
    18    18     1
SMALL
NO_CHARGES
****
Generated from CSD

@<TRIPOS>ATOM
      1 C1         3.0009   -2.3993   -1.3117 C.ar      1 RES1    0.0000
      2 C2         3.8791   -3.4853   -1.2283 C.ar      1 RES1    0.0000
      3 C3         5.2430   -3.2849   -1.1787 C.ar      1 RES1    0.0000
      4 C4         5.7791   -1.9907   -1.2014 C.ar      1 RES1    0.0000
      5 C5         4.8875   -0.9166   -1.2593 C.ar      1 RES1    0.0000
      6 C6         3.5118   -1.0947   -1.3400 C.ar      1 RES1    0.0000
      7 C7         2.5270    0.0191   -1.5006 C.2       1 RES1    0.0000
      8 H1         2.0484   -2.4407   -1.4475 H         1 RES1    0.0000
      9 H2         3.4169   -4.3884   -1.1029 H         1 RES1    0.0000
     10 H3         5.9639   -4.0148   -1.2752 H         1 RES1    0.0000
     11 H4         6.8144   -1.7888   -1.1718 H         1 RES1    0.0000
     12 H5         2.2469    2.7030   -3.2396 H         1 RES1    0.0000
     13 N1         5.4677    0.4380   -1.1408 N.pl3     1 RES1    0.0000
     14 O1         1.5711    0.2162   -0.7789 O.2       1 RES1    0.0000
     15 O2         2.7889    0.7012   -2.6214 O.3       1 RES1    0.0000
     16 O3         1.8059    1.7967   -2.7565 O.3       1 RES1    0.0000
     17 O4         4.7489    1.3110   -0.6410 O.2       1 RES1    0.0000
     18 O5         6.6217    0.6034   -1.4840 O.2       1 RES1    0.0000
@<TRIPOS>BOND
     1    1    2 ar
     2    2    3 ar
     3    3    4 ar
     4    4    5 ar
     5    5    6 ar
     6    6    1 ar
     7    7    6 1
     8    8    1 1
     9    9    2 1
    10   10    3 1
    11   11    4 1
    12   12   16 1
    13   13    5 1
    14   14    7 2
    15   15    7 1
    16   16   15 1
    17   17   13 2
    18   18   13 2
@<TRIPOS>SUBSTRUCTURE
     1 RES1 1

@<TRIPOS>CRYSIN
  13.7500    7.9500    7.4700  90.0000 112.6700  90.0000  14 1

