# MOL2 file generated by ConQuest
# Please check atom types

@<TRIPOS>MOLECULE
NOYGOX
    28    29     1
SMALL
NO_CHARGES
****
Generated from CSD

@<TRIPOS>ATOM
      1 O1         5.4714    6.4740   -0.6015 O.2       1 RES1    0.0000
      2 O2         1.1138    9.2385    0.8410 O.3       1 RES1    0.0000
      3 O3         6.8392    5.9157    1.8452 O.2       1 RES1    0.0000
      4 O4         7.7352    7.5798    0.7901 O.2       1 RES1    0.0000
      5 O5         7.1392    8.5938    3.3663 O.2       1 RES1    0.0000
      6 O6         5.1046    9.3573    3.4481 O.2       1 RES1    0.0000
      7 N1         6.8354    7.0593    1.4284 N.pl3     1 RES1    0.0000
      8 N2         6.0025    8.6856    2.9420 N.pl3     1 RES1    0.0000
      9 C1         4.4627    6.9956   -0.1729 C.2       1 RES1    0.0000
     10 C2         4.5066    7.8941    1.0578 C.2       1 RES1    0.0000
     11 C3         3.3680    8.6846    1.3423 C.2       1 RES1    0.0000
     12 C4         2.2218    8.5398    0.6161 C.2       1 RES1    0.0000
     13 C5         2.0690    7.5744   -0.4622 C.ar      1 RES1    0.0000
     14 C6         0.8616    7.4211   -1.1396 C.ar      1 RES1    0.0000
     15 C7         0.7756    6.4934   -2.1746 C.ar      1 RES1    0.0000
     16 C8         1.8607    5.7353   -2.5540 C.ar      1 RES1    0.0000
     17 C9         3.0700    5.8973   -1.8885 C.ar      1 RES1    0.0000
     18 C10        3.1694    6.8109   -0.8394 C.ar      1 RES1    0.0000
     19 C11        5.6739    7.8995    1.7688 C.2       1 RES1    0.0000
     20 C12        1.1004   10.2515    1.8679 C.3       1 RES1    0.0000
     21 H1         3.4024    9.3228    2.0457 H         1 RES1    0.0000
     22 H2         0.1051    7.9437   -0.8985 H         1 RES1    0.0000
     23 H3        -0.0516    6.3811   -2.6293 H         1 RES1    0.0000
     24 H4         1.7824    5.1079   -3.2628 H         1 RES1    0.0000
     25 H5         3.8284    5.3865   -2.1486 H         1 RES1    0.0000
     26 H6         0.1872   10.5938    1.9774 H         1 RES1    0.0000
     27 H7         1.6945   10.9858    1.6105 H         1 RES1    0.0000
     28 H8         1.4061    9.8627    2.7138 H         1 RES1    0.0000
@<TRIPOS>BOND
     1    1    9 2
     2    2   12 1
     3    3    7 2
     4    4    7 2
     5    5    8 2
     6    6    8 2
     7    7   19 1
     8    8   19 1
     9    9   10 1
    10   10   11 1
    11   11   12 2
    12   12   13 1
    13   13   14 ar
    14   14   15 ar
    15   15   16 ar
    16   16   17 ar
    17   17   18 ar
    18   18    9 1
    19   19   10 2
    20   20    2 1
    21   21   11 1
    22   22   14 1
    23   23   15 1
    24   24   16 1
    25   25   17 1
    26   26   20 1
    27   27   20 1
    28   28   20 1
    29   13   18 ar
@<TRIPOS>SUBSTRUCTURE
     1 RES1 1

@<TRIPOS>CRYSIN
  19.1040   10.7990    5.4190  90.0000  90.0000  90.0000  33 1

