# MOL2 file generated by ConQuest
# Please check atom types

@<TRIPOS>MOLECULE
NOZYAC
    61    65     1
SMALL
NO_CHARGES
****
Generated from CSD

@<TRIPOS>ATOM
      1 C1        -2.2778    5.7328    8.5558 C.ar      1 RES1    0.0000
      2 C2        -3.0964    5.8398    9.7120 C.ar      1 RES1    0.0000
      3 C3        -3.9482    6.9575    9.8078 C.ar      1 RES1    0.0000
      4 C4        -3.9756    7.9361    8.8278 C.ar      1 RES1    0.0000
      5 C5        -3.1951    7.8541    7.7198 C.ar      1 RES1    0.0000
      6 C6        -2.3495    6.7142    7.5573 C.ar      1 RES1    0.0000
      7 C7        -1.5207    6.5710    6.3730 C.ar      1 RES1    0.0000
      8 C8        -0.7312    5.4645    6.2871 C.ar      1 RES1    0.0000
      9 C9        -0.5795    4.5164    7.3072 C.ar      1 RES1    0.0000
     10 C10       -1.3865    4.6374    8.4490 C.ar      1 RES1    0.0000
     11 C11        0.5393    3.5865    7.1646 C.2       1 RES1    0.0000
     12 N1         0.9775    2.7867    8.0719 N.pl3     1 RES1    0.0000
     13 O1         0.4165    2.5683    9.1982 O.2       1 RES1    0.0000
     14 C12        2.3248    2.0532    7.9051 C.3       1 RES1    0.0000
     15 C13        2.8680    2.2269    6.5038 C.3       1 RES1    0.0000
     16 C14        3.2399    2.6829    8.9782 C.3       1 RES1    0.0000
     17 C15        2.0632    0.6339    8.2176 C.3       1 RES1    0.0000
     18 O2        -0.0423    5.2397    5.1289 O.3       1 RES1    0.0000
     19 C16        0.3436    6.3806    4.3186 C.3       1 RES1    0.0000
     20 C17       -0.7380    7.4120    4.3901 C.2       1 RES1    0.0000
     21 N2        -1.5785    7.5261    5.3901 N.2       1 RES1    0.0000
     22 N3         1.6293    6.8911    4.7996 N.3       1 RES1    0.0000
     23 C18        2.5745    5.9872    4.2726 C.ar      1 RES1    0.0000
     24 C19        2.1019    5.3408    3.2067 C.ar      1 RES1    0.0000
     25 C20        0.6591    5.8315    2.9422 C.3       1 RES1    0.0000
     26 C21       -0.2983    4.7110    2.4521 C.3       1 RES1    0.0000
     27 C22        0.7236    6.9630    1.8656 C.3       1 RES1    0.0000
     28 C23        1.7758    7.4273    6.1277 C.3       1 RES1    0.0000
     29 C24        3.8909    5.7119    4.8231 C.ar      1 RES1    0.0000
     30 C25        4.6290    4.7889    4.1100 C.ar      1 RES1    0.0000
     31 C26        4.1656    4.1592    3.0060 C.ar      1 RES1    0.0000
     32 C27        2.8400    4.4261    2.5105 C.ar      1 RES1    0.0000
     33 H1        -3.0143    4.9835   10.3175 H         1 RES1    0.0000
     34 H2        -4.3964    7.1826   10.6237 H         1 RES1    0.0000
     35 H3        -4.4064    8.7882    9.1362 H         1 RES1    0.0000
     36 H4        -3.1235    8.6284    7.0225 H         1 RES1    0.0000
     37 H5        -1.2802    3.9382    9.1441 H         1 RES1    0.0000
     38 H6         0.9461    3.7908    6.2758 H         1 RES1    0.0000
     39 H7         2.2375    2.0865    5.7741 H         1 RES1    0.0000
     40 H8         3.0990    3.2640    6.0980 H         1 RES1    0.0000
     41 H9         3.7084    1.5333    6.3074 H         1 RES1    0.0000
     42 H10        3.3943    3.6004    8.6424 H         1 RES1    0.0000
     43 H11        3.0242    2.7816    9.8908 H         1 RES1    0.0000
     44 H12        3.9633    2.0838    8.9940 H         1 RES1    0.0000
     45 H13        1.5567    0.5783    9.2271 H         1 RES1    0.0000
     46 H14        1.4114    0.1154    7.4354 H         1 RES1    0.0000
     47 H15        2.9843    0.0598    8.1287 H         1 RES1    0.0000
     48 H16       -0.6882    8.0640    3.5360 H         1 RES1    0.0000
     49 H17       -0.5163    3.8520    3.2436 H         1 RES1    0.0000
     50 H18       -1.3132    5.2087    2.4396 H         1 RES1    0.0000
     51 H19       -0.1344    4.5567    1.5408 H         1 RES1    0.0000
     52 H20       -0.1503    7.4579    1.4756 H         1 RES1    0.0000
     53 H21        1.1852    7.8165    2.3211 H         1 RES1    0.0000
     54 H22        0.9106    6.4820    0.8692 H         1 RES1    0.0000
     55 H23        0.9840    8.0959    6.4062 H         1 RES1    0.0000
     56 H24        1.7273    6.6502    6.6373 H         1 RES1    0.0000
     57 H25        2.3409    8.2336    5.9025 H         1 RES1    0.0000
     58 H26        4.2136    6.3097    5.7049 H         1 RES1    0.0000
     59 H27        5.3532    4.4581    4.7587 H         1 RES1    0.0000
     60 H28        4.5622    3.4697    2.4357 H         1 RES1    0.0000
     61 H29        2.8515    3.8561    1.7285 H         1 RES1    0.0000
@<TRIPOS>BOND
     1    1    2 ar
     2    2    3 ar
     3    3    4 ar
     4    4    5 ar
     5    5    6 ar
     6    6    1 ar
     7    7    6 ar
     8    8    7 ar
     9    9    8 ar
    10   10    1 ar
    11   11    9 1
    12   12   11 2
    13   13   12 1
    14   14   12 1
    15   15   14 1
    16   16   14 1
    17   17   14 1
    18   18    8 1
    19   19   18 1
    20   20   19 1
    21   21    7 1
    22   22   19 1
    23   23   22 1
    24   24   23 ar
    25   25   19 1
    26   26   25 1
    27   27   25 1
    28   28   22 1
    29   29   23 ar
    30   30   29 ar
    31   31   30 ar
    32   32   24 ar
    33   33    2 1
    34   34    3 1
    35   35    4 1
    36   36    5 1
    37   37   10 1
    38   38   11 1
    39   39   15 1
    40   40   15 1
    41   41   15 1
    42   42   16 1
    43   43   16 1
    44   44   16 1
    45   45   17 1
    46   46   17 1
    47   47   17 1
    48   48   20 1
    49   49   26 1
    50   50   26 1
    51   51   26 1
    52   52   27 1
    53   53   27 1
    54   54   27 1
    55   55   28 1
    56   56   28 1
    57   57   28 1
    58   58   29 1
    59   59   30 1
    60   60   31 1
    61   61   32 1
    62    9   10 ar
    63   20   21 2
    64   24   25 1
    65   31   32 ar
@<TRIPOS>SUBSTRUCTURE
     1 RES1 1

@<TRIPOS>CRYSIN
   8.5800   13.9010   19.9770  90.0000  98.5700  90.0000  14 1

