# MOL2 file generated by ConQuest
# Please check atom types

@<TRIPOS>MOLECULE
NOZZAD
    46    46     1
SMALL
NO_CHARGES
****
Generated from CSD

@<TRIPOS>ATOM
      1 N1         4.7106   11.6767   11.9378 N.pl3     1 RES1    0.0000
      2 O1         0.4866    9.9815   13.6207 O.2       1 RES1    0.0000
      3 O2         0.7875    7.8106   14.0584 O.3       1 RES1    0.0000
      4 O3         0.7259    7.7183   10.9477 O.2       1 RES1    0.0000
      5 O4         2.6858    6.7246   11.3712 O.3       1 RES1    0.0000
      6 O5         1.0620   11.8879    9.7921 O.3       1 RES1    0.0000
      7 O6         3.2185   11.2407    9.8222 O.3       1 RES1    0.0000
      8 O7         5.7077   11.8919   11.2756 O.2       1 RES1    0.0000
      9 O8         4.0223   12.5576   12.4534 O.2       1 RES1    0.0000
     10 C1         2.2568    8.7394   12.5219 C.3       1 RES1    0.0000
     11 H1         2.9763    8.3351   13.0501 H         1 RES1    0.0000
     12 C2         4.3192   10.2119   12.2398 C.3       1 RES1    0.0000
     13 C3         2.8123   10.0561   11.9064 C.3       1 RES1    0.0000
     14 H2         2.3449   10.7961   12.3467 H         1 RES1    0.0000
     15 C4         2.4961   10.1570   10.4007 C.3       1 RES1    0.0000
     16 H3         2.7354    9.3186    9.9523 H         1 RES1    0.0000
     17 C5         1.0204   10.5036   10.1181 C.3       1 RES1    0.0000
     18 H4         0.6755    9.9803    9.3763 H         1 RES1    0.0000
     19 H5         0.4690   10.3449   10.9012 H         1 RES1    0.0000
     20 C6         2.3001   12.1094    9.1459 C.3       1 RES1    0.0000
     21 C7         5.2140    9.2815   11.4591 C.3       1 RES1    0.0000
     22 H6         5.0851    9.4266   10.5191 H         1 RES1    0.0000
     23 H7         4.9955    8.3711   11.6747 H         1 RES1    0.0000
     24 H8         6.1311    9.4525   11.6877 H         1 RES1    0.0000
     25 C8         4.5881   10.1300   13.7536 C.3       1 RES1    0.0000
     26 H9         4.4817    9.2230   14.0488 H         1 RES1    0.0000
     27 H10        3.9663   10.6937   14.2205 H         1 RES1    0.0000
     28 H11        5.4845   10.4225   13.9362 H         1 RES1    0.0000
     29 C9         1.0708    8.9558   13.4538 C.2       1 RES1    0.0000
     30 C10       -0.3545    7.7713   14.9368 C.3       1 RES1    0.0000
     31 H12       -0.2033    7.1243   15.6291 H         1 RES1    0.0000
     32 H13       -1.1356    7.5271   14.4347 H         1 RES1    0.0000
     33 H14       -0.4850    8.6367   15.3319 H         1 RES1    0.0000
     34 C11        1.7767    7.6879   11.5169 C.2       1 RES1    0.0000
     35 C12        2.2793    5.6017   10.5344 C.3       1 RES1    0.0000
     36 H15        2.4465    5.8122    9.6126 H         1 RES1    0.0000
     37 H16        1.3429    5.4318   10.6594 H         1 RES1    0.0000
     38 H17        2.7810    4.8208   10.7812 H         1 RES1    0.0000
     39 C13        2.2256   11.7324    7.6794 C.3       1 RES1    0.0000
     40 H18        1.9127   10.8288    7.5967 H         1 RES1    0.0000
     41 H19        3.0980   11.8055    7.2847 H         1 RES1    0.0000
     42 H20        1.6190   12.3232    7.2275 H         1 RES1    0.0000
     43 C14        2.7322   13.5317    9.3715 C.3       1 RES1    0.0000
     44 H21        2.0896   14.1270    8.9776 H         1 RES1    0.0000
     45 H22        3.5901   13.6735    8.9665 H         1 RES1    0.0000
     46 H23        2.7906   13.7028   10.3142 H         1 RES1    0.0000
@<TRIPOS>BOND
     1    1    8 2
     2    2   29 2
     3    3   29 1
     4    4   34 2
     5    5   34 1
     6    6   17 1
     7    7   15 1
     8    9    1 2
     9   10   11 1
    10   12    1 1
    11   13   10 1
    12   14   13 1
    13   15   13 1
    14   16   15 1
    15   17   15 1
    16   18   17 1
    17   19   17 1
    18   20    6 1
    19   21   12 1
    20   22   21 1
    21   23   21 1
    22   24   21 1
    23   25   12 1
    24   26   25 1
    25   27   25 1
    26   28   25 1
    27   29   10 1
    28   30    3 1
    29   31   30 1
    30   32   30 1
    31   33   30 1
    32   34   10 1
    33   35    5 1
    34   36   35 1
    35   37   35 1
    36   38   35 1
    37   39   20 1
    38   40   39 1
    39   41   39 1
    40   42   39 1
    41   43   20 1
    42   44   43 1
    43   45   43 1
    44   46   43 1
    45    7   20 1
    46   12   13 1
@<TRIPOS>SUBSTRUCTURE
     1 RES1 1

@<TRIPOS>CRYSIN
   8.0030   11.2530   18.4610  90.0000  90.0000  90.0000  19 1

