# MOL2 file generated by ConQuest
# Please check atom types

@<TRIPOS>MOLECULE
NPASPG
    31    31     1
SMALL
NO_CHARGES
****
Generated from CSD

@<TRIPOS>ATOM
      1 C1        -2.1680    2.8065   -3.4774 C.ar      1 RES1    0.0000
      2 C2        -3.0031    2.5164   -2.3666 C.ar      1 RES1    0.0000
      3 C3        -3.9350    1.5117   -2.4080 C.ar      1 RES1    0.0000
      4 C4        -4.0527    0.7306   -3.5515 C.ar      1 RES1    0.0000
      5 C5        -3.2607    0.9337   -4.6504 C.ar      1 RES1    0.0000
      6 C6        -2.3181    1.9544   -4.6111 C.ar      1 RES1    0.0000
      7 C7        -1.3409    4.9575   -2.4985 C.3       1 RES1    0.0000
      8 C8        -0.3694    4.6846   -1.3408 C.2       1 RES1    0.0000
      9 C9        -1.1219    6.2877   -3.2027 C.3       1 RES1    0.0000
     10 C10        0.1929    6.4284   -3.9385 C.2       1 RES1    0.0000
     11 N1        -1.3141    3.8497   -3.4567 N.3       1 RES1    0.0000
     12 N2        -5.0630   -0.3116   -3.6006 N.pl3     1 RES1    0.0000
     13 N3        -1.5305    2.1339   -5.8168 N.pl3     1 RES1    0.0000
     14 N4         0.7544    7.6168   -3.9571 N.am      1 RES1    0.0000
     15 O1        -5.8884   -0.3793   -2.7056 O.2       1 RES1    0.0000
     16 O2        -5.0349   -1.0906   -4.5512 O.2       1 RES1    0.0000
     17 O3        -1.8974    1.5665   -6.8447 O.2       1 RES1    0.0000
     18 O4        -0.5315    2.8527   -5.7775 O.2       1 RES1    0.0000
     19 O5        -0.3457    3.6241   -0.7489 O.2       1 RES1    0.0000
     20 O6         0.3921    5.7171   -1.0443 O.3       1 RES1    0.0000
     21 O7         0.6828    5.4496   -4.5261 O.2       1 RES1    0.0000
     22 H1        -2.8952    3.0998   -1.4825 H         1 RES1    0.0000
     23 H2        -4.4712    1.3785   -1.7093 H         1 RES1    0.0000
     24 H3        -3.3371    0.3868   -5.5268 H         1 RES1    0.0000
     25 H4        -0.7536    3.9207   -4.0334 H         1 RES1    0.0000
     26 H5        -2.2704    5.0574   -2.0570 H         1 RES1    0.0000
     27 H6         0.8620    5.5517   -0.4524 H         1 RES1    0.0000
     28 H7        -1.8263    6.3564   -3.8143 H         1 RES1    0.0000
     29 H8        -1.2637    6.9882   -2.5094 H         1 RES1    0.0000
     30 H9         1.6707    7.6769   -4.3855 H         1 RES1    0.0000
     31 H10        0.3320    8.2700   -3.6943 H         1 RES1    0.0000
@<TRIPOS>BOND
     1    1    2 ar
     2    2    3 ar
     3    3    4 ar
     4    4    5 ar
     5    5    6 ar
     6    6    1 ar
     7    7    8 1
     8    8   19 2
     9    9    7 1
    10   10    9 1
    11   11    1 1
    12   12    4 1
    13   13    6 1
    14   14   10 1
    15   15   12 2
    16   16   12 2
    17   17   13 2
    18   18   13 2
    19   20    8 1
    20   21   10 2
    21   22    2 1
    22   23    3 1
    23   24    5 1
    24   25   11 1
    25   26    7 1
    26   27   20 1
    27   28    9 1
    28   29    9 1
    29   30   14 1
    30   31   14 1
    31    7   11 1
@<TRIPOS>SUBSTRUCTURE
     1 RES1 1

@<TRIPOS>CRYSIN
   5.1880   11.0280   10.9010  90.0000  90.0000 103.0200   4 3

