# MOL2 file generated by ConQuest
# Please check atom types

@<TRIPOS>MOLECULE
NPBDXY01
    19    20     1
SMALL
NO_CHARGES
****
Generated from CSD

@<TRIPOS>ATOM
      1 O1         0.1807    1.1946   14.7061 O.3       1 RES1    0.0000
      2 O2         1.1148    1.8371   17.2773 O.3       1 RES1    0.0000
      3 O3         2.8531    4.1697   17.2659 O.3       1 RES1    0.0000
      4 O4         1.4679    6.3763   15.8738 O.3       1 RES1    0.0000
      5 O5         0.5794    3.3447   14.0101 O.3       1 RES1    0.0000
      6 O6        -4.6746   -0.1469   10.9855 O.2       1 RES1    0.0000
      7 O7        -4.5524   -1.9411   12.1738 O.2       1 RES1    0.0000
      8 N1        -4.1657   -0.8168   11.8807 N.pl3     1 RES1    0.0000
      9 C1         0.2616    2.5407   15.1182 C.3       1 RES1    0.0000
     10 C2         1.4023    2.6128   16.1188 C.3       1 RES1    0.0000
     11 C3         1.5935    4.0483   16.5584 C.3       1 RES1    0.0000
     12 C4         1.6210    5.0385   15.4136 C.3       1 RES1    0.0000
     13 C5         0.5436    4.7191   14.3856 C.3       1 RES1    0.0000
     14 C6        -0.9419    0.7867   14.0124 C.ar      1 RES1    0.0000
     15 C7        -1.7449    1.6354   13.2843 C.ar      1 RES1    0.0000
     16 C8        -2.8151    1.1042   12.5653 C.ar      1 RES1    0.0000
     17 C9        -3.0443   -0.2501   12.6271 C.ar      1 RES1    0.0000
     18 C10       -2.2489   -1.1070   13.3713 C.ar      1 RES1    0.0000
     19 C11       -1.1749   -0.5832   14.0581 C.ar      1 RES1    0.0000
@<TRIPOS>BOND
     1    1    9 1
     2    2   10 1
     3    3   11 1
     4    4   12 1
     5    5    9 1
     6    6    8 2
     7    7    8 2
     8    8   17 1
     9    9   10 1
    10   10   11 1
    11   11   12 1
    12   12   13 1
    13   13    5 1
    14   14    1 1
    15   15   14 ar
    16   16   15 ar
    17   17   16 ar
    18   18   17 ar
    19   19   14 ar
    20   18   19 ar
@<TRIPOS>SUBSTRUCTURE
     1 RES1 1

@<TRIPOS>CRYSIN
   5.5080    9.1260   22.8960  90.0000  90.0000  90.0000  19 1

