# MOL2 file generated by ConQuest
# Please check atom types

@<TRIPOS>MOLECULE
NPBUDO
    22    22     1
SMALL
NO_CHARGES
****
Generated from CSD

@<TRIPOS>ATOM
      1 C1         0.0912   -1.0737    8.6609 C.ar      1 RES1    0.0000
      2 C2         1.8234   -0.6230    3.9264 C.3       1 RES1    0.0000
      3 C3         0.2867    0.2575    9.0090 C.ar      1 RES1    0.0000
      4 C4        -0.0877    0.7404   10.2431 C.ar      1 RES1    0.0000
      5 C5        -0.6839   -0.1516   11.1219 C.ar      1 RES1    0.0000
      6 C6        -0.9119   -1.4860   10.8273 C.ar      1 RES1    0.0000
      7 C7        -0.4876   -1.9273    9.5834 C.ar      1 RES1    0.0000
      8 C8         0.5193   -1.6064    7.3513 C.2       1 RES1    0.0000
      9 C9         0.9733   -0.8639    6.2997 C.2       1 RES1    0.0000
     10 C10        1.3775   -1.4382    5.0899 C.2       1 RES1    0.0000
     11 H1         1.5224   -0.9138    2.9210 H         1 RES1    0.0000
     12 H2         2.5657   -1.0384    3.5783 H         1 RES1    0.0000
     13 H3         0.5873    0.9346    8.3736 H         1 RES1    0.0000
     14 H4        -0.0348    1.8587   10.5157 H         1 RES1    0.0000
     15 H5        -1.4104   -2.2014   11.4651 H         1 RES1    0.0000
     16 H6        -0.6414   -2.7206    9.3960 H         1 RES1    0.0000
     17 H7         1.0471    0.0727    6.3776 H         1 RES1    0.0000
     18 N1        -1.1113    0.3396   12.4485 N.pl3     1 RES1    0.0000
     19 O1         0.4652   -2.9106    7.2369 O.3       1 RES1    0.0000
     20 O2         1.3837   -2.7258    4.9633 O.2       1 RES1    0.0000
     21 O3        -0.8196    1.4766   12.7820 O.2       1 RES1    0.0000
     22 O4        -1.7477   -0.4071   13.1739 O.2       1 RES1    0.0000
@<TRIPOS>BOND
     1    1    3 ar
     2    2   10 1
     3    3    4 ar
     4    4    5 ar
     5    5    6 ar
     6    6    7 ar
     7    7    1 ar
     8    8    1 1
     9    9    8 2
    10   10    9 1
    11   11    2 1
    12   12    2 1
    13   13    3 1
    14   14    4 1
    15   15    6 1
    16   16    7 1
    17   17    9 1
    18   18    5 1
    19   19    8 1
    20   20   10 2
    21   21   18 2
    22   22   18 2
@<TRIPOS>SUBSTRUCTURE
     1 RES1 1

@<TRIPOS>CRYSIN
   3.8640   10.3840   24.3420  90.0000  90.0000  90.0000  19 1

