# MOL2 file generated by ConQuest
# Please check atom types

@<TRIPOS>MOLECULE
NPBUDY
    30    31     1
SMALL
NO_CHARGES
****
Generated from CSD

@<TRIPOS>ATOM
      1 O1         1.0738    0.0000    8.1025 O.2       1 RES1    0.0000
      2 N1         0.0000    0.0000    7.5266 N.pl3     1 RES1    0.0000
      3 C1         0.0000    0.0000    0.6857 C.1       1 RES1    0.0000
      4 C2         0.0000    0.0000    1.8803 C.1       1 RES1    0.0000
      5 C3         0.0000    0.0000    3.3160 C.ar      1 RES1    0.0000
      6 C4         1.1993    0.0000    4.0151 C.ar      1 RES1    0.0000
      7 C5         1.1986    0.0000    5.3918 C.ar      1 RES1    0.0000
      8 C6         0.0000    0.0000    6.0534 C.ar      1 RES1    0.0000
      9 H1         2.0371    0.0000    3.5222 H         1 RES1    0.0000
     10 H2         2.0371    0.0000    5.8740 H         1 RES1    0.0000
     11 O1A       -1.0738    0.0000    8.1025 O.2       1 RES1    0.0000
     12 C1B       -0.0000   -0.0000   -0.6857 C.1       1 RES1    0.0000
     13 C2B       -0.0000   -0.0000   -1.8803 C.1       1 RES1    0.0000
     14 C3B       -0.0000   -0.0000   -3.3160 C.ar      1 RES1    0.0000
     15 C4B       -0.0000    1.1993   -4.0151 C.ar      1 RES1    0.0000
     16 C5B       -0.0000    1.1986   -5.3918 C.ar      1 RES1    0.0000
     17 C6B       -0.0000   -0.0000   -6.0534 C.ar      1 RES1    0.0000
     18 N1B       -0.0000   -0.0000   -7.5266 N.pl3     1 RES1    0.0000
     19 O1B       -0.0000    1.0738   -8.1025 O.2       1 RES1    0.0000
     20 O1G       -0.0000   -1.0738   -8.1025 O.2       1 RES1    0.0000
     21 C5G       -0.0000   -1.1986   -5.3918 C.ar      1 RES1    0.0000
     22 C4G       -0.0000   -1.1993   -4.0151 C.ar      1 RES1    0.0000
     23 H1G       -0.0000   -2.0371   -3.5222 H         1 RES1    0.0000
     24 H2G       -0.0000   -2.0371   -5.8740 H         1 RES1    0.0000
     25 H2B       -0.0000    2.0371   -5.8740 H         1 RES1    0.0000
     26 H1B       -0.0000    2.0371   -3.5222 H         1 RES1    0.0000
     27 C4A       -1.1993    0.0000    4.0151 C.ar      1 RES1    0.0000
     28 C5A       -1.1986    0.0000    5.3918 C.ar      1 RES1    0.0000
     29 H2A       -2.0371    0.0000    5.8740 H         1 RES1    0.0000
     30 H1A       -2.0371    0.0000    3.5222 H         1 RES1    0.0000
@<TRIPOS>BOND
     1    1    2 2
     2    2    8 1
     3    3    4 3
     4    4    5 1
     5    5    6 ar
     6    6    7 ar
     7    7    8 ar
     8    8   28 ar
     9    9    6 1
    10   10    7 1
    11   11    2 2
    12   12    3 1
    13   13   12 3
    14   14   13 1
    15   15   14 ar
    16   16   15 ar
    17   17   16 ar
    18   18   17 1
    19   19   18 2
    20   20   18 2
    21   21   17 ar
    22   22   14 ar
    23   23   22 1
    24   24   21 1
    25   25   16 1
    26   26   15 1
    27   27    5 ar
    28   28   27 ar
    29   29   28 1
    30   30   27 1
    31   21   22 ar
@<TRIPOS>SUBSTRUCTURE
     1 RES1 1

@<TRIPOS>CRYSIN
   7.0880    7.0880   26.7850  90.0000  90.0000  90.0000 141 1

