# MOL2 file generated by ConQuest
# Please check atom types

@<TRIPOS>MOLECULE
NPCMPZ
    35    37     1
SMALL
NO_CHARGES
****
Generated from CSD

@<TRIPOS>ATOM
      1 C1        -7.2273    2.3503    2.1341 C.ar      1 RES1    0.0000
      2 C2        -7.8051    3.1197    3.1023 C.ar      1 RES1    0.0000
      3 C3        -9.2088    3.1455    3.2563 C.ar      1 RES1    0.0000
      4 C4        -9.9669    2.3689    2.4020 C.ar      1 RES1    0.0000
      5 C5        -9.4179    1.6284    1.4137 C.ar      1 RES1    0.0000
      6 C6        -8.0435    1.5965    1.2904 C.ar      1 RES1    0.0000
      7 C7        -4.2340    3.6570    3.6723 C.ar      1 RES1    0.0000
      8 C8        -4.6837    4.2500    4.8371 C.ar      1 RES1    0.0000
      9 C9        -4.1405    5.4236    5.3087 C.ar      1 RES1    0.0000
     10 C10       -3.1226    6.0094    4.5882 C.ar      1 RES1    0.0000
     11 C11       -2.6316    5.4370    3.4222 C.ar      1 RES1    0.0000
     12 C12       -3.1608    4.2582    2.9790 C.ar      1 RES1    0.0000
     13 C13       -3.6461    0.2733    4.1261 C.3       1 RES1    0.0000
     14 C14       -5.7336    2.3452    1.9280 C.3       1 RES1    0.0000
     15 C15       -4.8734    2.3472    3.2077 C.3       1 RES1    0.0000
     16 C16       -3.8536    1.2303    2.9423 C.3       1 RES1    0.0000
     17 C17       -5.2652    3.4280    0.9515 C.2       1 RES1    0.0000
     18 C18       -5.4798    5.6845    0.2998 C.3       1 RES1    0.0000
     19 H1        -5.6067    2.1420    4.0669 H         1 RES1    0.0000
     20 H2        -2.8750    1.5995    2.5050 H         1 RES1    0.0000
     21 H3        -7.2329    3.7312    3.6012 H         1 RES1    0.0000
     22 H4        -9.5253    3.8715    3.9756 H         1 RES1    0.0000
     23 H5       -10.8394    2.2245    2.4920 H         1 RES1    0.0000
     24 H6        -9.7875    0.9251    0.6743 H         1 RES1    0.0000
     25 H7        -5.3958    3.8467    5.4296 H         1 RES1    0.0000
     26 H8        -4.3951    5.8671    6.0955 H         1 RES1    0.0000
     27 H9        -1.8915    5.8733    3.0359 H         1 RES1    0.0000
     28 H10       -2.7911    3.6487    2.2313 H         1 RES1    0.0000
     29 N1        -4.3828    0.4692    1.7787 N.2       1 RES1    0.0000
     30 N2        -5.3556    1.0210    1.2502 N.2       1 RES1    0.0000
     31 N3        -2.5216    7.2573    5.0729 N.pl3     1 RES1    0.0000
     32 O1        -1.5624    7.7141    4.4757 O.2       1 RES1    0.0000
     33 O2        -3.0100    7.7739    6.0517 O.2       1 RES1    0.0000
     34 O3        -4.3699    3.2775    0.1659 O.2       1 RES1    0.0000
     35 O4        -5.9274    4.5583    1.1257 O.3       1 RES1    0.0000
@<TRIPOS>BOND
     1    1    2 ar
     2    2    3 ar
     3    3    4 ar
     4    4    5 ar
     5    5    6 ar
     6    6    1 ar
     7    7    8 ar
     8    8    9 ar
     9    9   10 ar
    10   10   11 ar
    11   11   12 ar
    12   12    7 ar
    13   13   16 1
    14   14    1 1
    15   15    7 1
    16   16   15 1
    17   17   14 1
    18   18   35 1
    19   19   15 1
    20   20   16 1
    21   21    2 1
    22   22    3 1
    23   23    4 1
    24   24    5 1
    25   25    8 1
    26   26    9 1
    27   27   11 1
    28   28   12 1
    29   29   16 1
    30   30   14 1
    31   31   10 1
    32   32   31 2
    33   33   31 2
    34   34   17 2
    35   35   17 1
    36   14   15 1
    37   29   30 2
@<TRIPOS>SUBSTRUCTURE
     1 RES1 1

@<TRIPOS>CRYSIN
  14.6040   10.3130   12.6810  90.0000 110.8600  90.0000  14 1

