# MOL2 file generated by ConQuest
# Please check atom types

@<TRIPOS>MOLECULE
NPCPMK
    15    16     1
SMALL
NO_CHARGES
****
Generated from CSD

@<TRIPOS>ATOM
      1 C10        5.0092  -11.5009   -5.6509 C.3       1 RES1    0.0000
      2 C11        5.5730  -12.8568   -5.5213 C.3       1 RES1    0.0000
      3 C12        4.2617  -12.6934   -6.2060 C.3       1 RES1    0.0000
      4 C13        4.1835  -12.8605   -7.6634 C.2       1 RES1    0.0000
      5 C15        2.9114  -13.2681   -8.2411 C.3       1 RES1    0.0000
      6 C4         3.5611   -9.2097   -2.3655 C.ar      1 RES1    0.0000
      7 C5         4.1694   -8.5787   -3.4376 C.ar      1 RES1    0.0000
      8 C6         4.6138   -9.3600   -4.4865 C.ar      1 RES1    0.0000
      9 C7         4.4773  -10.7159   -4.4872 C.ar      1 RES1    0.0000
     10 C8         3.8677  -11.3337   -3.3960 C.ar      1 RES1    0.0000
     11 C9         3.3951  -10.5844   -2.3373 C.ar      1 RES1    0.0000
     12 N3         3.0710   -8.3909   -1.2405 N.pl3     1 RES1    0.0000
     13 O1         2.4307   -8.9581   -0.3480 O.2       1 RES1    0.0000
     14 O14        5.1693  -12.6615   -8.3798 O.2       1 RES1    0.0000
     15 O2         3.3207   -7.2021   -1.2384 O.2       1 RES1    0.0000
@<TRIPOS>BOND
     1    1    2 1
     2    2    3 1
     3    3    1 1
     4    4    3 1
     5    5    4 1
     6    6    7 ar
     7    7    8 ar
     8    8    9 ar
     9    9    1 1
    10   10    9 ar
    11   11    6 ar
    12   12    6 1
    13   13   12 2
    14   14    4 2
    15   15   12 2
    16   10   11 ar
@<TRIPOS>SUBSTRUCTURE
     1 RES1 1

@<TRIPOS>CRYSIN
   7.9170   18.7800    8.2520  90.0000 121.3900  90.0000  14 1

