# MOL2 file generated by ConQuest
# Please check atom types

@<TRIPOS>MOLECULE
NPHDZB01
    27    27     1
SMALL
NO_CHARGES
****
Generated from CSD

@<TRIPOS>ATOM
      1 O1         5.2675    3.0734    4.2204 O.2       1 RES1    0.0000
      2 O2         3.9408    1.5534    4.9440 O.2       1 RES1    0.0000
      3 O3         0.3066    2.6029    7.7886 O.2       1 RES1    0.0000
      4 O4        -0.0973    4.5543    8.3614 O.2       1 RES1    0.0000
      5 N1         4.2690    2.7138    4.8576 N.pl3     1 RES1    0.0000
      6 N2         0.5858    3.7916    7.7091 N.pl3     1 RES1    0.0000
      7 N3         1.1627    6.6779    7.3438 N.pl3     1 RES1    0.0000
      8 H1         0.5598    6.5164    7.8621 H         1 RES1    0.0000
      9 N4         1.5525    8.0054    7.1527 N.2       1 RES1    0.0000
     10 C1         3.4891    3.7133    5.5095 C.ar      1 RES1    0.0000
     11 C2         2.4056    3.3426    6.2865 C.ar      1 RES1    0.0000
     12 H2         2.1699    2.4695    6.3557 H         1 RES1    0.0000
     13 C3         1.6411    4.2949    6.9377 C.ar      1 RES1    0.0000
     14 C4         1.8956    5.6889    6.8012 C.ar      1 RES1    0.0000
     15 C5         3.0283    6.0443    5.9683 C.ar      1 RES1    0.0000
     16 H3         3.2298    6.8502    5.8766 H         1 RES1    0.0000
     17 C6         3.7881    5.0761    5.3454 C.ar      1 RES1    0.0000
     18 H4         4.4980    5.3305    4.7978 H         1 RES1    0.0000
     19 C7         0.6864    8.8431    7.5257 C.2       1 RES1    0.0000
     20 H5        -0.1209    8.6002    7.7361 H         1 RES1    0.0000
     21 C8         0.9558   10.3191    7.4132 C.3       1 RES1    0.0000
     22 H6         0.2712   10.7071    6.8685 H         1 RES1    0.0000
     23 H7         0.7107   10.6495    8.2560 H         1 RES1    0.0000
     24 C9         2.3088   10.6553    6.9483 C.3       1 RES1    0.0000
     25 H8         2.4173   11.5475    6.8010 H         1 RES1    0.0000
     26 H9         2.5166   10.2235    6.0523 H         1 RES1    0.0000
     27 H10        3.0356   10.2351    7.5622 H         1 RES1    0.0000
@<TRIPOS>BOND
     1    1    5 2
     2    2    5 2
     3    3    6 2
     4    4    6 2
     5    5   10 1
     6    6   13 1
     7    7    8 1
     8    9    7 1
     9   10   11 ar
    10   11   12 1
    11   13   11 ar
    12   14    7 1
    13   15   14 ar
    14   16   15 1
    15   17   10 ar
    16   18   17 1
    17   19    9 2
    18   20   19 1
    19   21   19 1
    20   22   21 1
    21   23   21 1
    22   24   21 1
    23   25   24 1
    24   26   24 1
    25   27   24 1
    26   13   14 ar
    27   15   17 ar
@<TRIPOS>SUBSTRUCTURE
     1 RES1 1

@<TRIPOS>CRYSIN
   5.3235   11.5130   17.8150  90.0000  95.1400  90.0000  14 1

