# MOL2 file generated by ConQuest
# Please check atom types

@<TRIPOS>MOLECULE
NPHDZB
    27    27     1
SMALL
NO_CHARGES
****
Generated from CSD

@<TRIPOS>ATOM
      1 C1         1.0851    2.0115    3.3174 C.ar      1 RES1    0.0000
      2 C2         2.1515    2.3918    2.5463 C.ar      1 RES1    0.0000
      3 C3         2.8946    1.4429    1.9216 C.ar      1 RES1    0.0000
      4 C4         2.6148    0.0563    2.0663 C.ar      1 RES1    0.0000
      5 C5         1.5000   -0.2792    2.8851 C.ar      1 RES1    0.0000
      6 C6         0.7619    0.6720    3.5009 C.ar      1 RES1    0.0000
      7 N1         0.2680    3.0236    3.9897 N.pl3     1 RES1    0.0000
      8 O1         0.6134    4.2207    3.8873 O.2       1 RES1    0.0000
      9 O2        -0.7263    2.6790    4.6196 O.2       1 RES1    0.0000
     10 N2         3.9726    1.9323    1.1205 N.pl3     1 RES1    0.0000
     11 O3         4.2000    3.1408    1.0817 O.2       1 RES1    0.0000
     12 O4         4.6582    1.1097    0.4958 O.2       1 RES1    0.0000
     13 N3         3.3560   -0.9053    1.5246 N.3       1 RES1    0.0000
     14 N4         2.9949   -2.2356    1.7081 N.2       1 RES1    0.0000
     15 C7         3.8290   -3.0822    1.3234 C.2       1 RES1    0.0000
     16 C8         3.6006   -4.5424    1.4469 C.3       1 RES1    0.0000
     17 C9         2.2584   -4.9019    1.9340 C.3       1 RES1    0.0000
     18 H1         2.3948    3.4349    2.4351 H         1 RES1    0.0000
     19 H2         1.2399   -1.3211    3.0174 H         1 RES1    0.0000
     20 H3        -0.0641    0.3906    4.1467 H         1 RES1    0.0000
     21 H4         4.0848   -0.6663    0.9176 H         1 RES1    0.0000
     22 H5         4.7530   -2.7341    0.8999 H         1 RES1    0.0000
     23 H6         3.7447   -4.9858    0.4764 H         1 RES1    0.0000
     24 H7         4.3249   -4.9398    2.1351 H         1 RES1    0.0000
     25 H8         2.1187   -5.9738    1.9940 H         1 RES1    0.0000
     26 H9         1.4636   -4.5148    1.2528 H         1 RES1    0.0000
     27 H10        2.0491   -4.4803    2.9115 H         1 RES1    0.0000
@<TRIPOS>BOND
     1    1    2 ar
     2    2    3 ar
     3    3    4 ar
     4    4    5 ar
     5    5    6 ar
     6    6    1 ar
     7    7    1 1
     8    8    7 2
     9    9    7 2
    10   10    3 1
    11   11   10 2
    12   12   10 2
    13   13    4 1
    14   14   13 1
    15   15   14 2
    16   16   15 1
    17   17   16 1
    18   18    2 1
    19   19    5 1
    20   20    6 1
    21   21   13 1
    22   22   15 1
    23   23   16 1
    24   24   16 1
    25   25   17 1
    26   26   17 1
    27   27   17 1
@<TRIPOS>SUBSTRUCTURE
     1 RES1 1

@<TRIPOS>CRYSIN
   5.3330   11.4880   17.7130  90.0000  95.0000  90.0000  14 1

