# MOL2 file generated by ConQuest
# Please check atom types

@<TRIPOS>MOLECULE
NPHOAC
    20    20     1
SMALL
NO_CHARGES
****
Generated from CSD

@<TRIPOS>ATOM
      1 O1        -0.0536    0.0110    1.9761 O.2       1 RES1    0.0000
      2 O2         1.6306    1.0603    1.1788 O.2       1 RES1    0.0000
      3 N1         0.9909    0.6092    2.1187 N.pl3     1 RES1    0.0000
      4 C1         1.5205    0.8320    3.4280 C.ar      1 RES1    0.0000
      5 C2         0.7932    0.3920    4.5105 C.ar      1 RES1    0.0000
      6 C3         1.2855    0.6099    5.7521 C.ar      1 RES1    0.0000
      7 C4         2.5401    1.2229    5.9225 C.ar      1 RES1    0.0000
      8 C5         3.2708    1.6260    4.8549 C.ar      1 RES1    0.0000
      9 C6         2.7685    1.4243    3.5884 C.ar      1 RES1    0.0000
     10 O3         2.9302    1.3779    7.2047 O.3       1 RES1    0.0000
     11 C7         4.2024    1.9367    7.4500 C.3       1 RES1    0.0000
     12 C8         4.4158    2.1553    8.8948 C.2       1 RES1    0.0000
     13 O4         3.5586    1.7571    9.7135 O.co2     1 RES1    0.0000
     14 O5         5.4984    2.7435    9.2057 O.co2     1 RES1    0.0000
     15 H1        -0.0494    0.0739    4.2274 H         1 RES1    0.0000
     16 H2         0.7267    0.3723    6.3226 H         1 RES1    0.0000
     17 H3         4.1587    1.7530    4.8278 H         1 RES1    0.0000
     18 H4         3.2994    1.5626    2.6172 H         1 RES1    0.0000
     19 H5         4.9913    1.4005    7.2090 H         1 RES1    0.0000
     20 H6         4.3723    2.7375    7.0542 H         1 RES1    0.0000
@<TRIPOS>BOND
     1    1    3 2
     2    2    3 2
     3    3    4 1
     4    4    5 ar
     5    5    6 ar
     6    6    7 ar
     7    7    8 ar
     8    8    9 ar
     9    9    4 ar
    10   10    7 1
    11   11   10 1
    12   12   11 1
    13   13   12 2
    14   14   12 1
    15   15    5 1
    16   16    6 1
    17   17    8 1
    18   18    9 1
    19   19   11 1
    20   20   11 1
@<TRIPOS>SUBSTRUCTURE
     1 RES1 1

@<TRIPOS>CRYSIN
   8.2830    6.9600    7.5530  95.7120 108.5280  87.7460   2 1

