# MOL2 file generated by ConQuest
# Please check atom types

@<TRIPOS>MOLECULE
NPHOPN
    57    60     1
SMALL
NO_CHARGES
****
Generated from CSD

@<TRIPOS>ATOM
      1 C1        19.6971   22.2067    0.2956 C.3       1 RES1    0.0000
      2 C2        19.3323   22.1149   -1.2027 C.3       1 RES1    0.0000
      3 C3        20.6549   21.0493    0.6312 C.3       1 RES1    0.0000
      4 C4        18.3718   22.1070    1.0775 C.ar      1 RES1    0.0000
      5 C5        18.0472   21.0230    1.8600 C.ar      1 RES1    0.0000
      6 C6        16.7675   20.8787    2.3968 C.ar      1 RES1    0.0000
      7 C7        15.8393   21.8393    2.1602 C.ar      1 RES1    0.0000
      8 C8        16.1478   22.9705    1.4379 C.ar      1 RES1    0.0000
      9 C9        17.4141   23.1017    0.9169 C.ar      1 RES1    0.0000
     10 C10       20.4349   23.5164    0.5931 C.ar      1 RES1    0.0000
     11 C11       21.2719   24.0886   -0.3506 C.ar      1 RES1    0.0000
     12 C12       22.0070   25.2277   -0.0760 C.ar      1 RES1    0.0000
     13 C13       21.9212   25.7841    1.1627 C.ar      1 RES1    0.0000
     14 C14       21.1136   25.2670    2.1314 C.ar      1 RES1    0.0000
     15 C15       20.3785   24.1253    1.8463 C.ar      1 RES1    0.0000
     16 C16       13.4864   21.6241    1.8115 C.ar      1 RES1    0.0000
     17 C17       13.6313   21.1359    0.5224 C.ar      1 RES1    0.0000
     18 C18       12.5340   21.0440   -0.2897 C.ar      1 RES1    0.0000
     19 C19       11.3134   21.4377    0.2006 C.ar      1 RES1    0.0000
     20 C20       11.1551   21.9102    1.4864 C.ar      1 RES1    0.0000
     21 C21       12.2523   22.0046    2.2978 C.ar      1 RES1    0.0000
     22 C22       23.9842   26.9441    1.4753 C.ar      1 RES1    0.0000
     23 C23       24.7193   25.7841    1.5592 C.ar      1 RES1    0.0000
     24 C24       26.0902   25.8444    1.6306 C.ar      1 RES1    0.0000
     25 C25       26.6992   27.0780    1.6326 C.ar      1 RES1    0.0000
     26 C26       25.9722   28.2433    1.5428 C.ar      1 RES1    0.0000
     27 C27       24.6013   28.1803    1.4635 C.ar      1 RES1    0.0000
     28 N1        10.1383   21.3511   -0.6757 N.pl3     1 RES1    0.0000
     29 N2        28.1640   27.1541    1.7204 N.pl3     1 RES1    0.0000
     30 O1        14.5408   21.6897    2.6989 O.3       1 RES1    0.0000
     31 O2        22.6133   26.9835    1.4517 O.3       1 RES1    0.0000
     32 O3         9.0679   21.7658   -0.2687 O.2       1 RES1    0.0000
     33 O4        28.6818   28.2696    1.7401 O.2       1 RES1    0.0000
     34 O5        10.2912   20.8944   -1.8063 O.2       1 RES1    0.0000
     35 O6        28.7999   26.1121    1.7886 O.2       1 RES1    0.0000
     36 H1        20.1612   21.8918   -1.8102 H         1 RES1    0.0000
     37 H2        18.8681   22.9416   -1.4943 H         1 RES1    0.0000
     38 H3        18.6750   21.3170   -1.3233 H         1 RES1    0.0000
     39 H4        21.4946   21.1464    0.0570 H         1 RES1    0.0000
     40 H5        20.8695   21.0992    1.6097 H         1 RES1    0.0000
     41 H6        20.2229   20.1517    0.3749 H         1 RES1    0.0000
     42 H7        18.7179   20.2488    2.0357 H         1 RES1    0.0000
     43 H8        16.5904   20.0861    2.9559 H         1 RES1    0.0000
     44 H9        15.4637   23.7369    1.3292 H         1 RES1    0.0000
     45 H10       17.6636   23.9442    0.3782 H         1 RES1    0.0000
     46 H11       21.3122   23.7001   -1.2610 H         1 RES1    0.0000
     47 H12       22.6133   25.5951   -0.7799 H         1 RES1    0.0000
     48 H13       21.0868   25.6502    3.0594 H         1 RES1    0.0000
     49 H14       19.7857   23.7369    2.5574 H         1 RES1    0.0000
     50 H15       14.5300   20.8315    0.1704 H         1 RES1    0.0000
     51 H16       12.6065   20.6976   -1.2446 H         1 RES1    0.0000
     52 H17       10.2671   22.1464    1.7991 H         1 RES1    0.0000
     53 H18       12.1048   22.3406    3.2921 H         1 RES1    0.0000
     54 H19       24.3008   24.9127    1.5926 H         1 RES1    0.0000
     55 H20       26.6402   25.0439    1.7139 H         1 RES1    0.0000
     56 H21       26.3988   29.1199    1.5481 H         1 RES1    0.0000
     57 H22       24.0352   29.0281    1.4124 H         1 RES1    0.0000
@<TRIPOS>BOND
     1    1    2 1
     2    2   36 1
     3    3    1 1
     4    4    1 1
     5    5    4 ar
     6    6    5 ar
     7    7    6 ar
     8    8    7 ar
     9    9    4 ar
    10   10    1 1
    11   11   10 ar
    12   12   11 ar
    13   13   12 ar
    14   14   13 ar
    15   15   10 ar
    16   16   17 ar
    17   17   18 ar
    18   18   19 ar
    19   19   20 ar
    20   20   21 ar
    21   21   16 ar
    22   22   23 ar
    23   23   24 ar
    24   24   25 ar
    25   25   26 ar
    26   26   27 ar
    27   27   22 ar
    28   28   19 1
    29   29   25 1
    30   30    7 1
    31   31   13 1
    32   32   28 2
    33   33   29 2
    34   34   28 2
    35   35   29 2
    36   37    2 1
    37   38    2 1
    38   39    3 1
    39   40    3 1
    40   41    3 1
    41   42    5 1
    42   43    6 1
    43   44    8 1
    44   45    9 1
    45   46   11 1
    46   47   12 1
    47   48   14 1
    48   49   15 1
    49   50   17 1
    50   51   18 1
    51   52   20 1
    52   53   21 1
    53   54   23 1
    54   55   24 1
    55   56   26 1
    56   57   27 1
    57    8    9 ar
    58   14   15 ar
    59   16   30 1
    60   22   31 1
@<TRIPOS>SUBSTRUCTURE
     1 RES1 1

@<TRIPOS>CRYSIN
  26.8280   26.2460    6.5540  90.0000  90.0000  90.0000  61 1

