# MOL2 file generated by ConQuest
# Please check atom types

@<TRIPOS>MOLECULE
NPHYAC
    14    14     1
SMALL
NO_CHARGES
****
Generated from CSD

@<TRIPOS>ATOM
      1 C1         8.2890    1.3420    7.8794 C.2       1 RES1    0.0000
      2 C2         9.3787    1.0401    6.8551 C.3       1 RES1    0.0000
      3 C3         8.7057    1.9289    9.2034 C.3       1 RES1    0.0000
      4 C4         4.7650    1.2429    8.0778 C.ar      1 RES1    0.0000
      5 C5         3.7526    1.6938    8.9662 C.ar      1 RES1    0.0000
      6 C6         2.4412    1.4925    8.6298 C.ar      1 RES1    0.0000
      7 C7         1.9901    0.9212    7.4201 C.ar      1 RES1    0.0000
      8 C8         3.0020    0.4961    6.5856 C.ar      1 RES1    0.0000
      9 C9         4.4173    0.6045    6.8939 C.ar      1 RES1    0.0000
     10 N1         7.0884    1.1443    7.5020 N.2       1 RES1    0.0000
     11 N2         6.0537    1.4395    8.4249 N.pl3     1 RES1    0.0000
     12 N3         1.3793    2.0300    9.5247 N.pl3     1 RES1    0.0000
     13 O1         1.7459    2.6130   10.5145 O.2       1 RES1    0.0000
     14 O2         0.1865    1.8459    9.2573 O.2       1 RES1    0.0000
@<TRIPOS>BOND
     1    1    2 1
     2    3    1 1
     3    4    5 ar
     4    5    6 ar
     5    6    7 ar
     6    7    8 ar
     7    8    9 ar
     8    9    4 ar
     9   10    1 2
    10   11    4 1
    11   12    6 1
    12   13   12 2
    13   14   12 2
    14   10   11 1
@<TRIPOS>SUBSTRUCTURE
     1 RES1 1

@<TRIPOS>CRYSIN
  22.9800    3.9000   21.9100  90.0000 100.2000  90.0000  15 1

