# MOL2 file generated by ConQuest
# Please check atom types

@<TRIPOS>MOLECULE
NPIMPY
    21    23     1
SMALL
NO_CHARGES
****
Generated from CSD

@<TRIPOS>ATOM
      1 N1         3.0132    8.7790    5.5250 N.2       1 RES1    0.0000
      2 C1         2.5587    7.7111    4.9576 C.2       1 RES1    0.0000
      3 N2         3.3880    7.1878    3.9791 N.pl3     1 RES1    0.0000
      4 C2         5.6079    8.0874    3.1536 C.ar      1 RES1    0.0000
      5 C3         6.4237    9.1490    3.4291 C.ar      1 RES1    0.0000
      6 C4         6.1043   10.0784    4.3892 C.ar      1 RES1    0.0000
      7 N3         5.0024   10.0541    5.1453 N.ar      1 RES1    0.0000
      8 C5         4.2205    9.0223    4.8838 C.ar      1 RES1    0.0000
      9 C6         4.4743    8.0483    3.9335 C.ar      1 RES1    0.0000
     10 C7         3.1417    6.0933    3.1297 C.ar      1 RES1    0.0000
     11 C8         4.0528    5.0748    3.0700 C.ar      1 RES1    0.0000
     12 C9         3.8433    3.9819    2.2499 C.ar      1 RES1    0.0000
     13 C10        2.6881    3.9178    1.5285 C.ar      1 RES1    0.0000
     14 C11        1.7533    4.8988    1.5643 C.ar      1 RES1    0.0000
     15 C12        2.0146    5.9877    2.3465 C.ar      1 RES1    0.0000
     16 N4         2.4905    2.7787    0.6368 N.pl3     1 RES1    0.0000
     17 O1         3.3762    1.9565    0.5489 O.2       1 RES1    0.0000
     18 O2         1.4257    2.7036    0.0673 O.2       1 RES1    0.0000
     19 N5         1.0305    7.0837    2.3052 N.pl3     1 RES1    0.0000
     20 O3         1.4374    8.2181    2.3757 O.2       1 RES1    0.0000
     21 O4        -0.1316    6.7880    2.1989 O.2       1 RES1    0.0000
@<TRIPOS>BOND
     1    1    2 2
     2    2    3 1
     3    3    9 1
     4    4    5 ar
     5    5    6 ar
     6    6    7 ar
     7    7    8 ar
     8    8    1 1
     9    9    4 ar
    10   10    3 1
    11   11   10 ar
    12   12   11 ar
    13   13   12 ar
    14   14   13 ar
    15   15   10 ar
    16   16   13 1
    17   17   16 2
    18   18   16 2
    19   19   15 1
    20   20   19 2
    21   21   19 2
    22    8    9 ar
    23   14   15 ar
@<TRIPOS>SUBSTRUCTURE
     1 RES1 1

@<TRIPOS>CRYSIN
  14.5820    7.8230   11.2910  90.0000 106.1000  90.0000  14 2

