# MOL2 file generated by ConQuest
# Please check atom types

@<TRIPOS>MOLECULE
NPMPRD
    37    38     1
SMALL
NO_CHARGES
****
Generated from CSD

@<TRIPOS>ATOM
      1 C1         4.2426   -0.1661    4.8252 C.3       1 RES1    0.0000
      2 C2         4.5822    0.8177    5.9530 C.3       1 RES1    0.0000
      3 C3         3.6800    0.6971    7.1816 C.3       1 RES1    0.0000
      4 C4         6.5016    3.0894    5.4268 C.3       1 RES1    0.0000
      5 C5         6.0736   -1.5952    7.3215 C.3       1 RES1    0.0000
      6 C6         2.7796   -0.0619    4.4438 C.ar      1 RES1    0.0000
      7 C7         0.9354    1.1337    3.4615 C.ar      1 RES1    0.0000
      8 C8         0.0960    0.1227    3.8786 C.ar      1 RES1    0.0000
      9 C9         0.5427   -0.9936    4.5659 C.ar      1 RES1    0.0000
     10 C10        1.9137   -1.0761    4.8396 C.ar      1 RES1    0.0000
     11 C11        6.6765   -0.2834    6.9381 C.2       1 RES1    0.0000
     12 C12        7.9796    0.1423    7.1288 C.2       1 RES1    0.0000
     13 C13        8.0889    1.4573    6.6300 C.2       1 RES1    0.0000
     14 C14        6.8769    1.8221    6.1265 C.2       1 RES1    0.0000
     15 N1        -1.3400    0.2346    3.5987 N.pl3     1 RES1    0.0000
     16 N2         6.0056    0.7688    6.3090 N.pl3     1 RES1    0.0000
     17 O1        -1.7629    1.2955    3.1617 O.2       1 RES1    0.0000
     18 O2        -2.0444   -0.7449    3.8031 O.2       1 RES1    0.0000
     19 O3         5.0251    0.1455    3.6728 O.3       1 RES1    0.0000
     20 O4         4.0127    1.6907    8.1420 O.3       1 RES1    0.0000
     21 H1         4.4275   -1.2379    5.1243 H         1 RES1    0.0000
     22 H2         4.3936    1.7157    5.6457 H         1 RES1    0.0000
     23 H3         2.7371    0.8687    6.8804 H         1 RES1    0.0000
     24 H4         3.8000   -0.2172    7.6350 H         1 RES1    0.0000
     25 H5         5.8626    3.5400    5.8858 H         1 RES1    0.0000
     26 H6         6.1297    2.9862    4.4726 H         1 RES1    0.0000
     27 H7         6.8624   -2.1718    7.5801 H         1 RES1    0.0000
     28 H8         5.2922   -1.9003    6.6609 H         1 RES1    0.0000
     29 H9         2.8933    1.6723    3.3888 H         1 RES1    0.0000
     30 H10        0.5279    1.8460    2.9566 H         1 RES1    0.0000
     31 H11       -0.2463   -1.7266    4.9734 H         1 RES1    0.0000
     32 H12        2.2911   -1.8352    5.4399 H         1 RES1    0.0000
     33 H13        8.6818   -0.5104    7.7036 H         1 RES1    0.0000
     34 H14        8.8753    2.1284    6.6746 H         1 RES1    0.0000
     35 H15        5.5549    0.0217    3.6700 H         1 RES1    0.0000
     36 H16        3.7679    1.7374    9.1236 H         1 RES1    0.0000
     37 C15        2.2882    1.0316    3.7462 C.ar      1 RES1    0.0000
@<TRIPOS>BOND
     1    1    2 1
     2    2    3 1
     3    3   20 1
     4    4   14 1
     5    5   11 1
     6    6    1 1
     7    7    8 ar
     8    8    9 ar
     9    9   10 ar
    10   10    6 ar
    11   11   12 2
    12   12   13 1
    13   13   14 2
    14   14   16 1
    15   15    8 1
    16   16    2 1
    17   17   15 2
    18   18   15 2
    19   19    1 1
    20   20   36 1
    21   21    1 1
    22   22    2 1
    23   23    3 1
    24   24    3 1
    25   25    4 1
    26   26    4 1
    27   27    5 1
    28   28    5 1
    29   29   37 1
    30   30    7 1
    31   31    9 1
    32   32   10 1
    33   33   12 1
    34   34   13 1
    35   35   19 1
    36   37    6 ar
    37    7   37 ar
    38   11   16 1
@<TRIPOS>SUBSTRUCTURE
     1 RES1 1

@<TRIPOS>CRYSIN
   9.8220   10.8590    6.9271  90.0000  97.9900  90.0000   4 1

