# MOL2 file generated by ConQuest
# Please check atom types

@<TRIPOS>MOLECULE
NPOXBZ10
    27    28     1
SMALL
NO_CHARGES
****
Generated from CSD

@<TRIPOS>ATOM
      1 O1        -6.8381    7.3504   10.3723 O.2       1 RES1    0.0000
      2 O2        -5.8714    5.9328   11.6936 O.2       1 RES1    0.0000
      3 O3        -1.5976    6.1972    7.1472 O.3       1 RES1    0.0000
      4 O4        -0.9260    8.3185    7.4787 O.2       1 RES1    0.0000
      5 O5         3.4762    5.9807    3.5179 O.3       1 RES1    0.0000
      6 N1        -5.9081    6.6043   10.6904 N.pl3     1 RES1    0.0000
      7 C1        -4.7669    6.4993    9.7437 C.ar      1 RES1    0.0000
      8 C2        -3.8109    5.5579    9.9547 C.ar      1 RES1    0.0000
      9 C3        -2.7526    5.4713    9.0808 C.ar      1 RES1    0.0000
     10 C4        -2.6861    6.3436    8.0330 C.ar      1 RES1    0.0000
     11 C5        -3.6541    7.2905    7.8071 C.ar      1 RES1    0.0000
     12 C6        -4.7122    7.3642    8.6647 C.ar      1 RES1    0.0000
     13 C7         0.3185    6.9248    6.0162 C.ar      1 RES1    0.0000
     14 C8         1.2536    7.9150    5.6982 C.ar      1 RES1    0.0000
     15 C9         2.3073    7.6461    4.8629 C.ar      1 RES1    0.0000
     16 C10        2.4578    6.3602    4.3204 C.ar      1 RES1    0.0000
     17 C11        1.5319    5.3709    4.6028 C.ar      1 RES1    0.0000
     18 C12        0.4716    5.6528    5.4589 C.ar      1 RES1    0.0000
     19 C13       -0.7716    7.2573    6.9466 C.2       1 RES1    0.0000
     20 C14        4.3693    6.9939    3.0007 C.3       1 RES1    0.0000
     21 C15        5.4311    6.2791    2.1952 C.3       1 RES1    0.0000
     22 C16        6.3523    7.2564    1.4966 C.3       1 RES1    0.0000
     23 C17        7.5397    6.5674    0.8471 C.3       1 RES1    0.0000
     24 C18        8.4139    7.4756   -0.0015 C.3       1 RES1    0.0000
     25 C19        9.5510    6.7627   -0.6837 C.3       1 RES1    0.0000
     26 C20       10.4485    7.6286   -1.5293 C.3       1 RES1    0.0000
     27 C21       11.4766    6.8751   -2.3438 C.3       1 RES1    0.0000
@<TRIPOS>BOND
     1    1    6 2
     2    2    6 2
     3    3   10 1
     4    4   19 2
     5    5   16 1
     6    6    7 1
     7    7    8 ar
     8    8    9 ar
     9    9   10 ar
    10   10   11 ar
    11   11   12 ar
    12   12    7 ar
    13   13   14 ar
    14   14   15 ar
    15   15   16 ar
    16   16   17 ar
    17   17   18 ar
    18   18   13 ar
    19   19    3 1
    20   20    5 1
    21   21   20 1
    22   22   21 1
    23   23   22 1
    24   24   23 1
    25   25   24 1
    26   26   25 1
    27   27   26 1
    28   13   19 1
@<TRIPOS>SUBSTRUCTURE
     1 RES1 1

@<TRIPOS>CRYSIN
  14.5030    9.2110   16.3550  90.0000 114.6700  90.0000  14 1

