# MOL2 file generated by ConQuest
# Please check atom types

@<TRIPOS>MOLECULE
NPRHOA
    32    36     1
SMALL
NO_CHARGES
****
Generated from CSD

@<TRIPOS>ATOM
      1 C1         1.1033    6.4578    5.2146 C.3       1 RES1    0.0000
      2 C2         0.5290    5.0557    4.9650 C.3       1 RES1    0.0000
      3 C3         0.8350    4.5841    3.5832 C.2       1 RES1    0.0000
      4 C4         0.8315    5.5965    2.5139 C.2       1 RES1    0.0000
      5 C5         0.7005    6.9206    2.7553 C.2       1 RES1    0.0000
      6 C6         0.5024    7.8623    1.6313 C.3       1 RES1    0.0000
      7 C7         1.4677    9.0632    1.7582 C.3       1 RES1    0.0000
      8 C8         1.4276    9.7352    3.1304 C.3       1 RES1    0.0000
      9 C9         1.6996    8.6774    4.2284 C.3       1 RES1    0.0000
     10 C10        0.6702    7.4845    4.1916 C.3       1 RES1    0.0000
     11 C11        1.8370    9.3065    5.6265 C.3       1 RES1    0.0000
     12 C12        2.8505   10.4382    5.6783 C.3       1 RES1    0.0000
     13 C13        2.5528   11.4872    4.6199 C.3       1 RES1    0.0000
     14 C14        2.5068   10.8263    3.2450 C.3       1 RES1    0.0000
     15 C15        2.4710   11.9843    2.2574 C.3       1 RES1    0.0000
     16 C16        3.3253   13.0889    2.9435 C.3       1 RES1    0.0000
     17 C17        3.6249   12.5641    4.3525 C.3       1 RES1    0.0000
     18 C18        1.2313   12.2157    4.9636 C.3       1 RES1    0.0000
     19 C19       -0.7728    7.9482    4.5394 C.3       1 RES1    0.0000
     20 C20        3.7225   13.6631    5.4083 C.2       1 RES1    0.0000
     21 C21        4.5521   13.4039    6.6181 C.3       1 RES1    0.0000
     22 C22        4.7288   13.3760    2.4702 C.3       1 RES1    0.0000
     23 C23        6.2438   10.1217    2.2983 C.3       1 RES1    0.0000
     24 C24        4.9177   13.6234    0.9794 C.2       1 RES1    0.0000
     25 C25        6.4688   13.9757   -0.7966 C.3       1 RES1    0.0000
     26 O1         3.1723   14.7376    5.2487 O.2       1 RES1    0.0000
     27 O2         4.9613   11.9859    4.2502 O.3       1 RES1    0.0000
     28 O3         5.2961   11.1771    2.0774 O.3       1 RES1    0.0000
     29 O4         6.1629   13.5932    0.5920 O.3       1 RES1    0.0000
     30 O5         4.0126   13.8699    0.2414 O.2       1 RES1    0.0000
     31 O6         1.0013    3.3967    3.3132 O.2       1 RES1    0.0000
     32 N1         5.5997   12.2531    2.9681 N.3       1 RES1    0.0000
@<TRIPOS>BOND
     1    1    2 1
     2    2    3 1
     3    3    4 1
     4    4    5 2
     5    5    6 1
     6    6    7 1
     7    7    8 1
     8    8    9 1
     9    9   10 1
    10   10    1 1
    11   11    9 1
    12   12   11 1
    13   13   12 1
    14   14    8 1
    15   15   14 1
    16   16   15 1
    17   17   13 1
    18   18   13 1
    19   19   10 1
    20   20   17 1
    21   21   20 1
    22   22   16 1
    23   23   28 1
    24   24   22 1
    25   25   29 1
    26   26   20 2
    27   27   17 1
    28   28   32 1
    29   29   24 1
    30   30   24 2
    31   31    3 2
    32   32   22 1
    33    5   10 1
    34   13   14 1
    35   16   17 1
    36   27   32 1
@<TRIPOS>SUBSTRUCTURE
     1 RES1 1

@<TRIPOS>CRYSIN
  11.1100    8.4500   13.6400  90.0000  90.0000 109.7500   4 3

