# MOL2 file generated by ConQuest
# Please check atom types

@<TRIPOS>MOLECULE
NPRHOB
    32    36     1
SMALL
NO_CHARGES
****
Generated from CSD

@<TRIPOS>ATOM
      1 C1        10.2839    9.5899    2.2384 C.3       1 RES1    0.0000
      2 C2         8.8846   10.1150    1.9645 C.3       1 RES1    0.0000
      3 C3         8.3837    9.6525    0.6617 C.2       1 RES1    0.0000
      4 C4         9.3937    9.4785   -0.4009 C.2       1 RES1    0.0000
      5 C5        10.6997    9.6371   -0.2035 C.2       1 RES1    0.0000
      6 C6        11.6303    9.5744   -1.3938 C.3       1 RES1    0.0000
      7 C7        12.8540    8.6726   -1.1131 C.3       1 RES1    0.0000
      8 C8        13.5497    9.1103    0.1714 C.3       1 RES1    0.0000
      9 C9        12.5535    8.9750    1.3502 C.3       1 RES1    0.0000
     10 C10       11.2969    9.9101    1.1529 C.3       1 RES1    0.0000
     11 C11       13.2209    9.1707    2.7158 C.3       1 RES1    0.0000
     12 C12       14.5127    8.3516    2.9001 C.3       1 RES1    0.0000
     13 C13       15.4884    8.6115    1.7519 C.3       1 RES1    0.0000
     14 C14       14.7645    8.2356    0.4491 C.3       1 RES1    0.0000
     15 C15       15.8735    8.1637   -0.6105 C.3       1 RES1    0.0000
     16 C16       17.0657    7.5186    0.1652 C.3       1 RES1    0.0000
     17 C17       16.7690    7.7212    1.6593 C.3       1 RES1    0.0000
     18 C18       15.9390   10.0810    1.7641 C.3       1 RES1    0.0000
     19 C19       11.7026   11.4175    1.2049 C.3       1 RES1    0.0000
     20 C20       17.2124    6.0027    0.0329 C.3       1 RES1    0.0000
     21 C21       16.0273    5.3182   -0.6617 C.2       1 RES1    0.0000
     22 C22       15.2133    4.6592   -2.6362 C.3       1 RES1    0.0000
     23 C23       18.9194    4.7783    2.8848 C.3       1 RES1    0.0000
     24 C24       17.9254    8.2774    2.4863 C.2       1 RES1    0.0000
     25 C25       17.8712    8.0894    3.9849 C.3       1 RES1    0.0000
     26 O1        18.6106    5.7173    1.8054 O.3       1 RES1    0.0000
     27 O2        15.0457    4.9044   -0.1821 O.2       1 RES1    0.0000
     28 O3        16.2956    5.2362   -2.0028 O.3       1 RES1    0.0000
     29 O4         7.2055    9.4623    0.4123 O.2       1 RES1    0.0000
     30 O5        16.4436    6.3933    2.1435 O.3       1 RES1    0.0000
     31 O6        18.8007    8.9379    1.9729 O.2       1 RES1    0.0000
     32 N1        17.2389    5.4620    1.4160 N.3       1 RES1    0.0000
@<TRIPOS>BOND
     1    1    2 1
     2    2    3 1
     3    3    4 1
     4    4    5 2
     5    5    6 1
     6    6    7 1
     7    7    8 1
     8    8    9 1
     9    9   10 1
    10   10    1 1
    11   11    9 1
    12   12   11 1
    13   13   12 1
    14   14    8 1
    15   15   14 1
    16   16   15 1
    17   17   13 1
    18   18   13 1
    19   19   10 1
    20   20   16 1
    21   21   20 1
    22   22   28 1
    23   23   26 1
    24   24   17 1
    25   25   24 1
    26   26   32 1
    27   27   21 2
    28   28   21 1
    29   29    3 2
    30   30   17 1
    31   31   24 2
    32   32   20 1
    33    5   10 1
    34   13   14 1
    35   16   17 1
    36   30   32 1
@<TRIPOS>SUBSTRUCTURE
     1 RES1 1

@<TRIPOS>CRYSIN
  19.7900    7.7400    7.6500  90.0000  90.0000  92.1800   4 3

