# MOL2 file generated by ConQuest
# Please check atom types

@<TRIPOS>MOLECULE
NPYRAM
    31    32     1
SMALL
NO_CHARGES
****
Generated from CSD

@<TRIPOS>ATOM
      1 N1         4.6428    1.8698    0.2025 N.ar      1 RES1    0.0000
      2 C1         3.7091    1.4270    1.0703 C.ar      1 RES1    0.0000
      3 C2         2.3689    1.2978    0.6368 C.ar      1 RES1    0.0000
      4 C3         2.0258    1.6092   -0.6640 C.ar      1 RES1    0.0000
      5 C4         2.9950    2.0400   -1.5290 C.ar      1 RES1    0.0000
      6 C5         4.2785    2.1444   -1.0431 C.ar      1 RES1    0.0000
      7 N2         1.3172    0.8610    1.5218 N.pl3     1 RES1    0.0000
      8 O1         0.1603    1.0142    1.1676 O.2       1 RES1    0.0000
      9 O2         1.6044    0.3623    2.6029 O.2       1 RES1    0.0000
     10 N3         4.1312    1.1667    2.3217 N.3       1 RES1    0.0000
     11 N4         4.7490    2.6218    5.0333 N.ar      1 RES1    0.0000
     12 C6         5.5205    3.3247    4.1840 C.ar      1 RES1    0.0000
     13 C7         5.9498    4.6235    4.5532 C.ar      1 RES1    0.0000
     14 C8         5.6319    5.1299    5.7981 C.ar      1 RES1    0.0000
     15 C9         4.8685    4.3855    6.6474 C.ar      1 RES1    0.0000
     16 C10        4.4495    3.1519    6.2131 C.ar      1 RES1    0.0000
     17 N5         6.7381    5.4625    3.6932 N.pl3     1 RES1    0.0000
     18 O3         7.0951    6.5570    4.0867 O.2       1 RES1    0.0000
     19 O4         7.0263    5.0584    2.5807 O.2       1 RES1    0.0000
     20 N6         5.8513    2.7089    3.0350 N.3       1 RES1    0.0000
     21 C11        5.4952    1.3394    2.7452 C.3       1 RES1    0.0000
     22 H1         1.0903    1.5494   -0.9301 H         1 RES1    0.0000
     23 H2         2.8262    2.2431   -2.4183 H         1 RES1    0.0000
     24 H3         4.9475    2.4743   -1.6527 H         1 RES1    0.0000
     25 H4         3.5780    0.8875    2.8762 H         1 RES1    0.0000
     26 H5         5.9780    6.0233    6.0815 H         1 RES1    0.0000
     27 H6         4.6693    4.6975    7.4981 H         1 RES1    0.0000
     28 H7         3.9437    2.5706    6.7540 H         1 RES1    0.0000
     29 H8         6.2962    3.1136    2.4827 H         1 RES1    0.0000
     30 H9         5.5960    0.8394    3.5487 H         1 RES1    0.0000
     31 H10        6.0631    1.0863    2.0605 H         1 RES1    0.0000
@<TRIPOS>BOND
     1    1    2 ar
     2    2    3 ar
     3    3    4 ar
     4    4    5 ar
     5    5    6 ar
     6    6    1 ar
     7    7    3 1
     8    8    7 2
     9    9    7 2
    10   10    2 1
    11   11   12 ar
    12   12   13 ar
    13   13   14 ar
    14   14   15 ar
    15   15   16 ar
    16   16   11 ar
    17   17   13 1
    18   18   17 2
    19   19   17 2
    20   20   12 1
    21   21   10 1
    22   22    4 1
    23   23    5 1
    24   24    6 1
    25   25   10 1
    26   26   14 1
    27   27   15 1
    28   28   16 1
    29   29   20 1
    30   30   21 1
    31   31   21 1
    32   20   21 1
@<TRIPOS>SUBSTRUCTURE
     1 RES1 1

@<TRIPOS>CRYSIN
   8.2670   11.1820    7.7900 101.2700 112.7900  72.0800   2 1

