# MOL2 file generated by ConQuest
# Please check atom types

@<TRIPOS>MOLECULE
NSMACM
    30    28     2
SMALL
NO_CHARGES
****
Generated from CSD

@<TRIPOS>ATOM
      1 C1        -2.6930    2.7866    3.1529 C.2       1 RES1    0.0000
      2 C2        -2.6128    2.1106    4.5099 C.3       1 RES1    0.0000
      3 C3        -0.5190    3.1747    5.4093 C.3       1 RES1    0.0000
      4 C4         4.4055   -1.6680    5.8912 C.2       2 RES2    0.0000
      5 C5         5.0091   -2.7971    5.0862 C.3       2 RES2    0.0000
      6 C6         7.4272   -3.3132    5.5838 C.3       2 RES2    0.0000
      7 H1         2.6791   -0.8354    6.2773 H         2 RES2    0.0000
      8 H2        -3.6665    1.8953    4.7902 H         1 RES1    0.0000
      9 H3        -2.0278    1.2794    4.3898 H         1 RES1    0.0000
     10 H4        -0.1581    3.4516    6.3059 H         1 RES1    0.0000
     11 H5        -0.3047    3.7715    4.6186 H         1 RES1    0.0000
     12 H6        -0.0999    2.2915    5.1762 H         1 RES1    0.0000
     13 H7         2.5864   -1.9908    5.1619 H         2 RES2    0.0000
     14 H8         4.4563   -2.8883    4.1610 H         2 RES2    0.0000
     15 H9         4.9134   -3.5662    5.6481 H         2 RES2    0.0000
     16 H10        7.3839   -4.2966    5.2906 H         2 RES2    0.0000
     17 H11        8.3311   -2.9551    5.3621 H         2 RES2    0.0000
     18 H12        7.3161   -3.2177    6.6062 H         2 RES2    0.0000
     19 H13       -2.9681    2.3154    1.2726 H         1 RES1    0.0000
     20 H14       -2.8006    1.0694    2.2306 H         1 RES1    0.0000
     21 N1         3.1149   -1.4675    5.7182 N.am      2 RES2    0.0000
     22 N2        -1.9365    2.9470    5.4665 N.pl3     1 RES1    0.0000
     23 N3        -2.7590    3.6015    6.2787 N.2       1 RES1    0.0000
     24 N4         6.4175   -2.5851    4.8488 N.pl3     2 RES2    0.0000
     25 N5         6.8302   -1.6571    4.0266 N.2       2 RES2    0.0000
     26 N6        -2.7880    1.9898    2.1148 N.am      1 RES1    0.0000
     27 O1        -2.6855    4.0125    3.0729 O.2       1 RES1    0.0000
     28 O2        -2.1795    4.3892    7.0108 O.2       1 RES1    0.0000
     29 O3         5.1069   -1.0021    6.6519 O.2       2 RES2    0.0000
     30 O4         5.9043   -1.0188    3.5118 O.2       2 RES2    0.0000
@<TRIPOS>BOND
     1    1    2 1
     2    2    8 1
     3    3   10 1
     4    4    5 1
     5    5   14 1
     6    6   16 1
     7    7   21 1
     8    9    2 1
     9   11    3 1
    10   12    3 1
    11   13   21 1
    12   15    5 1
    13   17    6 1
    14   18    6 1
    15   19   26 1
    16   20   26 1
    17   21    4 1
    18   22    2 1
    19   23   22 2
    20   24    5 1
    21   25   24 2
    22   26    1 1
    23   27    1 2
    24   28   23 1
    25   29    4 2
    26   30   25 1
    27    3   22 1
    28    6   24 1
@<TRIPOS>SUBSTRUCTURE
     1 RES1 1
     2 RES2 4

@<TRIPOS>CRYSIN
  16.6810    4.7740   14.3180  90.0000  92.9500  90.0000 231 1

