# MOL2 file generated by ConQuest
# Please check atom types

@<TRIPOS>MOLECULE
NSOMET
     6     5     1
SMALL
USER_CHARGES
****
Generated from CSD

@<TRIPOS>ATOM
      1 C1        -1.8488    4.0070    1.1220 C.3       1 RES1    0.0000
      2 C2         0.4806    5.5352    1.6782 C.3       1 RES1    0.0000
      3 N1        -1.5883    4.4643    2.4686 N.pl3     1 RES1    1.0000
      4 N2        -0.5403    5.2188    2.7077 N.pl3     1 RES1    1.0000
      5 O1        -2.4271    4.1543    3.4440 O.2       1 RES1   -1.0000
      6 O2        -0.3353    5.5941    3.9385 O.2       1 RES1   -1.0000
@<TRIPOS>BOND
     1    1    3 1
     2    2    4 1
     3    3    4 2
     4    4    6 1
     5    5    3 1
@<TRIPOS>SUBSTRUCTURE
     1 RES1 1

@<TRIPOS>CRYSIN
   6.0300   12.8100    5.4100  90.0000  90.0000  90.0000  19 1

