# MOL2 file generated by ConQuest
# Please check atom types

@<TRIPOS>MOLECULE
NTBZAM10
    18    18     1
SMALL
NO_CHARGES
****
Generated from CSD

@<TRIPOS>ATOM
      1 O1        -3.6521   -0.9979    5.5419 O.2       1 RES1    0.0000
      2 O2        -1.4489   -6.9779    3.0559 O.2       1 RES1    0.0000
      3 O3        -0.4041   -7.4077    4.8869 O.2       1 RES1    0.0000
      4 N1        -2.8030   -1.3818    7.5807 N.am      1 RES1    0.0000
      5 N2        -1.1088   -6.6867    4.1945 N.pl3     1 RES1    0.0000
      6 C1        -2.4707   -3.0331    5.8079 C.ar      1 RES1    0.0000
      7 C2        -2.6848   -3.3394    4.4649 C.ar      1 RES1    0.0000
      8 C3        -2.2477   -4.5314    3.9276 C.ar      1 RES1    0.0000
      9 C4        -1.5762   -5.4119    4.7535 C.ar      1 RES1    0.0000
     10 C5        -1.3362   -5.1438    6.0880 C.ar      1 RES1    0.0000
     11 C6        -1.7913   -3.9465    6.6107 C.ar      1 RES1    0.0000
     12 C7        -3.0187   -1.7280    6.3084 C.2       1 RES1    0.0000
     13 H1        -3.1271   -2.6834    3.9356 H         1 RES1    0.0000
     14 H2        -2.4384   -4.7660    2.9860 H         1 RES1    0.0000
     15 H3        -0.8736   -5.7464    6.6323 H         1 RES1    0.0000
     16 H4        -1.6272   -3.7856    7.5487 H         1 RES1    0.0000
     17 H5        -3.2017   -0.6374    7.8422 H         1 RES1    0.0000
     18 H6        -2.3553   -1.9073    8.1550 H         1 RES1    0.0000
@<TRIPOS>BOND
     1    1   12 2
     2    2    5 2
     3    3    5 2
     4    4   12 1
     5    5    9 1
     6    6    7 ar
     7    7    8 ar
     8    8    9 ar
     9    9   10 ar
    10   10   11 ar
    11   11    6 ar
    12   12    6 1
    13   13    7 1
    14   14    8 1
    15   15   10 1
    16   16   11 1
    17   17    4 1
    18   18    4 1
@<TRIPOS>SUBSTRUCTURE
     1 RES1 1

@<TRIPOS>CRYSIN
   7.6430    6.7660   13.8470  90.0000  91.3400  90.0000  14 1

