# MOL2 file generated by ConQuest
# Please check atom types

@<TRIPOS>MOLECULE
NTBZAM01
    18    18     1
SMALL
NO_CHARGES
****
Generated from CSD

@<TRIPOS>ATOM
      1 O1         3.9035    5.8059    5.5278 O.2       1 RES1    0.0000
      2 O2         5.9835   -0.2256    3.0420 O.2       1 RES1    0.0000
      3 O3         7.0284   -0.6792    4.8821 O.2       1 RES1    0.0000
      4 N1         4.7581    5.4146    7.5771 N.am      1 RES1    0.0000
      5 N2         6.3357    0.0573    4.1863 N.pl3     1 RES1    0.0000
      6 C1         5.0529    3.7482    5.8038 C.ar      1 RES1    0.0000
      7 C2         4.8302    3.4532    4.4532 C.ar      1 RES1    0.0000
      8 C3         5.2461    2.2415    3.9129 C.ar      1 RES1    0.0000
      9 C4         5.8959    1.3418    4.7470 C.ar      1 RES1    0.0000
     10 C5         6.1366    1.6016    6.0885 C.ar      1 RES1    0.0000
     11 C6         5.7056    2.8174    6.6175 C.ar      1 RES1    0.0000
     12 C7         4.5302    5.0673    6.3042 C.2       1 RES1    0.0000
     13 H1         4.3536    4.0919    3.9103 H         1 RES1    0.0000
     14 H2         5.0942    2.0197    2.9558 H         1 RES1    0.0000
     15 H3         6.5544    0.9677    6.6120 H         1 RES1    0.0000
     16 H4         5.8737    2.9201    7.5581 H         1 RES1    0.0000
     17 H5         4.3878    6.1660    7.8896 H         1 RES1    0.0000
     18 H6         5.1737    4.8875    8.1755 H         1 RES1    0.0000
@<TRIPOS>BOND
     1    1   12 2
     2    2    5 2
     3    3    5 2
     4    4   12 1
     5    5    9 1
     6    6    7 ar
     7    7    8 ar
     8    8    9 ar
     9    9   10 ar
    10   10   11 ar
    11   11    6 ar
    12   12    6 1
    13   13    7 1
    14   14    8 1
    15   15   10 1
    16   16   11 1
    17   17    4 1
    18   18    4 1
@<TRIPOS>SUBSTRUCTURE
     1 RES1 1

@<TRIPOS>CRYSIN
   7.3930    6.8005   13.8140  90.0000  90.8800  90.0000  14 1

