# MOL2 file generated by ConQuest
# Please check atom types

@<TRIPOS>MOLECULE
NTPYRO03
    14    14     1
SMALL
NO_CHARGES
****
Generated from CSD

@<TRIPOS>ATOM
      1 C1         2.0547    1.4535    4.0387 C.ar      1 RES1    0.0000
      2 C2         3.8306    1.4535    5.6114 C.ar      1 RES1    0.0000
      3 C3         4.7655    1.4535    4.5997 C.ar      1 RES1    0.0000
      4 C4         4.3093    1.4535    3.2908 C.ar      1 RES1    0.0000
      5 C5         2.9545    1.4535    2.9974 C.ar      1 RES1    0.0000
      6 H1         1.1173    1.4535    3.9112 H         1 RES1    0.0000
      7 H2         4.0319    1.4535    6.5440 H         1 RES1    0.0000
      8 H3         5.7491    1.4535    4.8290 H         1 RES1    0.0000
      9 H4         2.6458    1.4535    2.0788 H         1 RES1    0.0000
     10 N1         2.4909    1.4535    5.3352 N.pl3     1 RES1    0.0000
     11 N2         5.2742    1.4535    2.2025 N.pl3     1 RES1    0.0000
     12 O1         1.6347    1.4535    6.3093 O.2       1 RES1    0.0000
     13 O2         4.8505    1.4535    1.0414 O.2       1 RES1    0.0000
     14 O3         6.4727    1.4535    2.4904 O.2       1 RES1    0.0000
@<TRIPOS>BOND
     1    1    5 ar
     2    2    3 ar
     3    3    4 ar
     4    4    5 ar
     5    5    9 1
     6    6    1 1
     7    7    2 1
     8    8    3 1
     9   10    1 ar
    10   11    4 1
    11   12   10 1
    12   13   11 2
    13   14   11 2
    14    2   10 ar
@<TRIPOS>SUBSTRUCTURE
     1 RES1 1

@<TRIPOS>CRYSIN
  12.4980    5.8140    7.8240  90.0000  90.0000  90.0000  62 1

