# MOL2 file generated by ConQuest
# Please check atom types

@<TRIPOS>MOLECULE
NTRACD
    10     9     1
SMALL
NO_CHARGES
****
Generated from CSD

@<TRIPOS>ATOM
      1 C1         1.4572    4.5683    1.9460 C.2       1 RES1    0.0000
      2 O1         2.4041    4.5882    2.6898 O.2       1 RES1    0.0000
      3 O2         0.3142    5.1525    2.1379 O.3       1 RES1    0.0000
      4 C2         1.4533    3.8082    0.6424 C.3       1 RES1    0.0000
      5 N1         2.7933    3.2307    0.4060 N.pl3     1 RES1    0.0000
      6 O3         3.0658    2.1874    0.9673 O.2       1 RES1    0.0000
      7 O4         3.5534    3.8348   -0.3133 O.2       1 RES1    0.0000
      8 H1         0.3406    5.5541    2.8170 H         1 RES1    0.0000
      9 H2         0.8181    3.0758    0.6827 H         1 RES1    0.0000
     10 H3         1.2548    4.3371   -0.0575 H         1 RES1    0.0000
@<TRIPOS>BOND
     1    1    2 2
     2    3    1 1
     3    4    1 1
     4    5    4 1
     5    6    5 2
     6    7    5 2
     7    8    3 1
     8    9    4 1
     9   10    4 1
@<TRIPOS>SUBSTRUCTURE
     1 RES1 1

@<TRIPOS>CRYSIN
   5.1960   11.0640    7.5370  90.0000 107.5500  90.0000 231 1

