# MOL2 file generated by ConQuest
# Please check atom types

@<TRIPOS>MOLECULE
NTRANT
    17    19     1
SMALL
NO_CHARGES
****
Generated from CSD

@<TRIPOS>ATOM
      1 C1         2.8461    1.9719   -1.0115 C.ar      1 RES1    0.0000
      2 C2         2.4093    1.4279    0.1822 C.ar      1 RES1    0.0000
      3 C3         2.0258    2.3616    1.1937 C.ar      1 RES1    0.0000
      4 C4         1.5421    1.9223    2.4536 C.ar      1 RES1    0.0000
      5 C5         1.1498    2.7457    3.4920 C.ar      1 RES1    0.0000
      6 C6         0.6590    2.2500    4.7478 C.ar      1 RES1    0.0000
      7 C7         0.2733    3.1437    5.7593 C.ar      1 RES1    0.0000
      8 C8         0.3447    4.5634    5.5471 C.ar      1 RES1    0.0000
      9 C9         0.8190    5.1087    4.3151 C.ar      1 RES1    0.0000
     10 C10        1.1941    4.1558    3.3595 C.ar      1 RES1    0.0000
     11 C11        1.6817    4.6240    2.0882 C.ar      1 RES1    0.0000
     12 C12        2.0635    3.8129    1.0674 C.ar      1 RES1    0.0000
     13 C13        2.5535    4.2880   -0.2298 C.ar      1 RES1    0.0000
     14 C14        2.9003    3.3489   -1.1761 C.ar      1 RES1    0.0000
     15 N1         1.4580    0.4613    2.6835 N.pl3     1 RES1    0.0000
     16 O1         0.4182   -0.1418    2.5023 O.2       1 RES1    0.0000
     17 O2         2.4865   -0.0633    3.0624 O.2       1 RES1    0.0000
@<TRIPOS>BOND
     1    1    2 ar
     2    2    3 ar
     3    3    4 ar
     4    4    5 ar
     5    5    6 ar
     6    6    7 ar
     7    7    8 ar
     8    8    9 ar
     9    9   10 ar
    10   10    5 ar
    11   11   10 ar
    12   12    3 ar
    13   13   12 ar
    14   14    1 ar
    15   15    4 1
    16   16   15 2
    17   17   15 2
    18   11   12 ar
    19   13   14 ar
@<TRIPOS>SUBSTRUCTURE
     1 RES1 1

@<TRIPOS>CRYSIN
   7.4900   13.7700   11.4400  90.0000 115.1800  90.0000  14 2

