# MOL2 file generated by ConQuest
# Please check atom types

@<TRIPOS>MOLECULE
NTRGUA02
    11    10     1
SMALL
NO_CHARGES
****
Generated from CSD

@<TRIPOS>ATOM
      1 O1         5.6948    0.2674    1.3288 O.2       1 RES1    0.0000
      2 O2         7.5128    0.6372    0.2334 O.2       1 RES1    0.0000
      3 N1         5.3728    4.2690    1.5489 N.3       1 RES1    0.0000
      4 N2         4.2866    2.3254    2.0422 N.3       1 RES1    0.0000
      5 N3         6.4187    2.3923    0.8997 N.2       1 RES1    0.0000
      6 N4         6.5136    1.0641    0.8286 N.pl3     1 RES1    0.0000
      7 C1         5.3270    2.9479    1.5173 C.2       1 RES1    0.0000
      8 H1         6.0149    4.7010    1.2207 H         1 RES1    0.0000
      9 H2         4.6567    4.7582    1.9531 H         1 RES1    0.0000
     10 H3         3.6336    2.8106    2.4773 H         1 RES1    0.0000
     11 H4         4.3039    1.4178    1.9854 H         1 RES1    0.0000
@<TRIPOS>BOND
     1    1    6 2
     2    2    6 2
     3    3    7 1
     4    4    7 1
     5    5    6 1
     6    7    5 2
     7    8    3 1
     8    9    3 1
     9   10    4 1
    10   11    4 1
@<TRIPOS>SUBSTRUCTURE
     1 RES1 1

@<TRIPOS>CRYSIN
  17.6390   24.8730    3.5903  90.0000  90.0000  90.0000  43 1

