# MOL2 file generated by ConQuest
# Please check atom types

@<TRIPOS>MOLECULE
NTRGUA
     7     6     1
SMALL
NO_CHARGES
****
Generated from CSD

@<TRIPOS>ATOM
      1 O1         3.1117    0.2829    0.7446 O.2       1 RES1    0.0000
      2 O2         1.3062    0.6354    1.8222 O.2       1 RES1    0.0000
      3 N1         4.5145    2.3058    0.0000 N.pl3     1 RES1    0.0000
      4 N2         3.4334    4.2666    0.5406 N.pl3     1 RES1    0.0000
      5 N3         2.3891    2.4001    1.1635 N.2       1 RES1    0.0000
      6 N4         2.2959    1.0549    1.2279 N.pl3     1 RES1    0.0000
      7 C1         3.4808    2.9288    0.5728 C.2       1 RES1    0.0000
@<TRIPOS>BOND
     1    1    6 2
     2    2    6 2
     3    3    7 1
     4    4    7 1
     5    5    6 1
     6    7    5 2
@<TRIPOS>SUBSTRUCTURE
     1 RES1 1

@<TRIPOS>CRYSIN
  17.5800   24.8200    3.5800  90.0000  90.0000  90.0000  43 1

