# MOL2 file generated by ConQuest
# Please check atom types

@<TRIPOS>MOLECULE
NTRGUA03
    11    10     1
SMALL
NO_CHARGES
****
Generated from CSD

@<TRIPOS>ATOM
      1 O1         1.2848    5.9528    3.4516 O.2       1 RES1    0.0000
      2 O2         3.1001    5.5827    2.3583 O.2       1 RES1    0.0000
      3 N1         2.1053    5.1573    2.9529 N.pl3     1 RES1    0.0000
      4 N2         2.0097    3.8273    3.0230 N.2       1 RES1    0.0000
      5 N3        -0.1221    3.8887    4.1691 N.pl3     1 RES1    0.0000
      6 H1        -0.7569    3.4314    4.5265 H         1 RES1    0.0000
      7 H2        -0.1676    4.7477    4.1547 H         1 RES1    0.0000
      8 N4         0.9660    1.9503    3.6766 N.pl3     1 RES1    0.0000
      9 H3         0.3246    1.5054    4.0372 H         1 RES1    0.0000
     10 H4         1.6390    1.5353    3.3369 H         1 RES1    0.0000
     11 C1         0.9169    3.2758    3.6435 C.2       1 RES1    0.0000
@<TRIPOS>BOND
     1    1    3 2
     2    2    3 2
     3    3    4 1
     4    4   11 2
     5    5    6 1
     6    7    5 1
     7    8    9 1
     8   10    8 1
     9   11    5 1
    10    8   11 1
@<TRIPOS>SUBSTRUCTURE
     1 RES1 1

@<TRIPOS>CRYSIN
  17.6430   24.8830    3.5950  90.0000  90.0000  90.0000  43 1

