# MOL2 file generated by ConQuest
# Please check atom types

@<TRIPOS>MOLECULE
NTROMA04
     4     3     1
SMALL
NO_CHARGES
****
Generated from CSD

@<TRIPOS>ATOM
      1 C1         0.6322    6.5191    3.2844 C.3       1 RES1    0.0000
      2 N1         1.8555    5.6648    3.2587 N.pl3     1 RES1    0.0000
      3 O1         2.6471    5.8072    4.1653 O.2       1 RES1    0.0000
      4 O2         1.9892    4.9033    2.3350 O.2       1 RES1    0.0000
@<TRIPOS>BOND
     1    1    2 1
     2    2    3 2
     3    4    2 2
@<TRIPOS>SUBSTRUCTURE
     1 RES1 1

@<TRIPOS>CRYSIN
   5.1400    6.1910    8.5530  90.0000  90.0000  90.0000  19 1

