# MOL2 file generated by ConQuest
# Please check atom types

@<TRIPOS>MOLECULE
NTROMA05
     4     3     1
SMALL
NO_CHARGES
****
Generated from CSD

@<TRIPOS>ATOM
      1 C1         0.6108    6.4513    3.2248 C.3       1 RES1    0.0000
      2 N1         1.8426    5.6075    3.2502 N.pl3     1 RES1    0.0000
      3 O1         2.6214    5.7359    4.1474 O.2       1 RES1    0.0000
      4 O2         1.9698    4.8309    2.3022 O.2       1 RES1    0.0000
@<TRIPOS>BOND
     1    1    2 1
     2    2    3 2
     3    4    2 2
@<TRIPOS>SUBSTRUCTURE
     1 RES1 1

@<TRIPOS>CRYSIN
   5.0900    6.1150    8.4640  90.0000  90.0000  90.0000  19 1

