# MOL2 file generated by ConQuest
# Please check atom types

@<TRIPOS>MOLECULE
NTROMA02
     4     3     1
SMALL
NO_CHARGES
****
Generated from CSD

@<TRIPOS>ATOM
      1 C1         0.6218    6.6095    3.2937 C.3       1 RES1    0.0000
      2 N1         1.8707    5.6957    3.3024 N.pl3     1 RES1    0.0000
      3 O1         2.6687    5.8522    4.1928 O.2       1 RES1    0.0000
      4 O2         1.9951    4.9571    2.3687 O.2       1 RES1    0.0000
@<TRIPOS>BOND
     1    1    2 1
     2    2    3 2
     3    4    2 2
@<TRIPOS>SUBSTRUCTURE
     1 RES1 1

@<TRIPOS>CRYSIN
   5.1820    6.2590    8.6450  90.0000  90.0000  90.0000  19 1

