# MOL2 file generated by ConQuest
# Please check atom types

@<TRIPOS>MOLECULE
NTROMA
     4     3     1
SMALL
NO_CHARGES
****
Generated from CSD

@<TRIPOS>ATOM
      1 C1         0.7132    6.6259    3.3165 C.3       1 RES1    0.0000
      2 N1         1.8889    5.7803    3.3026 N.pl3     1 RES1    0.0000
      3 O1         2.0048    4.9808    2.3973 O.2       1 RES1    0.0000
      4 O2         2.7091    5.8947    4.2140 O.2       1 RES1    0.0000
@<TRIPOS>BOND
     1    1    2 1
     2    2    3 2
     3    4    2 2
@<TRIPOS>SUBSTRUCTURE
     1 RES1 1

@<TRIPOS>CRYSIN
   5.2440    6.3200    8.7300  90.0000  90.0000  90.0000  19 1

