# MOL2 file generated by ConQuest
# Please check atom types

@<TRIPOS>MOLECULE
NTROMA01
     7     6     1
SMALL
NO_CHARGES
****
Generated from CSD

@<TRIPOS>ATOM
      1 C1        -1.9229   -0.3140    7.6269 C.3       1 RES1    0.0000
      2 N1        -0.7230    0.5481    7.6070 N.pl3     1 RES1    0.0000
      3 O1         0.0816    0.4298    8.5176 O.2       1 RES1    0.0000
      4 O2        -0.6101    1.3423    6.6938 O.2       1 RES1    0.0000
      5 H1        -2.7081    0.1573    8.0575 H         1 RES1    0.0000
      6 H2        -2.2846   -0.4342    6.7752 H         1 RES1    0.0000
      7 H3        -1.5527   -1.1831    7.9795 H         1 RES1    0.0000
@<TRIPOS>BOND
     1    1    2 1
     2    2    3 2
     3    4    2 2
     4    5    1 1
     5    6    1 1
     6    7    1 1
@<TRIPOS>SUBSTRUCTURE
     1 RES1 1

@<TRIPOS>CRYSIN
   5.2280    6.2930    8.6640  90.0000  90.0000  90.0000  19 1

