# MOL2 file generated by ConQuest
# Please check atom types

@<TRIPOS>MOLECULE
NTRPLB
    37    39     1
SMALL
USER_CHARGES
****
Generated from CSD

@<TRIPOS>ATOM
      1 O1         0.8959    7.8108    1.7893 O.3       1 RES1    0.0000
      2 O2         0.6969   13.6589    3.3249 O.2       1 RES1    0.0000
      3 O3         1.5787    7.7021    4.4672 O.2       1 RES1    0.0000
      4 O4         2.3168    9.6206    5.1382 O.2       1 RES1    0.0000
      5 N1         0.0000   13.0529    2.4962 N.pl3     1 RES1    0.0000
      6 N2         1.6182    8.9301    4.3973 N.pl3     1 RES1    0.0000
      7 C1         0.0000   11.6337    2.4962 C.2       1 RES1   -1.0000
      8 C2         0.7749   10.9372    3.4128 C.2       1 RES1    0.0000
      9 C3         0.7802    9.5944    3.4268 C.2       1 RES1    0.0000
     10 C4         0.0000    8.7369    2.4962 C.3       1 RES1    0.0000
     11 C5         0.5610    6.5426    2.0768 C.ar      1 RES1    0.0000
     12 C6         1.3219    5.4978    1.5756 C.ar      1 RES1    0.0000
     13 C7         1.0177    4.1671    1.7743 C.ar      1 RES1    0.0000
     14 C8         0.0000    3.5330    2.4962 C.ar      1 RES1    1.0000
     15 C9         0.0000    2.0252    2.4962 C.3       1 RES1    0.0000
     16 C10        2.5500    5.8400    0.7878 C.3       1 RES1    0.0000
     17 H1         1.3324   11.4143    3.9839 H         1 RES1    0.0000
     18 H2         1.6305    3.5833    1.4478 H         1 RES1    0.0000
     19 H3         2.9453    5.0931    0.4094 H         1 RES1    0.0000
     20 H4         2.4632    6.5828    0.2596 H         1 RES1    0.0000
     21 H5         3.1557    6.1198    1.2781 H         1 RES1    0.0000
     22 O1F       -0.8959    7.8108    3.2031 O.3       1 RES1    0.0000
     23 C3F       -0.7802    9.5944    1.5656 C.2       1 RES1    0.0000
     24 C2F       -0.7749   10.9372    1.5796 C.2       1 RES1    0.0000
     25 O2F       -0.6969   13.6589    1.6675 O.2       1 RES1    0.0000
     26 C5F       -0.5610    6.5426    2.9156 C.ar      1 RES1    0.0000
     27 C7F       -1.0177    4.1671    3.2181 C.ar      1 RES1    0.0000
     28 N2F       -1.6182    8.9301    0.5951 N.pl3     1 RES1    0.0000
     29 H1F       -1.3324   11.4143    1.0085 H         1 RES1    0.0000
     30 C6F       -1.3219    5.4978    3.4168 C.ar      1 RES1    0.0000
     31 H2F       -1.6305    3.5833    3.5446 H         1 RES1    0.0000
     32 O3F       -1.5787    7.7021    0.5252 O.2       1 RES1    0.0000
     33 O4F       -2.3168    9.6206   -0.1458 O.2       1 RES1    0.0000
     34 C10F      -2.5500    5.8400    4.2046 C.3       1 RES1    0.0000
     35 H3F       -2.9453    5.0931    4.5830 H         1 RES1    0.0000
     36 H4F       -2.4632    6.5828    4.7328 H         1 RES1    0.0000
     37 H5F       -3.1557    6.1198    3.7143 H         1 RES1    0.0000
@<TRIPOS>BOND
     1    1   10 1
     2    2    5 2
     3    3    6 2
     4    4    6 2
     5    5    7 1
     6    6    9 1
     7    7    8 un
     8    8    9 un
     9    9   10 1
    10   10   22 1
    11   11    1 1
    12   12   11 ar
    13   13   12 ar
    14   14   13 ar
    15   15   14 1
    16   16   12 1
    17   17    8 1
    18   18   13 1
    19   19   16 1
    20   20   16 1
    21   21   16 1
    22   22   26 1
    23   23   10 1
    24   24    7 un
    25   25    5 2
    26   26   11 ar
    27   27   14 ar
    28   28   23 1
    29   29   24 1
    30   30   26 ar
    31   31   27 1
    32   32   28 2
    33   33   28 2
    34   34   30 1
    35   35   34 1
    36   36   34 1
    37   37   34 1
    38   23   24 un
    39   27   30 ar
@<TRIPOS>SUBSTRUCTURE
     1 RES1 1

@<TRIPOS>CRYSIN
   8.7659   20.1310    9.9848  90.0000  90.0000  90.0000  60 1

