# MOL2 file generated by ConQuest
# Please check atom types

@<TRIPOS>MOLECULE
NTRPLA
    35    36     1
SMALL
NO_CHARGES
****
Generated from CSD

@<TRIPOS>ATOM
      1 H1         6.2445    3.0168   -0.7783 H         1 RES1    0.0000
      2 H2         5.2929    4.9087   -1.9792 H         1 RES1    0.0000
      3 H3         3.6676    6.2381   -0.9562 H         1 RES1    0.0000
      4 H4         5.0470    6.0464    7.3163 H         1 RES1    0.0000
      5 H5         2.3310    3.1830    6.7381 H         1 RES1    0.0000
      6 H6         2.2134    1.8919    3.8472 H         1 RES1    0.0000
      7 H7         1.3045    3.0935    3.6693 H         1 RES1    0.0000
      8 H8         1.4221    2.1348    5.0480 H         1 RES1    0.0000
      9 H9         2.9084    5.4328    8.6506 H         1 RES1    0.0000
     10 H10        2.9084    4.0394    8.9174 H         1 RES1    0.0000
     11 H11        4.0739    4.9470    9.0953 H         1 RES1    0.0000
     12 O1         3.4794    3.7224    2.6886 O.3       1 RES1    0.0000
     13 O2         5.3153    5.5951    3.0733 O.2       1 RES1    0.0000
     14 O3         6.1633    1.3639    0.9940 O.2       1 RES1    0.0000
     15 O4         5.6789    2.2779    2.8820 O.2       1 RES1    0.0000
     16 O5         1.8370    5.7063    2.2194 O.2       1 RES1    0.0000
     17 O6         2.4679    7.2071    0.8517 O.2       1 RES1    0.0000
     18 N1         5.6703    2.2575    1.6679 N.pl3     1 RES1    0.0000
     19 N2         2.5470    6.0911    1.3343 N.pl3     1 RES1    0.0000
     20 C1         4.0654    4.1481    1.5411 C.ar      1 RES1    0.0000
     21 C2         5.0555    3.3645    0.9273 C.ar      1 RES1    0.0000
     22 C3         5.5292    3.6253   -0.3358 C.ar      1 RES1    0.0000
     23 C4         5.0224    4.6875   -1.0452 C.ar      1 RES1    0.0000
     24 C5         4.0311    5.4762   -0.4848 C.ar      1 RES1    0.0000
     25 C6         3.5649    5.1861    0.7761 C.ar      1 RES1    0.0000
     26 C7         3.7296    4.1762    3.9717 C.2       1 RES1    0.0000
     27 C8         4.7583    5.1899    4.1140 C.2       1 RES1    0.0000
     28 C9         5.1614    5.7549    5.3816 C.2       1 RES1    0.0000
     29 C10        4.6738    5.4724    6.6158 C.2       1 RES1    0.0000
     30 C11        3.6516    4.5993    7.0628 C.2       1 RES1    0.0000
     31 C12        2.9084    3.7684    6.2800 C.2       1 RES1    0.0000
     32 C13        2.9084    3.5716    4.8746 C.2       1 RES1    0.0000
     33 C14        1.8937    2.5975    4.3631 C.3       1 RES1    0.0000
     34 C15        3.3714    4.6121    8.5372 C.3       1 RES1    0.0000
     35 C16        6.2403    6.7622    5.2904 C.3       1 RES1    0.0000
@<TRIPOS>BOND
     1    1   22 1
     2    2   23 1
     3    3   24 1
     4    4   29 1
     5    5   31 1
     6    6   33 1
     7    7   33 1
     8    8   33 1
     9    9   34 1
    10   10   34 1
    11   11   34 1
    12   12   20 1
    13   13   27 2
    14   14   18 2
    15   15   18 2
    16   16   19 2
    17   17   19 2
    18   18   21 1
    19   19   25 1
    20   20   21 ar
    21   21   22 ar
    22   22   23 ar
    23   23   24 ar
    24   24   25 ar
    25   25   20 ar
    26   26   12 1
    27   27   26 1
    28   28   27 1
    29   29   28 2
    30   30   29 1
    31   31   30 2
    32   32   26 2
    33   33   32 1
    34   34   30 1
    35   35   28 1
    36   31   32 1
@<TRIPOS>SUBSTRUCTURE
     1 RES1 1

@<TRIPOS>CRYSIN
  10.6927   12.7830   22.2380  90.0000  90.0000  90.0000  61 1

