# MOL2 file generated by ConQuest
# Please check atom types

@<TRIPOS>MOLECULE
NTSALA
    17    17     1
SMALL
NO_CHARGES
****
Generated from CSD

@<TRIPOS>ATOM
      1 O1         4.0310   -1.0896    0.8623 O.3       1 RES1    0.0000
      2 O2         3.5173   -6.7773   -1.4958 O.2       1 RES1    0.0000
      3 O3         0.1472   -1.7736   -0.6084 O.3       1 RES1    0.0000
      4 O4         1.5076   -0.3611    0.4901 O.2       1 RES1    0.0000
      5 N1         2.6156   -5.9422   -1.3864 N.2       1 RES1    0.0000
      6 C1         2.3287   -2.4912   -0.1560 C.ar      1 RES1    0.0000
      7 C2         3.6458   -2.2410    0.2952 C.ar      1 RES1    0.0000
      8 C3         4.6375   -3.2273    0.1727 C.ar      1 RES1    0.0000
      9 C4         4.3402   -4.4405   -0.3779 C.ar      1 RES1    0.0000
     10 C5         3.0269   -4.7075   -0.8045 C.ar      1 RES1    0.0000
     11 C6         2.0409   -3.7451   -0.6961 C.ar      1 RES1    0.0000
     12 C7         1.2984   -1.4467   -0.0545 C.2       1 RES1    0.0000
     13 H1         3.4200   -0.6278    0.9679 H         1 RES1    0.0000
     14 H2         4.9947   -5.1668   -0.4744 H         1 RES1    0.0000
     15 H3        -0.3368   -1.1625   -0.5455 H         1 RES1    0.0000
     16 H4         5.5090   -3.0258    0.4693 H         1 RES1    0.0000
     17 H5         1.1622   -3.9289   -0.9895 H         1 RES1    0.0000
@<TRIPOS>BOND
     1    1    7 1
     2    2    5 2
     3    3   12 1
     4    4   12 2
     5    5   10 1
     6    6    7 ar
     7    7    8 ar
     8    8    9 ar
     9    9   10 ar
    10   10   11 ar
    11   11    6 ar
    12   12    6 1
    13   13    1 1
    14   14    9 1
    15   15    3 1
    16   16    8 1
    17   17   11 1
@<TRIPOS>SUBSTRUCTURE
     1 RES1 1

@<TRIPOS>CRYSIN
  22.8290    8.0280    3.6669  90.0000  91.0700  90.0000 231 1

