# MOL2 file generated by ConQuest
# Please check atom types

@<TRIPOS>MOLECULE
NUBDOD
    30    30     1
SMALL
NO_CHARGES
****
Generated from CSD

@<TRIPOS>ATOM
      1 O1        -0.0354    0.5255    3.9999 O.2       1 RES1    0.0000
      2 O2         1.9065    0.1146    4.8709 O.2       1 RES1    0.0000
      3 O3         0.4947    1.4510    0.0000 O.3       1 RES1    0.0000
      4 O4         2.3293    0.1708   -0.0330 O.2       1 RES1    0.0000
      5 O5         0.7370    2.5741    6.2967 O.2       1 RES1    0.0000
      6 N1         2.8751    2.6729    5.5607 N.am      1 RES1    0.0000
      7 N2         1.1462    0.7884    4.1849 N.pl3     1 RES1    0.0000
      8 C1         1.3458    2.1738    2.1656 C.ar      1 RES1    0.0000
      9 C2         1.6899    1.9673    3.5036 C.ar      1 RES1    0.0000
     10 C3         2.5559    2.8214    4.1962 C.ar      1 RES1    0.0000
     11 C4         3.1281    3.8929    3.5112 C.ar      1 RES1    0.0000
     12 C5         2.8056    4.1068    2.1807 C.ar      1 RES1    0.0000
     13 C6         1.9218    3.2663    1.5211 C.ar      1 RES1    0.0000
     14 C7         0.4081    1.2468    1.4220 C.3       1 RES1    0.0000
     15 C8         1.5206    0.8414   -0.6228 C.2       1 RES1    0.0000
     16 C9         1.5199    1.1353   -2.0882 C.3       1 RES1    0.0000
     17 C10        1.9429    2.6030    6.5373 C.2       1 RES1    0.0000
     18 C11        2.4721    2.5584    7.9423 C.3       1 RES1    0.0000
     19 H1         3.7264    2.7612    5.7654 H         1 RES1    0.0000
     20 H2         3.6615    4.4193    3.9537 H         1 RES1    0.0000
     21 H3         3.1736    4.9033    1.7551 H         1 RES1    0.0000
     22 H4         1.7122    3.3222    0.6039 H         1 RES1    0.0000
     23 H5         0.6015    0.3683    1.5947 H         1 RES1    0.0000
     24 H6        -0.5394    1.3827    1.6513 H         1 RES1    0.0000
     25 H7         0.6267    1.0844   -2.3873 H         1 RES1    0.0000
     26 H8         1.6991    1.9164   -2.2269 H         1 RES1    0.0000
     27 H9         2.0415    0.4310   -2.6987 H         1 RES1    0.0000
     28 H10        2.1936    1.7765    8.3981 H         1 RES1    0.0000
     29 H11        2.0931    3.2511    8.3792 H         1 RES1    0.0000
     30 H12        3.4683    2.5909    8.0018 H         1 RES1    0.0000
@<TRIPOS>BOND
     1    1    7 2
     2    2    7 2
     3    3   14 1
     4    4   15 2
     5    5   17 2
     6    6   10 1
     7    7    9 1
     8    8    9 ar
     9    9   10 ar
    10   10   11 ar
    11   11   12 ar
    12   12   13 ar
    13   13    8 ar
    14   14    8 1
    15   15    3 1
    16   16   15 1
    17   17    6 1
    18   18   17 1
    19   19    6 1
    20   20   11 1
    21   21   12 1
    22   22   13 1
    23   23   14 1
    24   24   14 1
    25   25   16 1
    26   26   16 1
    27   27   16 1
    28   28   18 1
    29   29   18 1
    30   30   18 1
@<TRIPOS>SUBSTRUCTURE
     1 RES1 1

@<TRIPOS>CRYSIN
   4.8510    6.2880    9.7810  99.9600 101.2600  91.0400   1 1

