# MOL2 file generated by ConQuest
# Please check atom types

@<TRIPOS>MOLECULE
NUBJEZ
    24    24     1
SMALL
USER_CHARGES
****
Generated from CSD

@<TRIPOS>ATOM
      1 O1         6.4016    1.0806    1.3453 O.2       1 RES1    0.0000
      2 O2         5.4445    1.8673   -0.5153 O.3       1 RES1    0.0000
      3 O3         4.4359   -1.5586   -2.1285 O.2       1 RES1   -1.0000
      4 N1         4.4688    0.6657   -2.1446 N.2       1 RES1    0.0000
      5 N2         4.1179   -0.4526   -2.6130 N.pl3     1 RES1    1.0000
      6 C1         6.0895    3.4374    1.0979 C.ar      1 RES1    0.0000
      7 C2         6.6860    3.7522    2.3085 C.ar      1 RES1    0.0000
      8 C3         6.7918    5.0582    2.7067 C.ar      1 RES1    0.0000
      9 C4         6.3014    6.0634    1.9133 C.ar      1 RES1    0.0000
     10 C5         5.7069    5.7669    0.7202 C.ar      1 RES1    0.0000
     11 C6         5.5916    4.4539    0.3103 C.ar      1 RES1    0.0000
     12 C7         6.0039    2.0147    0.6910 C.2       1 RES1    0.0000
     13 C8         5.2860    0.5228   -0.9735 C.3       1 RES1    0.0000
     14 C9         3.2759   -0.4350   -3.8193 C.3       1 RES1    0.0000
     15 H1         7.0507    3.0348    2.8107 H         1 RES1    0.0000
     16 H2         7.0929    5.2187    3.5865 H         1 RES1    0.0000
     17 H3         6.3759    6.9817    2.0787 H         1 RES1    0.0000
     18 H4         5.3604    6.4555    0.0732 H         1 RES1    0.0000
     19 H5         5.1824    4.2890   -0.5416 H         1 RES1    0.0000
     20 H6         6.2396    0.0877   -1.2297 H         1 RES1    0.0000
     21 H7         4.8743   -0.0702   -0.2928 H         1 RES1    0.0000
     22 H8         2.3648   -0.7982   -3.5133 H         1 RES1    0.0000
     23 H9         3.1227    0.4035   -4.0550 H         1 RES1    0.0000
     24 H10        3.7150   -0.9560   -4.4356 H         1 RES1    0.0000
@<TRIPOS>BOND
     1    1   12 2
     2    2   12 1
     3    3    5 1
     4    4    5 2
     5    5   14 1
     6    6    7 ar
     7    7    8 ar
     8    8    9 ar
     9    9   10 ar
    10   10   11 ar
    11   11    6 ar
    12   12    6 1
    13   13    2 1
    14   14   22 1
    15   15    7 1
    16   16    8 1
    17   17    9 1
    18   18   10 1
    19   19   11 1
    20   20   13 1
    21   21   13 1
    22   23   14 1
    23   24   14 1
    24    4   13 1
@<TRIPOS>SUBSTRUCTURE
     1 RES1 1

@<TRIPOS>CRYSIN
   7.4360    8.7710   14.6400  90.0000  90.7300  90.0000  14 1

