# MOL2 file generated by ConQuest
# Please check atom types

@<TRIPOS>MOLECULE
NUBKEA
    68    72     2
SMALL
NO_CHARGES
****
Generated from CSD

@<TRIPOS>ATOM
      1 O1        -0.0730   11.8444   -1.3159 O.3       1 RES1    0.0000
      2 O2        -0.5461   11.4721    2.6761 O.3       1 RES1    0.0000
      3 O3        -4.2223    8.8597    4.1261 O.2       1 RES1    0.0000
      4 O4        -4.6381    6.9694    3.0733 O.2       1 RES1    0.0000
      5 N1        -1.1611   13.9657   -2.6634 N.ar      1 RES1    0.0000
      6 N2        -4.0740    8.1018    3.2998 N.pl3     1 RES1    0.0000
      7 C1        -1.6681   15.0420   -3.2530 C.ar      1 RES1    0.0000
      8 C2        -2.6913   15.8538   -2.7229 C.ar      1 RES1    0.0000
      9 C3        -3.1585   15.5645   -1.4082 C.ar      1 RES1    0.0000
     10 C4        -2.9795   14.1069    0.6099 C.ar      1 RES1    0.0000
     11 C5        -2.4065   13.1270    1.2083 C.ar      1 RES1    0.0000
     12 C6        -1.3654   12.2816    0.5795 C.ar      1 RES1    0.0000
     13 C7        -0.9850   12.6382   -0.6832 C.ar      1 RES1    0.0000
     14 C8        -1.6178   13.7257   -1.4082 C.ar      1 RES1    0.0000
     15 C9        -2.5713   14.5173   -0.7794 C.ar      1 RES1    0.0000
     16 C10       -0.7194   11.2344    1.3361 C.3       1 RES1    0.0000
     17 C11       -1.5000    9.9204    1.2096 C.ar      1 RES1    0.0000
     18 C12       -1.4231    9.0391    0.1000 C.ar      1 RES1    0.0000
     19 C13       -2.1616    7.8439    0.0139 C.ar      1 RES1    0.0000
     20 C14       -3.1049    7.4941    1.0160 C.ar      1 RES1    0.0000
     21 C15       -3.1479    8.3978    2.0611 C.ar      1 RES1    0.0000
     22 C16       -2.4348    9.5100    2.2319 C.ar      1 RES1    0.0000
     23 O5         0.3262   13.7369   -5.0206 O.3       2 RES2    0.0000
     24 O6         0.8086   14.0038   -9.0796 O.3       2 RES2    0.0000
     25 O7         4.5388   16.7911  -10.4891 O.2       2 RES2    0.0000
     26 O8         5.0698   18.5469   -9.5161 O.2       2 RES2    0.0000
     27 N3         1.4373   11.6201   -3.6503 N.ar      2 RES2    0.0000
     28 N4         4.3602   17.5939   -9.4339 N.pl3     2 RES2    0.0000
     29 C17        2.0244   10.6402   -3.0113 C.ar      2 RES2    0.0000
     30 C18        2.9715    9.8083   -3.5934 C.ar      2 RES2    0.0000
     31 C19        3.3852   10.0415   -4.8017 C.ar      2 RES2    0.0000
     32 C20        3.2459   11.4318   -6.8552 C.ar      2 RES2    0.0000
     33 C21        2.6273   12.5574   -7.5220 C.ar      2 RES2    0.0000
     34 C22        1.6570   13.2369   -6.9286 C.ar      2 RES2    0.0000
     35 C23        1.2881   12.9947   -5.5963 C.ar      2 RES2    0.0000
     36 C24        1.8440   11.8959   -4.9497 C.ar      2 RES2    0.0000
     37 C25        2.8707   11.1492   -5.6229 C.ar      2 RES2    0.0000
     38 C26        0.9725   14.5038   -7.6524 C.3       2 RES2    0.0000
     39 C27        1.8378   15.7035   -7.6018 C.ar      2 RES2    0.0000
     40 C28        1.7016   16.4772   -6.4908 C.ar      2 RES2    0.0000
     41 C29        2.4723   17.5804   -6.3529 C.ar      2 RES2    0.0000
     42 C30        3.3295   17.9459   -7.3398 C.ar      2 RES2    0.0000
     43 C31        3.4784   17.1633   -8.4786 C.ar      2 RES2    0.0000
     44 C32        2.6838   16.0040   -8.5811 C.ar      2 RES2    0.0000
     45 H1        -1.3064   15.2842   -4.0932 H         1 RES1    0.0000
     46 H2        -3.0406   16.5870   -3.2214 H         1 RES1    0.0000
     47 H3        -3.8531   16.0713   -0.9920 H         1 RES1    0.0000
     48 H4        -3.6601   14.5868    1.0603 H         1 RES1    0.0000
     49 H5        -2.6775   12.9274    2.0940 H         1 RES1    0.0000
     50 H6         0.1508   11.0932    0.9553 H         1 RES1    0.0000
     51 H7        -0.8277    9.2723   -0.6023 H         1 RES1    0.0000
     52 H8        -2.0426    7.2811   -0.7452 H         1 RES1    0.0000
     53 H9        -3.6552    6.7137    0.9983 H         1 RES1    0.0000
     54 H10       -2.5459   10.0482    3.0139 H         1 RES1    0.0000
     55 H11        1.7962   10.4877   -2.0978 H         2 RES2    0.0000
     56 H12        3.3318    9.0817   -3.1075 H         2 RES2    0.0000
     57 H13        4.0432    9.4674   -5.1648 H         2 RES2    0.0000
     58 H14        3.9191   10.9138   -7.2816 H         2 RES2    0.0000
     59 H15        2.9058   12.8086   -8.3964 H         2 RES2    0.0000
     60 H16        0.1368   14.6877   -7.2690 H         2 RES2    0.0000
     61 H17        1.0893   16.2574   -5.8013 H         2 RES2    0.0000
     62 H18        2.4036   18.1186   -5.5761 H         2 RES2    0.0000
     63 H19        3.8317   18.7420   -7.2260 H         2 RES2    0.0000
     64 H20        2.7529   15.4524   -9.3466 H         2 RES2    0.0000
     65 H21        0.0704   12.1650   -2.1990 H         1 RES1    0.0000
     66 H22        0.1355   10.9160    3.0227 H         1 RES1    0.0000
     67 H23        0.1773   13.4208   -4.1400 H         2 RES2    0.0000
     68 H24        0.4884   14.7191   -9.6224 H         2 RES2    0.0000
@<TRIPOS>BOND
     1    1   13 1
     2    2   16 1
     3    3    6 2
     4    4    6 2
     5    5    7 ar
     6    6   21 1
     7    7    8 ar
     8    8    9 ar
     9    9   15 ar
    10   10   11 ar
    11   11   12 ar
    12   12   13 ar
    13   13   14 ar
    14   14    5 ar
    15   15   10 ar
    16   16   12 1
    17   17   16 1
    18   18   17 ar
    19   19   18 ar
    20   20   19 ar
    21   21   20 ar
    22   22   17 ar
    23   23   35 1
    24   24   38 1
    25   25   28 2
    26   26   28 2
    27   27   29 ar
    28   28   43 1
    29   29   30 ar
    30   30   31 ar
    31   31   37 ar
    32   32   33 ar
    33   33   34 ar
    34   34   35 ar
    35   35   36 ar
    36   36   27 ar
    37   37   32 ar
    38   38   34 1
    39   39   38 1
    40   40   39 ar
    41   41   40 ar
    42   42   41 ar
    43   43   42 ar
    44   44   39 ar
    45   45    7 1
    46   46    8 1
    47   47    9 1
    48   48   10 1
    49   49   11 1
    50   50   16 1
    51   51   18 1
    52   52   19 1
    53   53   20 1
    54   54   22 1
    55   55   29 1
    56   56   30 1
    57   57   31 1
    58   58   32 1
    59   59   33 1
    60   60   38 1
    61   61   40 1
    62   62   41 1
    63   63   42 1
    64   64   44 1
    65   65    1 1
    66   66    2 1
    67   67   23 1
    68   68   24 1
    69   14   15 ar
    70   21   22 ar
    71   36   37 ar
    72   43   44 ar
@<TRIPOS>SUBSTRUCTURE
     1 RES1 1
     2 RES2 23

@<TRIPOS>CRYSIN
   4.7390   22.4240   12.6670  90.0000  92.7200  90.0000   4 1

