# MOL2 file generated by ConQuest
# Please check atom types

@<TRIPOS>MOLECULE
NUBTUA
    67    58     2
SMALL
NO_CHARGES
****
Generated from CSD

@<TRIPOS>ATOM
      1 C1         7.4702    8.8273   -0.5040 C.3       1 RES1    0.0000
      2 H1         7.2391    9.6756   -0.9374 H         1 RES1    0.0000
      3 H2         7.5188    8.1181   -1.1796 H         1 RES1    0.0000
      4 H3         8.3380    8.9138   -0.0585 H         1 RES1    0.0000
      5 C2         6.7401    7.4649    1.2915 C.2       1 RES1    0.0000
      6 C3         5.5960    7.2573    2.2776 C.3       1 RES1    0.0000
      7 C4         4.2964    6.9859    1.5268 C.3       1 RES1    0.0000
      8 H4         4.4152    6.2123    0.9374 H         1 RES1    0.0000
      9 H5         4.0587    7.7710    0.9917 H         1 RES1    0.0000
     10 H6         3.5807    6.8000    2.1692 H         1 RES1    0.0000
     11 C5         5.6238    8.4063    3.3069 C.3       1 RES1    0.0000
     12 H7         5.9757    9.2333    2.8686 H         1 RES1    0.0000
     13 C6         4.2851    8.7276    3.9954 C.3       1 RES1    0.0000
     14 H8         3.8196    9.4275    3.4741 H         1 RES1    0.0000
     15 H9         3.7184    7.9164    3.9814 H         1 RES1    0.0000
     16 C7         4.4239    9.2065    5.4481 C.3       1 RES1    0.0000
     17 H10        4.6616   10.1680    5.4408 H         1 RES1    0.0000
     18 H11        3.5440    9.1205    5.8938 H         1 RES1    0.0000
     19 C8         6.6976    7.8303    4.2343 C.3       1 RES1    0.0000
     20 H12        7.5789    7.8801    3.7643 H         1 RES1    0.0000
     21 C9         5.4688    8.4517    6.2805 C.3       1 RES1    0.0000
     22 C10        4.9852    6.9704    6.3818 C.3       1 RES1    0.0000
     23 H13        4.0292    6.9979    6.6726 H         1 RES1    0.0000
     24 C11        5.6987    6.0774    7.3342 C.2       1 RES1    0.0000
     25 H14        6.5893    5.8314    7.1131 H         1 RES1    0.0000
     26 C12        5.1961    5.5908    8.4727 C.2       1 RES1    0.0000
     27 C13        6.0061    4.6862    9.3527 C.3       1 RES1    0.0000
     28 H15        6.0590    5.0683   10.2531 H         1 RES1    0.0000
     29 H16        6.9094    4.5947    8.9838 H         1 RES1    0.0000
     30 H17        5.5798    3.8053    9.3972 H         1 RES1    0.0000
     31 C14        3.8139    5.8652    8.9846 C.3       1 RES1    0.0000
     32 H18        3.3662    5.0170    9.1884 H         1 RES1    0.0000
     33 H19        3.3029    6.3489    8.3032 H         1 RES1    0.0000
     34 H20        3.8688    6.4090    9.7980 H         1 RES1    0.0000
     35 C15        6.8256    8.5415    5.5602 C.3       1 RES1    0.0000
     36 C16        7.2785   10.0183    5.3617 C.3       1 RES1    0.0000
     37 H21        8.1714   10.0440    4.9355 H         1 RES1    0.0000
     38 H22        6.6383   10.4938    4.7748 H         1 RES1    0.0000
     39 C17        7.3347   10.6993    6.7417 C.3       1 RES1    0.0000
     40 H23        8.2350   11.0814    6.8939 H         1 RES1    0.0000
     41 H24        6.6723   11.4335    6.7832 H         1 RES1    0.0000
     42 C18        7.0259    9.6618    7.8067 C.3       1 RES1    0.0000
     43 H25        7.1364   10.0715    8.7124 H         1 RES1    0.0000
     44 C19        5.6296    9.1071    7.6733 C.3       1 RES1    0.0000
     45 H26        4.9679    9.8360    7.7791 H         1 RES1    0.0000
     46 H27        5.4670    8.4339    8.3804 H         1 RES1    0.0000
     47 C20        7.9109    7.9602    6.4360 C.2       1 RES1    0.0000
     48 N1         6.3262    6.3991    4.3796 N.3       1 RES1    0.0000
     49 O1         6.4539    8.4910    0.4760 O.3       1 RES1    0.0000
     50 O2         7.7646    6.8423    1.2516 O.2       1 RES1    0.0000
     51 O3         5.9184    6.0580    3.0624 O.3       1 RES1    0.0000
     52 O4         5.0039    6.3633    5.0733 O.3       1 RES1    0.0000
     53 O5         7.9785    8.5515    7.6516 O.3       1 RES1    0.0000
     54 O6         8.7038    7.0974    6.1383 O.2       1 RES1    0.0000
     55 C21        5.4481    6.8714    6.3907 Du        2 SUP2    0.0000
     56 C22        4.4577    6.4955    7.4117 Du        2 SUP2    0.0000
     57 C23        4.5716    5.7876    8.5203 Du        2 SUP2    0.0000
     58 C24        5.8681    5.1849    8.9754 Du        2 SUP2    0.0000
     59 C25        3.4268    5.4944    9.4661 Du        2 SUP2    0.0000
     60 H28        6.3575    6.5181    6.6225 Du        2 SUP2    0.0000
     61 H29        3.5834    6.8200    7.2426 Du        2 SUP2    0.0000
     62 H30        6.6106    5.7713    8.7186 Du        2 SUP2    0.0000
     63 H31        5.9848    4.3065    8.5558 Du        2 SUP2    0.0000
     64 H32        5.8565    5.0809    9.9504 Du        2 SUP2    0.0000
     65 H33        3.5290    4.5884    9.8293 Du        2 SUP2    0.0000
     66 H34        2.5805    5.5608    8.9817 Du        2 SUP2    0.0000
     67 H35        3.4381    6.1422   10.2010 Du        2 SUP2    0.0000
@<TRIPOS>BOND
     1    1    2 1
     2    3    1 1
     3    4    1 1
     4    5    6 1
     5    6    7 1
     6    7    8 1
     7    9    7 1
     8   10    7 1
     9   11    6 1
    10   12   11 1
    11   13   11 1
    12   14   13 1
    13   15   13 1
    14   16   13 1
    15   17   16 1
    16   18   16 1
    17   19   11 1
    18   20   19 1
    19   21   16 1
    20   22   21 1
    21   23   22 1
    22   24   22 1
    23   25   24 1
    24   26   24 2
    25   27   26 1
    26   28   27 1
    27   29   27 1
    28   30   27 1
    29   31   26 1
    30   32   31 1
    31   33   31 1
    32   34   31 1
    33   35   19 1
    34   36   35 1
    35   37   36 1
    36   38   36 1
    37   39   36 1
    38   40   39 1
    39   41   39 1
    40   42   39 1
    41   43   42 1
    42   44   21 1
    43   45   44 1
    44   46   44 1
    45   47   35 1
    46   48   19 1
    47   49    1 1
    48   50    5 2
    49   51    6 1
    50   52   22 1
    51   53   42 1
    52   54   47 2
    53    5   49 1
    54   21   35 1
    55   42   44 1
    56   47   53 1
    57   48   51 1
    58   48   52 1
@<TRIPOS>SUBSTRUCTURE
     1 RES1 1
     2 SUP2 55

@<TRIPOS>CRYSIN
   6.9937   12.5299   20.9558  90.0000  94.9410  90.0000 231 1

