# MOL2 file generated by ConQuest
# Please check atom types

@<TRIPOS>MOLECULE
NUBTOU
    50    54     1
SMALL
NO_CHARGES
****
Generated from CSD

@<TRIPOS>ATOM
      1 C1         2.5713   15.3659   -1.2790 C.3       1 RES1    0.0000
      2 C2         2.0891   15.0979    0.1500 C.3       1 RES1    0.0000
      3 H1         2.6413   14.3653    0.5497 H         1 RES1    0.0000
      4 C3         0.6924   14.5589   -0.1640 C.3       1 RES1    0.0000
      5 H2         0.7873   13.6335   -0.5291 H         1 RES1    0.0000
      6 C4        -0.2746   14.5165    0.9916 C.3       1 RES1    0.0000
      7 C5         0.1904   13.5235    2.0955 C.3       1 RES1    0.0000
      8 H3         0.2662   12.6109    1.7194 H         1 RES1    0.0000
      9 H4         1.0782   13.7934    2.4421 H         1 RES1    0.0000
     10 C6        -0.8481   13.5383    3.2371 C.3       1 RES1    0.0000
     11 H5        -1.2208   12.6302    3.3650 H         1 RES1    0.0000
     12 H6        -0.4165   13.8177    4.0824 H         1 RES1    0.0000
     13 C7        -1.9529   14.5015    2.8832 C.3       1 RES1    0.0000
     14 H7        -2.6527   14.4841    3.5962 H         1 RES1    0.0000
     15 C8        -1.4275   15.9196    2.7236 C.3       1 RES1    0.0000
     16 H8        -0.9964   16.2167    3.5637 H         1 RES1    0.0000
     17 H9        -2.1754   16.5366    2.5233 H         1 RES1    0.0000
     18 C9        -0.4016   15.9443    1.5687 C.3       1 RES1    0.0000
     19 C10        0.9751   16.3687    2.0970 C.3       1 RES1    0.0000
     20 H10        0.9052   17.2951    2.4398 H         1 RES1    0.0000
     21 H11        1.2094   15.7854    2.8625 H         1 RES1    0.0000
     22 C11        2.1117   16.3151    1.0899 C.3       1 RES1    0.0000
     23 H12        2.9703   16.3161    1.5835 H         1 RES1    0.0000
     24 H13        2.0842   17.1376    0.5394 H         1 RES1    0.0000
     25 C12       -0.8158   16.9083    0.4345 C.3       1 RES1    0.0000
     26 H14       -0.6599   17.8234    0.8084 H         1 RES1    0.0000
     27 C13       -2.2724   16.9018    0.0347 C.2       1 RES1    0.0000
     28 C14       -3.9078   16.1077   -1.4505 C.3       1 RES1    0.0000
     29 H15       -4.0618   15.2547   -1.9093 H         1 RES1    0.0000
     30 H16       -4.1151   16.8492   -2.0586 H         1 RES1    0.0000
     31 H17       -4.4859   16.1634   -0.6606 H         1 RES1    0.0000
     32 C15       -1.6185   13.9354    0.6192 C.2       1 RES1    0.0000
     33 C16        3.5189   16.5303   -1.5221 C.3       1 RES1    0.0000
     34 H18        3.7709   16.5536   -2.4694 H         1 RES1    0.0000
     35 H19        4.3223   16.4179   -0.9739 H         1 RES1    0.0000
     36 H20        3.0730   17.3702   -1.2805 H         1 RES1    0.0000
     37 C17        3.1814   14.0927   -1.8739 C.2       1 RES1    0.0000
     38 C18        5.0025   12.5876   -1.7224 C.3       1 RES1    0.0000
     39 H21        5.8303   12.4655   -1.2118 H         1 RES1    0.0000
     40 H22        5.2142   12.6424   -2.6778 H         1 RES1    0.0000
     41 H23        4.4060   11.8281   -1.5628 H         1 RES1    0.0000
     42 N1         0.1949   15.4427   -1.2524 N.3       1 RES1    0.0000
     43 O1         1.3566   15.6189   -2.0423 O.3       1 RES1    0.0000
     44 O2         0.0692   16.8162   -0.6790 O.3       1 RES1    0.0000
     45 O3        -2.5434   14.0748    1.6005 O.3       1 RES1    0.0000
     46 O4        -1.8921   13.3199   -0.3717 O.2       1 RES1    0.0000
     47 O5        -2.5299   16.1913   -1.0426 O.3       1 RES1    0.0000
     48 O6        -3.1171   17.4914    0.6443 O.2       1 RES1    0.0000
     49 O7         4.3463   13.8191   -1.2990 O.3       1 RES1    0.0000
     50 O8         2.6978   13.4420   -2.7531 O.2       1 RES1    0.0000
@<TRIPOS>BOND
     1    1    2 1
     2    2    3 1
     3    4    2 1
     4    5    4 1
     5    6    4 1
     6    7    6 1
     7    8    7 1
     8    9    7 1
     9   10    7 1
    10   11   10 1
    11   12   10 1
    12   13   10 1
    13   14   13 1
    14   15   13 1
    15   16   15 1
    16   17   15 1
    17   18    6 1
    18   19   18 1
    19   20   19 1
    20   21   19 1
    21   22    2 1
    22   23   22 1
    23   24   22 1
    24   25   18 1
    25   26   25 1
    26   27   25 1
    27   28   29 1
    28   30   28 1
    29   31   28 1
    30   32    6 1
    31   33    1 1
    32   34   33 1
    33   35   33 1
    34   36   33 1
    35   37    1 1
    36   38   39 1
    37   40   38 1
    38   41   38 1
    39   42    4 1
    40   43    1 1
    41   44   25 1
    42   45   13 1
    43   46   32 2
    44   47   27 1
    45   48   27 2
    46   49   37 1
    47   50   37 2
    48   15   18 1
    49   19   22 1
    50   28   47 1
    51   32   45 1
    52   38   49 1
    53   42   43 1
    54   42   44 1
@<TRIPOS>SUBSTRUCTURE
     1 RES1 1

@<TRIPOS>CRYSIN
  19.0160   24.2330    7.3890  90.0000  90.0000  90.0000  56 1

