# MOL2 file generated by ConQuest
# Please check atom types

@<TRIPOS>MOLECULE
NUBVOX
    46    46     2
SMALL
NO_CHARGES
****
Generated from CSD

@<TRIPOS>ATOM
      1 C1         0.9253    6.9316   15.0499 C.ar      1 RES1    0.0000
      2 N1         3.1926   11.0042   16.0553 N.2       1 RES1    0.0000
      3 C2        -0.3768    4.9675   14.5266 C.ar      1 RES1    0.0000
      4 C3         1.6891    4.7253   15.6794 C.ar      1 RES1    0.0000
      5 O1         3.3072   12.4075   15.9890 O.3       1 RES1    0.0000
      6 H1         3.9530   12.6499   16.4327 H         1 RES1    0.0000
      7 C4         1.0897    8.3914   14.9585 C.2       1 RES1    0.0000
      8 C5         1.8546    6.0949   15.6469 C.ar      1 RES1    0.0000
      9 C6         1.2793   11.3882   14.5870 C.3       1 RES1    0.0000
     10 H2         1.6505   12.2690   14.4838 H         1 RES1    0.0000
     11 H3         0.4339   11.4499   15.0381 H         1 RES1    0.0000
     12 H4         1.1529   10.9919   13.7231 H         1 RES1    0.0000
     13 C7         0.5815    4.1682   15.1236 C.ar      1 RES1    0.0000
     14 C8         2.2147   10.5449   15.3919 C.2       1 RES1    0.0000
     15 C9         2.0699    9.0916   15.4671 C.2       1 RES1    0.0000
     16 C10       -0.1963    6.3349   14.5000 C.ar      1 RES1    0.0000
     17 H5         2.6055    6.4560   16.1128 H         1 RES1    0.0000
     18 H6        -1.1182    4.6020   14.0489 H         1 RES1    0.0000
     19 H7         2.7732    8.7415   16.0391 H         1 RES1    0.0000
     20 H8         0.3075    8.8076   14.4322 H         1 RES1    0.0000
     21 H9         2.3707    4.1616   16.0980 H         1 RES1    0.0000
     22 H10        0.4920    3.1047   15.1841 H         1 RES1    0.0000
     23 H11       -0.8610    6.9140   13.9015 H         1 RES1    0.0000
     24 C11        2.5104    5.1216   11.9984 C.ar      2 RES2    0.0000
     25 O2         5.8663   11.2834   10.5197 O.3       2 RES2    0.0000
     26 H12        6.5165   11.5424   10.0922 H         2 RES2    0.0000
     27 C12        4.5893    4.9543   10.8559 C.ar      2 RES2    0.0000
     28 C13        4.6860    7.9356   10.9959 C.2       2 RES2    0.0000
     29 C14        2.4294    3.7366   12.0146 C.ar      2 RES2    0.0000
     30 N2         5.7785    9.8762   10.4342 N.2       2 RES2    0.0000
     31 C15        3.6041    5.7382   11.4352 C.ar      2 RES2    0.0000
     32 C16        4.5048    3.5781   10.8765 C.ar      2 RES2    0.0000
     33 C17        3.4140    2.9836   11.4617 C.ar      2 RES2    0.0000
     34 C18        4.7861    9.3977   11.0785 C.2       2 RES2    0.0000
     35 C19        3.7019    7.2222   11.4794 C.2       2 RES2    0.0000
     36 C20        3.8384   10.2124   11.8804 C.3       2 RES2    0.0000
     37 H13        3.8658    9.9240   12.7959 H         2 RES2    0.0000
     38 H14        2.9494   10.1001   11.5369 H         2 RES2    0.0000
     39 H15        4.0877   11.1372   11.8288 H         2 RES2    0.0000
     40 H16        2.8180    7.6560   11.9114 H         2 RES2    0.0000
     41 H17        5.4123    7.5525   10.5994 H         2 RES2    0.0000
     42 H18        5.3116    5.2405   10.5846 H         2 RES2    0.0000
     43 H19        1.8060    5.6589   12.2504 H         2 RES2    0.0000
     44 H20        5.2334    2.9946   10.5846 H         2 RES2    0.0000
     45 H21        1.5823    3.2808   12.3389 H         2 RES2    0.0000
     46 H22        3.4218    2.0478   11.4691 H         2 RES2    0.0000
@<TRIPOS>BOND
     1    1    7 1
     2    2    5 1
     3    3   13 ar
     4    4    8 ar
     5    5    6 1
     6    7   15 2
     7    8    1 ar
     8    9   10 1
     9   11    9 1
    10   12    9 1
    11   13    4 ar
    12   14    2 2
    13   15   14 1
    14   16    1 ar
    15   17    8 1
    16   18    3 1
    17   19   15 1
    18   20    7 1
    19   21    4 1
    20   22   13 1
    21   23   16 1
    22   24   29 ar
    23   25   26 1
    24   27   31 ar
    25   28   34 1
    26   29   33 ar
    27   30   25 1
    28   31   24 ar
    29   32   27 ar
    30   33   32 ar
    31   34   30 2
    32   35   28 2
    33   36   34 1
    34   37   36 1
    35   38   36 1
    36   39   36 1
    37   40   35 1
    38   41   28 1
    39   42   27 1
    40   43   24 1
    41   44   32 1
    42   45   29 1
    43   46   33 1
    44    3   16 ar
    45    9   14 1
    46   31   35 1
@<TRIPOS>SUBSTRUCTURE
     1 RES1 1
     2 RES2 24

@<TRIPOS>CRYSIN
   5.5912   22.0190   14.7418  90.0000  90.0000  90.0000  29 5

