# MOL2 file generated by ConQuest
# Please check atom types

@<TRIPOS>MOLECULE
NUBZEQ
    55    58     1
SMALL
NO_CHARGES
****
Generated from CSD

@<TRIPOS>ATOM
      1 O1         1.9768    1.1878    7.0996 O.3       1 RES1    0.0000
      2 O2        -3.1576    5.5050    4.4423 O.2       1 RES1    0.0000
      3 O3        -1.5957    6.7228    5.2778 O.2       1 RES1    0.0000
      4 N1        -2.0866    5.6362    5.0169 N.pl3     1 RES1    0.0000
      5 C1         4.8949    1.7424    6.8492 C.2       1 RES1    0.0000
      6 C2         5.6008    1.3176    5.6078 C.3       1 RES1    0.0000
      7 H1         6.5300    0.9844    5.7652 H         1 RES1    0.0000
      8 C3         2.8925    0.0817    7.2288 C.3       1 RES1    0.0000
      9 C4         4.2017    0.7188    7.7530 C.3       1 RES1    0.0000
     10 H2         4.8511   -0.0202    7.9342 H         1 RES1    0.0000
     11 C5         4.9107    2.9639    7.3961 C.2       1 RES1    0.0000
     12 C6         5.3918    1.9393    4.2273 C.3       1 RES1    0.0000
     13 C7         3.3732    0.2857    4.6886 C.3       1 RES1    0.0000
     14 H3         3.0278   -0.1306    3.8602 H         1 RES1    0.0000
     15 H4         2.8957    1.1432    4.8203 H         1 RES1    0.0000
     16 C8         3.0820   -0.6396    5.8769 C.3       1 RES1    0.0000
     17 H5         3.8287   -1.2835    5.9651 H         1 RES1    0.0000
     18 H6         2.2609   -1.1586    5.6782 H         1 RES1    0.0000
     19 C9         4.4307    3.0890    4.0280 C.3       1 RES1    0.0000
     20 H7         4.0145    3.0170    3.1444 H         1 RES1    0.0000
     21 H8         4.9193    3.9369    4.0907 H         1 RES1    0.0000
     22 H9         3.7369    3.0581    4.7196 H         1 RES1    0.0000
     23 C10       -0.0158    2.1474    6.2159 C.ar      1 RES1    0.0000
     24 C11        4.8511    0.5594    4.5267 C.3       1 RES1    0.0000
     25 H10        5.3676   -0.1879    4.1106 H         1 RES1    0.0000
     26 C12       -1.9250    3.1896    5.1479 C.ar      1 RES1    0.0000
     27 H11       -2.7557    3.1250    4.6921 H         1 RES1    0.0000
     28 C13        6.6114    2.0029    3.3249 C.3       1 RES1    0.0000
     29 H12        6.3289    1.9511    2.3888 H         1 RES1    0.0000
     30 H13        7.2060    1.2521    3.5275 H         1 RES1    0.0000
     31 H14        7.0870    2.8468    3.4771 H         1 RES1    0.0000
     32 C14        5.6111    4.1870    6.8868 C.3       1 RES1    0.0000
     33 H15        6.1672    3.9482    6.1147 H         1 RES1    0.0000
     34 H16        6.1778    4.5577    7.5953 H         1 RES1    0.0000
     35 H17        4.9464    4.8552    6.6169 H         1 RES1    0.0000
     36 C15        4.0128    1.5219    9.0723 C.3       1 RES1    0.0000
     37 H18        3.1168    1.3480    9.4590 H         1 RES1    0.0000
     38 H19        4.7017    1.2642    9.7369 H         1 RES1    0.0000
     39 C16        4.1562    3.0007    8.6972 C.3       1 RES1    0.0000
     40 H20        3.2686    3.4257    8.5814 H         1 RES1    0.0000
     41 H21        4.6635    3.4951    9.3888 H         1 RES1    0.0000
     42 C17       -1.3650    4.4245    5.4243 C.ar      1 RES1    0.0000
     43 C18        0.5308    3.4080    6.4560 C.ar      1 RES1    0.0000
     44 H22        1.3731    3.4805    6.8901 H         1 RES1    0.0000
     45 C19        0.6758    0.8785    6.6366 C.3       1 RES1    0.0000
     46 H23        0.1605    0.4378    7.3572 H         1 RES1    0.0000
     47 H24        0.7316    0.2564    5.8690 H         1 RES1    0.0000
     48 C20       -1.2470    2.0491    5.5512 C.ar      1 RES1    0.0000
     49 H25       -1.6206    1.1932    5.3760 H         1 RES1    0.0000
     50 C21       -0.1439    4.5600    6.0671 C.ar      1 RES1    0.0000
     51 H26        0.2240    5.4195    6.2384 H         1 RES1    0.0000
     52 C22        2.3769   -0.9495    8.2466 C.3       1 RES1    0.0000
     53 H27        2.2087   -0.5063    9.1049 H         1 RES1    0.0000
     54 H28        3.0501   -1.6528    8.3677 H         1 RES1    0.0000
     55 H29        1.5440   -1.3472    7.9159 H         1 RES1    0.0000
@<TRIPOS>BOND
     1    1    8 1
     2    2    4 2
     3    3    4 2
     4    4   42 1
     5    5    6 1
     6    6    7 1
     7    8    9 1
     8    9    5 1
     9   10    9 1
    10   11    5 2
    11   12    6 1
    12   13   14 1
    13   15   13 1
    14   16    8 1
    15   17   16 1
    16   18   16 1
    17   19   12 1
    18   20   19 1
    19   21   19 1
    20   22   19 1
    21   23   43 ar
    22   24    6 1
    23   25   24 1
    24   26   27 1
    25   28   12 1
    26   29   28 1
    27   30   28 1
    28   31   28 1
    29   32   11 1
    30   33   32 1
    31   34   32 1
    32   35   32 1
    33   36    9 1
    34   37   36 1
    35   38   36 1
    36   39   11 1
    37   40   39 1
    38   41   39 1
    39   42   26 ar
    40   43   44 1
    41   45    1 1
    42   46   45 1
    43   47   45 1
    44   48   23 ar
    45   49   48 1
    46   50   42 ar
    47   51   50 1
    48   52    8 1
    49   53   52 1
    50   54   52 1
    51   55   52 1
    52   12   24 1
    53   13   16 1
    54   13   24 1
    55   23   45 1
    56   26   48 ar
    57   36   39 1
    58   43   50 ar
@<TRIPOS>SUBSTRUCTURE
     1 RES1 1

@<TRIPOS>CRYSIN
  31.5520    8.0624   15.4217  90.0000  98.2030  90.0000  15 1

