# MOL2 file generated by ConQuest
# Please check atom types

@<TRIPOS>MOLECULE
NUBZAM
   110   116     2
SMALL
NO_CHARGES
****
Generated from CSD

@<TRIPOS>ATOM
      1 N1         1.2806    5.2259    9.5085 N.pl3     1 RES1    0.0000
      2 O1         3.4653    0.9408    5.3031 O.3       1 RES1    0.0000
      3 O2         1.4754    5.3014   10.7138 O.2       1 RES1    0.0000
      4 O3         0.5421    5.9882    8.8852 O.2       1 RES1    0.0000
      5 O4         8.1661    3.3892   10.6430 O.3       2 RES2    0.0000
      6 O5        10.0835   -0.6725    4.9766 O.2       2 RES2    0.0000
      7 O6        11.2198   -1.3291    6.7030 O.2       2 RES2    0.0000
      8 N2        10.3604   -0.6221    6.1704 N.pl3     2 RES2    0.0000
      9 C1         9.6304    0.3320    7.0087 C.ar      2 RES2    0.0000
     10 C2         8.2946    2.1810    8.5723 C.ar      2 RES2    0.0000
     11 C3        10.0470    0.5279    8.3180 C.ar      2 RES2    0.0000
     12 H1        10.7801    0.0398    8.6746 H         2 RES2    0.0000
     13 C4         6.4391    4.9694   11.4234 C.3       2 RES2    0.0000
     14 H2         5.8756    4.7393   10.6302 H         2 RES2    0.0000
     15 C5         7.3140    3.7451   11.7706 C.3       2 RES2    0.0000
     16 C6         8.5568    1.0160    6.4604 C.ar      2 RES2    0.0000
     17 H3         8.2817    0.8521    5.5654 H         2 RES2    0.0000
     18 C7         9.3626    1.4593    9.0978 C.ar      2 RES2    0.0000
     19 H4         9.6283    1.6036    9.9983 H         2 RES2    0.0000
     20 C8         7.8942    1.9462    7.2496 C.ar      2 RES2    0.0000
     21 H5         7.1598    2.4295    6.8891 H         2 RES2    0.0000
     22 C9         6.4882    2.4869   12.1164 C.3       2 RES2    0.0000
     23 H6         5.8739    2.3026   11.3625 H         2 RES2    0.0000
     24 H7         7.1086    1.7189   12.1872 H         2 RES2    0.0000
     25 C10        5.5261    5.4723   12.5284 C.2       2 RES2    0.0000
     26 C11        4.2769    4.7331   12.8576 C.3       2 RES2    0.0000
     27 H8         3.5160    4.9482   12.2455 H         2 RES2    0.0000
     28 C12        5.6592    2.5576   13.4054 C.3       2 RES2    0.0000
     29 H9         5.4896    1.6365   13.7264 H         2 RES2    0.0000
     30 H10        6.1882    3.0254   14.0990 H         2 RES2    0.0000
     31 C13        7.5357    3.2032    9.3799 C.3       2 RES2    0.0000
     32 H11        7.5106    4.0632    8.8901 H         2 RES2    0.0000
     33 H12        6.6043    2.8971    9.5139 H         2 RES2    0.0000
     34 C14        4.3448    3.2634   13.2418 C.3       2 RES2    0.0000
     35 H13        3.6287    2.7001   12.8288 H         2 RES2    0.0000
     36 C15        3.8304    4.2791   14.2452 C.3       2 RES2    0.0000
     37 C16        7.2876    6.2153   11.0736 C.3       2 RES2    0.0000
     38 H14        8.2320    5.9628   10.9202 H         2 RES2    0.0000
     39 H15        6.9388    6.6581   10.2608 H         2 RES2    0.0000
     40 C17        5.9025    6.6806   12.9735 C.2       2 RES2    0.0000
     41 C18        8.3296    4.0243   12.8738 C.3       2 RES2    0.0000
     42 H16        8.7785    3.1897   13.1237 H         2 RES2    0.0000
     43 H17        7.8693    4.3943   13.6551 H         2 RES2    0.0000
     44 H18        8.9939    4.6679   12.5501 H         2 RES2    0.0000
     45 C19        7.1645    7.1415   12.2904 C.3       2 RES2    0.0000
     46 H19        7.9471    7.0455   12.8887 H         2 RES2    0.0000
     47 H20        7.0896    8.0879   12.0090 H         2 RES2    0.0000
     48 C20        4.6456    4.6063   15.4701 C.3       2 RES2    0.0000
     49 H21        4.6019    3.8578   16.1016 H         2 RES2    0.0000
     50 H22        4.2867    5.4135   15.8958 H         2 RES2    0.0000
     51 H23        5.5782    4.7609   15.2105 H         2 RES2    0.0000
     52 C21        2.3417    4.2558   14.4722 C.3       2 RES2    0.0000
     53 H24        1.8869    4.0255   13.6357 H         2 RES2    0.0000
     54 H25        2.0435    5.1397   14.7730 H         2 RES2    0.0000
     55 H26        2.1263    3.5878   15.1554 H         2 RES2    0.0000
     56 C22        5.2293    7.5398   13.9861 C.3       2 RES2    0.0000
     57 H27        4.3779    7.1307   14.2481 H         2 RES2    0.0000
     58 H28        5.0612    8.4254   13.6033 H         2 RES2    0.0000
     59 H29        5.8054    7.6280   14.7747 H         2 RES2    0.0000
     60 C23        3.2875    2.1973    7.3327 C.ar      1 RES1    0.0000
     61 C24        5.3632    1.4916    3.8618 C.3       1 RES1    0.0000
     62 H30        5.9501    1.6622    4.6532 H         1 RES1    0.0000
     63 C25        1.9812    4.1722    8.7580 C.ar      1 RES1    0.0000
     64 C26        4.3268    0.4100    4.2543 C.3       1 RES1    0.0000
     65 C27        6.2537    1.1341    2.6767 C.2       1 RES1    0.0000
     66 C28        6.0448    1.9698    1.6413 C.2       1 RES1    0.0000
     67 C29        3.5122    2.3448    8.7059 C.ar      1 RES1    0.0000
     68 H31        4.1178    1.7624    9.1477 H         1 RES1    0.0000
     69 C30        7.5522   -1.0804    1.9117 C.3       1 RES1    0.0000
     70 C31        7.3383    0.1410    2.8051 C.3       1 RES1    0.0000
     71 H32        8.1959    0.5424    3.1270 H         1 RES1    0.0000
     72 C32        4.7076    2.8360    3.4455 C.3       1 RES1    0.0000
     73 H33        3.7302    2.8098    3.6050 H         1 RES1    0.0000
     74 H34        5.0939    3.5858    3.9630 H         1 RES1    0.0000
     75 C33        2.8571    3.3366    9.4311 C.ar      1 RES1    0.0000
     76 H35        3.0077    3.4375   10.3628 H         1 RES1    0.0000
     77 C34        7.0999   -1.2602    3.3512 C.3       1 RES1    0.0000
     78 H36        7.8151   -1.5871    3.9679 H         1 RES1    0.0000
     79 C35        2.3946    3.0547    6.6861 C.ar      1 RES1    0.0000
     80 H37        2.2346    2.9554    5.7550 H         1 RES1    0.0000
     81 C36        4.9794   -0.8955    4.7519 C.3       1 RES1    0.0000
     82 H38        5.6260   -0.6643    5.4650 H         1 RES1    0.0000
     83 H39        4.2743   -1.4549    5.1636 H         1 RES1    0.0000
     84 C37        4.0399    1.1193    6.5889 C.3       1 RES1    0.0000
     85 H40        4.9918    1.3769    6.4970 H         1 RES1    0.0000
     86 H41        3.9968    0.2695    7.0965 H         1 RES1    0.0000
     87 C38        1.7388    4.0516    7.3964 C.ar      1 RES1    0.0000
     88 H42        1.1354    4.6401    6.9588 H         1 RES1    0.0000
     89 C39        6.7971    1.9928    0.3483 C.3       1 RES1    0.0000
     90 H43        7.4503    1.2615    0.3370 H         1 RES1    0.0000
     91 H44        7.2636    2.8496    0.2576 H         1 RES1    0.0000
     92 H45        6.1699    1.8818   -0.3970 H         1 RES1    0.0000
     93 C40        5.7067   -1.7402    3.7033 C.3       1 RES1    0.0000
     94 H46        5.7692   -2.6697    4.0359 H         1 RES1    0.0000
     95 H47        5.1609   -1.7553    2.8775 H         1 RES1    0.0000
     96 C41        5.0039    3.0068    1.9483 C.3       1 RES1    0.0000
     97 H48        4.1876    2.8550    1.4096 H         1 RES1    0.0000
     98 H49        5.3468    3.9160    1.7595 H         1 RES1    0.0000
     99 C42        3.3293    0.1363    3.1246 C.3       1 RES1    0.0000
    100 H50        2.7302   -0.5933    3.3879 H         1 RES1    0.0000
    101 H51        3.8164   -0.1179    2.3137 H         1 RES1    0.0000
    102 H52        2.8038    0.9449    2.9504 H         1 RES1    0.0000
    103 C43        6.5847   -1.3876    0.7887 C.3       1 RES1    0.0000
    104 H53        6.9518   -1.0572   -0.0583 H         1 RES1    0.0000
    105 H54        5.7269   -0.9488    0.9673 H         1 RES1    0.0000
    106 H55        6.4497   -2.3566    0.7307 H         1 RES1    0.0000
    107 C44        8.9829   -1.4348    1.5859 C.3       1 RES1    0.0000
    108 H56        9.0438   -2.3913    1.3788 H         1 RES1    0.0000
    109 H57        9.5533   -1.2303    2.3558 H         1 RES1    0.0000
    110 H58        9.2804   -0.9136    0.8117 H         1 RES1    0.0000
@<TRIPOS>BOND
     1    1    3 2
     2    2   64 1
     3    4    1 2
     4    5   15 1
     5    6    8 2
     6    7    8 2
     7    8    9 1
     8    9   11 ar
     9   10   18 ar
    10   11   12 1
    11   13   14 1
    12   15   13 1
    13   16    9 ar
    14   17   16 1
    15   18   11 ar
    16   19   18 1
    17   20   10 ar
    18   21   20 1
    19   22   15 1
    20   23   22 1
    21   24   22 1
    22   25   13 1
    23   26   25 1
    24   27   26 1
    25   28   22 1
    26   29   28 1
    27   30   28 1
    28   31    5 1
    29   32   31 1
    30   33   31 1
    31   34   26 1
    32   35   34 1
    33   36   26 1
    34   37   13 1
    35   38   37 1
    36   39   37 1
    37   40   25 2
    38   41   15 1
    39   42   41 1
    40   43   41 1
    41   44   41 1
    42   45   37 1
    43   46   45 1
    44   47   45 1
    45   48   36 1
    46   49   48 1
    47   50   48 1
    48   51   48 1
    49   52   36 1
    50   53   52 1
    51   54   52 1
    52   55   52 1
    53   56   40 1
    54   57   56 1
    55   58   56 1
    56   59   56 1
    57   60   67 ar
    58   61   62 1
    59   63    1 1
    60   64   61 1
    61   65   61 1
    62   66   65 2
    63   67   68 1
    64   69   70 1
    65   70   65 1
    66   71   70 1
    67   72   61 1
    68   73   72 1
    69   74   72 1
    70   75   63 ar
    71   76   75 1
    72   77   69 1
    73   78   77 1
    74   79   60 ar
    75   80   79 1
    76   81   64 1
    77   82   81 1
    78   83   81 1
    79   84    2 1
    80   85   84 1
    81   86   84 1
    82   87   63 ar
    83   88   87 1
    84   89   66 1
    85   90   89 1
    86   91   89 1
    87   92   89 1
    88   93   77 1
    89   94   93 1
    90   95   93 1
    91   96   66 1
    92   97   96 1
    93   98   96 1
    94   99   64 1
    95  100   99 1
    96  101   99 1
    97  102   99 1
    98  103   69 1
    99  104  103 1
   100  105  103 1
   101  106  103 1
   102  107   69 1
   103  108  107 1
   104  109  107 1
   105  110  107 1
   106   10   31 1
   107   16   20 ar
   108   28   34 1
   109   34   36 1
   110   40   45 1
   111   60   84 1
   112   67   75 ar
   113   70   77 1
   114   72   96 1
   115   79   87 ar
   116   81   93 1
@<TRIPOS>SUBSTRUCTURE
     1 RES1 1
     2 RES2 5

@<TRIPOS>CRYSIN
   9.5546   12.3973   16.3925  93.8420  97.3160  96.9270   2 1

