# MOL2 file generated by ConQuest
# Please check atom types

@<TRIPOS>MOLECULE
NUBZIU
    42    44     1
SMALL
NO_CHARGES
****
Generated from CSD

@<TRIPOS>ATOM
      1 O1         3.7216    2.9158    5.2445 O.3       1 RES1    0.0000
      2 C1         4.6146    2.4956    6.2699 C.3       1 RES1    0.0000
      3 H1         5.1053    3.2915    6.6238 H         1 RES1    0.0000
      4 O2         1.4842    0.6856   11.5591 O.2       1 RES1    0.0000
      5 N1         1.5135    0.1212   10.4694 N.pl3     1 RES1    0.0000
      6 C2         5.6348    1.4672    5.7404 C.3       1 RES1    0.0000
      7 H2         6.3409    1.3114    6.4167 H         1 RES1    0.0000
      8 H3         5.1826    0.6062    5.5572 H         1 RES1    0.0000
      9 O3         0.9234   -0.9310   10.2290 O.2       1 RES1    0.0000
     10 C3         6.2400    2.0037    4.4852 C.2       1 RES1    0.0000
     11 C4         7.5236    2.2245    4.1763 C.2       1 RES1    0.0000
     12 C5         7.6513    2.9147    2.8402 C.3       1 RES1    0.0000
     13 H4         8.2173    2.3848    2.2248 H         1 RES1    0.0000
     14 H5         8.0504    3.8143    2.9476 H         1 RES1    0.0000
     15 C6         6.2082    3.0184    2.3021 C.3       1 RES1    0.0000
     16 H6         6.0984    2.4560    1.4943 H         1 RES1    0.0000
     17 H7         5.9926    3.9550    2.0676 H         1 RES1    0.0000
     18 C7         5.2838    2.5164    3.4424 C.3       1 RES1    0.0000
     19 H8         4.7387    1.7508    3.1009 H         1 RES1    0.0000
     20 C8         4.3385    3.5492    4.0865 C.3       1 RES1    0.0000
     21 C9         8.7336    1.8964    4.9848 C.3       1 RES1    0.0000
     22 H9         8.4600    1.4764    5.8268 H         1 RES1    0.0000
     23 H10        9.2311    2.7183    5.1773 H         1 RES1    0.0000
     24 H11        9.3051    1.2784    4.4819 H         1 RES1    0.0000
     25 C10        3.1636    3.8697    3.1782 C.3       1 RES1    0.0000
     26 H12        2.6565    3.0500    2.9984 H         1 RES1    0.0000
     27 H13        3.4952    4.2398    2.3333 H         1 RES1    0.0000
     28 H14        2.5811    4.5247    3.6166 H         1 RES1    0.0000
     29 C11        5.0630    4.8304    4.4875 C.3       1 RES1    0.0000
     30 H15        4.4714    5.3792    5.0435 H         1 RES1    0.0000
     31 H16        5.3124    5.3306    3.6820 H         1 RES1    0.0000
     32 H17        5.8703    4.6046    4.9947 H         1 RES1    0.0000
     33 C12        3.7818    1.8960    7.3763 C.ar      1 RES1    0.0000
     34 C13        2.7101    1.0538    7.0707 C.ar      1 RES1    0.0000
     35 H18        2.4890    0.8876    6.1618 H         1 RES1    0.0000
     36 C14        1.9616    0.4549    8.0798 C.ar      1 RES1    0.0000
     37 H19        1.2391   -0.1251    7.8729 H         1 RES1    0.0000
     38 C15        2.3012    0.7304    9.3972 C.ar      1 RES1    0.0000
     39 C16        3.3540    1.5622    9.7366 C.ar      1 RES1    0.0000
     40 H20        3.5615    1.7387   10.6467 H         1 RES1    0.0000
     41 C17        4.1012    2.1329    8.7127 C.ar      1 RES1    0.0000
     42 H21        4.8392    2.6922    8.9267 H         1 RES1    0.0000
@<TRIPOS>BOND
     1    1    2 1
     2    2    3 1
     3    4    5 2
     4    5    9 2
     5    6    2 1
     6    7    6 1
     7    8    6 1
     8   10    6 1
     9   11   10 2
    10   12   11 1
    11   13   12 1
    12   14   12 1
    13   15   12 1
    14   16   15 1
    15   17   15 1
    16   18   10 1
    17   19   18 1
    18   20    1 1
    19   21   11 1
    20   22   21 1
    21   23   21 1
    22   24   21 1
    23   25   20 1
    24   26   25 1
    25   27   25 1
    26   28   25 1
    27   29   20 1
    28   30   29 1
    29   31   29 1
    30   32   29 1
    31   33    2 1
    32   34   33 ar
    33   35   34 1
    34   36   34 ar
    35   37   36 1
    36   38    5 1
    37   39   38 ar
    38   40   39 1
    39   41   33 ar
    40   42   41 1
    41   15   18 1
    42   18   20 1
    43   36   38 ar
    44   39   41 ar
@<TRIPOS>SUBSTRUCTURE
     1 RES1 1

@<TRIPOS>CRYSIN
   8.6359   17.3692    9.7679  90.0000  90.9060  90.0000 231 1

