# MOL2 file generated by ConQuest
# Please check atom types

@<TRIPOS>MOLECULE
NUCDEW
    30    31     1
SMALL
NO_CHARGES
****
Generated from CSD

@<TRIPOS>ATOM
      1 O1         1.3727    0.9136    0.5220 O.2       1 RES1    0.0000
      2 N1         3.2122    1.7131   -0.6092 N.am      1 RES1    0.0000
      3 H1         3.7197    1.8910    0.0617 H         1 RES1    0.0000
      4 N2        -0.0812    2.9131   -1.9980 N.pl3     1 RES1    0.0000
      5 C1         0.0421    1.4387   -2.1785 C.3       1 RES1    0.0000
      6 H2        -0.2283    1.2076   -3.0808 H         1 RES1    0.0000
      7 H3        -0.5641    0.9941   -1.5653 H         1 RES1    0.0000
      8 O2         0.8107    3.5205   -1.4528 O.2       1 RES1    0.0000
      9 C2         1.9726    1.2018   -0.4979 C.2       1 RES1    0.0000
     10 C3         1.4595    0.9234   -1.9371 C.3       1 RES1    0.0000
     11 C4         2.5948   -1.2818   -1.5093 C.1       1 RES1    0.0000
     12 N3         3.5292   -1.7539   -1.0738 N.1       1 RES1    0.0000
     13 C5         1.3783   -0.6442   -2.0397 C.3       1 RES1    0.0000
     14 H4         0.6171   -0.9455   -1.4996 H         1 RES1    0.0000
     15 C6         1.1681   -1.1033   -3.4217 C.1       1 RES1    0.0000
     16 C7         3.5827    1.9241   -1.9526 C.ar      1 RES1    0.0000
     17 C8         2.5585    1.5141   -2.7892 C.ar      1 RES1    0.0000
     18 C9         2.6425    1.7017   -4.1542 C.ar      1 RES1    0.0000
     19 H5         1.9455    1.4397   -4.7118 H         1 RES1    0.0000
     20 C10        3.7959    2.2937   -4.6861 C.ar      1 RES1    0.0000
     21 C11        4.7413    2.4758   -2.4521 C.ar      1 RES1    0.0000
     22 H6         5.4398    2.7272   -1.8919 H         1 RES1    0.0000
     23 O3        -1.0975    3.4249   -2.4166 O.2       1 RES1    0.0000
     24 C12        4.8233    2.6422   -3.8288 C.ar      1 RES1    0.0000
     25 H7         5.6014    3.0029   -4.1880 H         1 RES1    0.0000
     26 N4         1.0193   -1.4582   -4.4864 N.1       1 RES1    0.0000
     27 C13        3.8771    2.5551   -6.1783 C.3       1 RES1    0.0000
     28 H8         3.2615    1.9802   -6.6375 H         1 RES1    0.0000
     29 H9         4.7694    2.3794   -6.4862 H         1 RES1    0.0000
     30 H10        3.6525    3.4720   -6.3548 H         1 RES1    0.0000
@<TRIPOS>BOND
     1    1    9 2
     2    2    3 1
     3    4    5 1
     4    5    6 1
     5    7    5 1
     6    8    4 2
     7    9    2 1
     8   10    5 1
     9   11   12 3
    10   13   10 1
    11   14   13 1
    12   15   13 1
    13   16    2 1
    14   17   10 1
    15   18   17 ar
    16   19   18 1
    17   20   18 ar
    18   21   16 ar
    19   22   21 1
    20   23    4 2
    21   24   20 ar
    22   25   24 1
    23   26   15 3
    24   27   20 1
    25   28   27 1
    26   29   27 1
    27   30   27 1
    28    9   10 1
    29   11   13 1
    30   16   17 ar
    31   21   24 ar
@<TRIPOS>SUBSTRUCTURE
     1 RES1 1

@<TRIPOS>CRYSIN
   9.2168    7.1412   19.9378  90.0000  92.7636  90.0000  14 1

