# MOL2 file generated by ConQuest
# Please check atom types

@<TRIPOS>MOLECULE
NUCHOI
    38    39     1
SMALL
NO_CHARGES
****
Generated from CSD

@<TRIPOS>ATOM
      1 C1         1.0192   -4.6981   12.6712 C.2       1 RES1    0.0000
      2 O1         0.2489   -5.5021   12.1818 O.2       1 RES1    0.0000
      3 N1         0.7717   -0.1099   14.5755 N.pl3     1 RES1    0.0000
      4 O2        -1.2399   -1.3610    9.0118 O.3       1 RES1    0.0000
      5 C2         2.1300   -5.1019   13.5914 C.3       1 RES1    0.0000
      6 O3        -2.5604   -0.7100   10.6949 O.2       1 RES1    0.0000
      7 C3         2.1037   -4.2691   14.8718 C.3       1 RES1    0.0000
      8 C4         2.0889   -2.7780   14.5694 C.3       1 RES1    0.0000
      9 O4         1.6710    0.6373   14.8310 O.2       1 RES1    0.0000
     10 C5         0.9048   -2.4057   13.6848 C.3       1 RES1    0.0000
     11 O5        -0.1883   -0.2435   15.2824 O.2       1 RES1    0.0000
     12 C6         0.8661   -0.9260   13.3107 C.3       1 RES1    0.0000
     13 C7        -0.3091   -0.5515   12.4214 C.3       1 RES1    0.0000
     14 C8        -0.2901   -1.3874   11.1443 C.3       1 RES1    0.0000
     15 C9        -0.2688   -2.8798   11.4789 C.3       1 RES1    0.0000
     16 C10        0.9149   -3.2172   12.3669 C.3       1 RES1    0.0000
     17 C11       -1.4890   -1.0929   10.2865 C.2       1 RES1    0.0000
     18 C12       -2.3370   -1.2201    8.0755 C.3       1 RES1    0.0000
     19 C13       -1.9574   -1.9693    6.8405 C.3       1 RES1    0.0000
     20 H1         2.9903   -4.9784   13.1388 H         1 RES1    0.0000
     21 H2         2.0385   -6.0512   13.8169 H         1 RES1    0.0000
     22 H3         1.3075   -4.5019   15.3939 H         1 RES1    0.0000
     23 H4         2.8926   -4.4817   15.4124 H         1 RES1    0.0000
     24 H5         2.9227   -2.5286   14.1180 H         1 RES1    0.0000
     25 H6         2.0377   -2.2757   15.4091 H         1 RES1    0.0000
     26 H7         0.0727   -2.6221   14.1745 H         1 RES1    0.0000
     27 H8         1.7071   -0.6936   12.8431 H         1 RES1    0.0000
     28 H9        -0.2582    0.3996   12.1932 H         1 RES1    0.0000
     29 H10       -1.1483   -0.7055   12.9029 H         1 RES1    0.0000
     30 H11        0.5276   -1.1661   10.6325 H         1 RES1    0.0000
     31 H12       -1.1005   -3.1246   11.9367 H         1 RES1    0.0000
     32 H13       -0.2141   -3.4000   10.6499 H         1 RES1    0.0000
     33 H14        1.7336   -2.9617   11.8726 H         1 RES1    0.0000
     34 H15       -2.4876   -0.2745    7.8665 H         1 RES1    0.0000
     35 H16       -3.1599   -1.5897    8.4578 H         1 RES1    0.0000
     36 H17       -2.6433   -1.8483    6.1656 H         1 RES1    0.0000
     37 H18       -1.8714   -2.9132    7.0481 H         1 RES1    0.0000
     38 H19       -1.1114   -1.6334    6.5058 H         1 RES1    0.0000
@<TRIPOS>BOND
     1    1    2 2
     2    3    9 2
     3    4   17 1
     4    5    1 1
     5    6   17 2
     6    7    5 1
     7    8    7 1
     8   10    8 1
     9   11    3 2
    10   12    3 1
    11   13   12 1
    12   14   13 1
    13   15   14 1
    14   16    1 1
    15   17   14 1
    16   18    4 1
    17   19   18 1
    18   20    5 1
    19   21    5 1
    20   22    7 1
    21   23    7 1
    22   24    8 1
    23   25    8 1
    24   26   10 1
    25   27   12 1
    26   28   13 1
    27   29   13 1
    28   30   14 1
    29   31   15 1
    30   32   15 1
    31   33   16 1
    32   34   18 1
    33   35   18 1
    34   36   19 1
    35   37   19 1
    36   38   19 1
    37   10   12 1
    38   10   16 1
    39   15   16 1
@<TRIPOS>SUBSTRUCTURE
     1 RES1 1

@<TRIPOS>CRYSIN
   5.5200   11.4640   11.9780 112.8200  96.5700  96.8900   2 1

