# MOL2 file generated by ConQuest
# Please check atom types

@<TRIPOS>MOLECULE
NUCQOR
    56    60     2
SMALL
NO_CHARGES
****
Generated from CSD

@<TRIPOS>ATOM
      1 C1         3.7218    1.6308   16.3782 C.3       1 RES1    0.0000
      2 N1         4.2187    2.4648   15.2802 N.3       1 RES1    0.0000
      3 O1         4.5122    1.5043   14.2321 O.3       1 RES1    0.0000
      4 C2         3.4617    0.5174   14.2669 C.3       1 RES1    0.0000
      5 C3         2.2600    0.9671   13.4352 C.2       1 RES1    0.0000
      6 O2         2.2480    1.2071   12.2490 O.2       1 RES1    0.0000
      7 N2         1.1630    1.0399   14.2708 N.am      1 RES1    0.0000
      8 C4        -0.1740    1.4210   13.8112 C.3       1 RES1    0.0000
      9 C5         1.4489    0.6662   15.5696 C.2       1 RES1    0.0000
     10 O3         0.6137    0.5176   16.4331 O.2       1 RES1    0.0000
     11 C6         2.9397    0.4541   15.7011 C.3       1 RES1    0.0000
     12 C7         2.9913    2.4978   17.3887 C.ar      1 RES1    0.0000
     13 N3         2.2890    3.5345   16.9035 N.ar      1 RES1    0.0000
     14 C8         1.7236    4.3709   17.7997 C.ar      1 RES1    0.0000
     15 C9         1.8251    4.2009   19.1624 C.ar      1 RES1    0.0000
     16 C10        2.5225    3.1110   19.6432 C.ar      1 RES1    0.0000
     17 C11        3.1226    2.2464   18.7462 C.ar      1 RES1    0.0000
     18 C12        7.1730    7.0349   14.3267 C.3       2 RES2    0.0000
     19 N4         7.0087    5.5722   14.5484 N.3       2 RES2    0.0000
     20 O4         7.5482    4.9568   13.3559 O.3       2 RES2    0.0000
     21 C13        8.7049    5.7290   13.0006 C.3       2 RES2    0.0000
     22 C14        9.9307    5.2243   13.7513 C.2       2 RES2    0.0000
     23 O5        10.3785    4.0898   13.7046 O.2       2 RES2    0.0000
     24 N5        10.4462    6.2810   14.4870 N.am      2 RES2    0.0000
     25 C15       11.6664    6.2237   15.2794 C.3       2 RES2    0.0000
     26 C16        9.7366    7.4698   14.3101 C.2       2 RES2    0.0000
     27 O6        10.1071    8.5429   14.7357 O.2       2 RES2    0.0000
     28 C17        8.4963    7.1732   13.5013 C.3       2 RES2    0.0000
     29 C18        7.1094    7.7513   15.6549 C.ar      2 RES2    0.0000
     30 N6         7.8777    7.2348   16.6284 N.ar      2 RES2    0.0000
     31 C19        7.8254    7.8291   17.8253 C.ar      2 RES2    0.0000
     32 C20        7.0248    8.9283   18.1111 C.ar      2 RES2    0.0000
     33 C21        6.2355    9.4442   17.1025 C.ar      2 RES2    0.0000
     34 C22        6.2741    8.8510   15.8512 C.ar      2 RES2    0.0000
     35 H1         4.5159    1.2299   16.8394 H         1 RES1    0.0000
     36 H2         4.3170    3.3473   15.2615 H         1 RES1    0.0000
     37 H3         3.7935   -0.3834   13.9669 H         1 RES1    0.0000
     38 H4        -0.8223    0.7410   14.1036 H         1 RES1    0.0000
     39 H5        -0.1788    1.4776   12.8339 H         1 RES1    0.0000
     40 H6        -0.4156    2.2983   14.1906 H         1 RES1    0.0000
     41 H7         3.1500   -0.4330   16.1287 H         1 RES1    0.0000
     42 H8         1.2266    5.1179   17.4755 H         1 RES1    0.0000
     43 H9         1.4207    4.8249   19.7590 H         1 RES1    0.0000
     44 H10        2.5910    2.9553   20.5789 H         1 RES1    0.0000
     45 H11        3.6179    1.4906   19.0533 H         1 RES1    0.0000
     46 H12        6.4135    7.3580   13.7607 H         2 RES2    0.0000
     47 H13        6.6607    5.1674   15.2491 H         2 RES2    0.0000
     48 H14        8.8571    5.7124   12.0114 H         2 RES2    0.0000
     49 H15       12.0280    5.3053   15.2565 H         2 RES2    0.0000
     50 H16       11.4658    6.4749   16.2057 H         2 RES2    0.0000
     51 H17       12.3260    6.8518   14.9087 H         2 RES2    0.0000
     52 H18        8.3908    7.8211   12.7420 H         2 RES2    0.0000
     53 H19        8.3690    7.4765   18.5216 H         2 RES2    0.0000
     54 H20        7.0191    9.3182   18.9787 H         2 RES2    0.0000
     55 H21        5.6725   10.1970   17.2643 H         2 RES2    0.0000
     56 H22        5.7402    9.1889   15.1422 H         2 RES2    0.0000
@<TRIPOS>BOND
     1    1    2 1
     2    2    3 1
     3    3    4 1
     4    4    5 1
     5    5    6 2
     6    7    5 1
     7    8    7 1
     8    9    7 1
     9   10    9 2
    10   11    1 1
    11   12    1 1
    12   13   12 ar
    13   14   13 ar
    14   15   14 ar
    15   16   15 ar
    16   17   12 ar
    17   18   19 1
    18   19   20 1
    19   20   21 1
    20   21   22 1
    21   22   23 2
    22   24   22 1
    23   25   24 1
    24   26   24 1
    25   27   26 2
    26   28   18 1
    27   29   18 1
    28   30   29 ar
    29   31   30 ar
    30   32   31 ar
    31   33   32 ar
    32   34   29 ar
    33   35    1 1
    34   36    2 1
    35   37    4 1
    36   38    8 1
    37   39    8 1
    38   40    8 1
    39   41   11 1
    40   42   14 1
    41   43   15 1
    42   44   16 1
    43   45   17 1
    44   46   18 1
    45   47   19 1
    46   48   21 1
    47   49   25 1
    48   50   25 1
    49   51   25 1
    50   52   28 1
    51   53   31 1
    52   54   32 1
    53   55   33 1
    54   56   34 1
    55    4   11 1
    56    9   11 1
    57   16   17 ar
    58   21   28 1
    59   26   28 1
    60   33   34 ar
@<TRIPOS>SUBSTRUCTURE
     1 RES1 1
     2 RES2 18

@<TRIPOS>CRYSIN
   8.0541   21.5399   24.8478  90.0000  90.0000  90.0000  61 1

