# MOL2 file generated by ConQuest
# Please check atom types

@<TRIPOS>MOLECULE
NUCWEN
    38    39     1
SMALL
USER_CHARGES
****
Generated from CSD

@<TRIPOS>ATOM
      1 N1         2.9674    5.1400    4.7439 N.3       1 RES1    0.0000
      2 C1         3.1684    3.6916    4.5147 C.3       1 RES1    0.0000
      3 N2         4.6248    3.5804    4.4414 N.2       1 RES1    0.0000
      4 C2         5.1681    4.7132    4.6813 C.2       1 RES1    0.0000
      5 C3         4.2314    5.8812    4.9220 C.3       1 RES1    0.0000
      6 C4         6.6459    4.7852    4.6602 C.2       1 RES1    0.0000
      7 C5         7.3306    3.6109    3.9760 C.2       1 RES1    0.0000
      8 N3         7.2612    5.7837    5.1278 N.2       1 RES1    1.0000
      9 O1         7.5582    3.7266    2.7884 O.2       1 RES1    0.0000
     10 C6         7.7171    2.4275    4.7627 C.ar      1 RES1    0.0000
     11 C7         8.2728    1.3305    4.1091 C.ar      1 RES1    0.0000
     12 C8         8.6124    0.2139    4.8211 C.ar      1 RES1    0.0000
     13 C9         8.4264    0.1734    6.1785 C.ar      1 RES1    0.0000
     14 C10        7.8918    1.2529    6.8422 C.ar      1 RES1    0.0000
     15 C11        7.5201    2.3819    6.1292 C.ar      1 RES1    0.0000
     16 C12        2.6472    2.8961    5.6908 C.3       1 RES1    0.0000
     17 C13        2.5448    3.2587    3.2084 C.3       1 RES1    0.0000
     18 C14        4.3658    6.9634    3.8584 C.3       1 RES1    0.0000
     19 C15        4.3077    6.4794    6.3134 C.3       1 RES1    0.0000
     20 O2         1.8237    5.6637    4.8937 O.2       1 RES1   -1.0000
     21 H1         8.2068    5.6478    5.0386 H         1 RES1    0.0000
     22 H2         8.4056    1.3850    3.1160 H         1 RES1    0.0000
     23 H3         9.0066   -0.5552    4.3653 H         1 RES1    0.0000
     24 H4         8.6751   -0.6123    6.7031 H         1 RES1    0.0000
     25 H5         7.7257    1.2508    7.8147 H         1 RES1    0.0000
     26 H6         7.1631    3.0923    6.5556 H         1 RES1    0.0000
     27 H7         2.7457    1.9032    5.5435 H         1 RES1    0.0000
     28 H8         3.1259    3.1324    6.4889 H         1 RES1    0.0000
     29 H9         1.6963    3.1000    5.8244 H         1 RES1    0.0000
     30 H10        2.7533    2.2749    3.0428 H         1 RES1    0.0000
     31 H11        1.5893    3.4192    3.2319 H         1 RES1    0.0000
     32 H12        2.9290    3.7308    2.4362 H         1 RES1    0.0000
     33 H13        3.6269    7.6189    3.9707 H         1 RES1    0.0000
     34 H14        5.2500    7.4338    3.9795 H         1 RES1    0.0000
     35 H15        4.3052    6.5917    2.9597 H         1 RES1    0.0000
     36 H16        5.2032    6.9264    6.4201 H         1 RES1    0.0000
     37 H17        4.2033    5.8036    6.9731 H         1 RES1    0.0000
     38 H18        3.6011    7.1423    6.4255 H         1 RES1    0.0000
@<TRIPOS>BOND
     1    1    2 1
     2    2    3 1
     3    3    4 2
     4    4    5 1
     5    5    1 1
     6    6    4 1
     7    7    6 1
     8    8    6 2
     9    9    7 2
    10   10    7 1
    11   11   10 ar
    12   12   11 ar
    13   13   12 ar
    14   14   13 ar
    15   15   10 ar
    16   16    2 1
    17   17    2 1
    18   18    5 1
    19   19    5 1
    20   20    1 1
    21   21    8 1
    22   22   11 1
    23   23   12 1
    24   24   13 1
    25   25   14 1
    26   26   15 1
    27   27   16 1
    28   28   16 1
    29   29   16 1
    30   30   17 1
    31   31   17 1
    32   32   17 1
    33   33   18 1
    34   34   18 1
    35   35   18 1
    36   36   19 1
    37   37   19 1
    38   38   19 1
    39   14   15 ar
@<TRIPOS>SUBSTRUCTURE
     1 RES1 1

@<TRIPOS>CRYSIN
   8.6964   15.4228   11.6209  90.0000 109.8620  90.0000  14 1

