# MOL2 file generated by ConQuest
# Please check atom types

@<TRIPOS>MOLECULE
NUDLIH
    64    64     2
SMALL
USER_CHARGES
****
Generated from CSD

@<TRIPOS>ATOM
      1 O1         4.4784    1.3280    8.7226 O.2       1 RES1   -1.0000
      2 O2         2.9119    1.4918    2.7321 O.2       1 RES1    0.0000
      3 O3         5.0486    1.2708    2.5589 O.2       1 RES1    0.0000
      4 N1         7.1786    2.8289    7.7547 N.4       1 RES1    1.0000
      5 N2         4.0259    1.3764    3.2368 N.pl3     1 RES1    0.0000
      6 C1         4.3540    1.3736    7.4552 C.ar      1 RES1    0.0000
      7 C2         5.5105    1.3916    6.6137 C.ar      1 RES1    0.0000
      8 C3         5.3895    1.3790    5.2503 C.ar      1 RES1    0.0000
      9 C4         4.1385    1.3782    4.6633 C.ar      1 RES1    0.0000
     10 C5         2.9983    1.4079    5.4385 C.ar      1 RES1    0.0000
     11 C6         3.0988    1.4016    6.7976 C.ar      1 RES1    0.0000
     12 C7         6.8400    1.4404    7.2852 C.3       1 RES1    0.0000
     13 C8         8.2117    2.8460    8.8389 C.3       1 RES1    0.0000
     14 C9         7.6287    2.5120   10.1724 C.3       1 RES1    0.0000
     15 C10        7.5692    3.7347    6.6297 C.3       1 RES1    0.0000
     16 C11        8.8909    3.4154    6.0031 C.3       1 RES1    0.0000
     17 H1         6.3612    3.2482    8.1268 H         1 RES1    0.0000
     18 H2         6.1886    1.4198    4.7338 H         1 RES1    0.0000
     19 H3         2.1704    1.4050    5.0365 H         1 RES1    0.0000
     20 H4         2.3401    1.3527    7.3387 H         1 RES1    0.0000
     21 H5         7.6065    1.1709    6.6886 H         1 RES1    0.0000
     22 H6         6.8381    0.9056    8.0733 H         1 RES1    0.0000
     23 H7         8.9107    2.2149    8.5427 H         1 RES1    0.0000
     24 H8         8.6225    3.8123    8.8935 H         1 RES1    0.0000
     25 H9         8.2786    2.5786   10.8492 H         1 RES1    0.0000
     26 H10        7.3490    1.5207   10.0601 H         1 RES1    0.0000
     27 H11        6.8920    3.1349   10.4066 H         1 RES1    0.0000
     28 H12        7.5645    4.6292    7.0029 H         1 RES1    0.0000
     29 H13        6.8745    3.6705    6.0288 H         1 RES1    0.0000
     30 H14        9.6547    3.5151    6.7121 H         1 RES1    0.0000
     31 H15        9.0862    4.0225    5.3252 H         1 RES1    0.0000
     32 H16        8.9427    2.4744    5.7005 H         1 RES1    0.0000
     33 O4         5.2950    4.3257    8.7758 O.2       2 RES2   -1.0000
     34 O5        -0.5617    6.2750    8.7972 O.2       2 RES2    0.0000
     35 O6        -0.0229    6.7766    6.7805 O.2       2 RES2    0.0000
     36 N3         3.2754    2.5239   10.7717 N.4       2 RES2    1.0000
     37 N4         0.2698    6.3317    7.8840 N.pl3     2 RES2    0.0000
     38 C12        4.1293    4.7668    8.5406 C.ar      2 RES2    0.0000
     39 C13        3.1116    4.6844    9.5468 C.ar      2 RES2    0.0000
     40 C14        1.8745    5.2281    9.3233 C.ar      2 RES2    0.0000
     41 C15        1.5763    5.8326    8.1129 C.ar      2 RES2    0.0000
     42 C16        2.5383    5.9205    7.1109 C.ar      2 RES2    0.0000
     43 C17        3.7728    5.4027    7.3227 C.ar      2 RES2    0.0000
     44 C18        3.4483    4.0176   10.8332 C.3       2 RES2    0.0000
     45 C19        3.9960    1.8411   11.8908 C.3       2 RES2    0.0000
     46 C20        3.4618    2.1560   13.2531 C.3       2 RES2    0.0000
     47 C21        1.8283    2.1612   10.6921 C.3       2 RES2    0.0000
     48 C22        1.5769    0.6966   10.5188 C.3       2 RES2    0.0000
     49 H17        3.6515    2.2420    9.9991 H         2 RES2    0.0000
     50 H18        1.2377    5.2010    9.9938 H         2 RES2    0.0000
     51 H19        2.3443    6.3908    6.3132 H         2 RES2    0.0000
     52 H20        4.4564    5.5007    6.6864 H         2 RES2    0.0000
     53 H21        4.3631    4.1866   11.0674 H         2 RES2    0.0000
     54 H22        2.8989    4.3272   11.6159 H         2 RES2    0.0000
     55 H23        3.9716    0.9043   11.7036 H         2 RES2    0.0000
     56 H24        4.8663    2.1475   11.8277 H         2 RES2    0.0000
     57 H25        3.4620    3.0905   13.4477 H         2 RES2    0.0000
     58 H26        2.5223    1.7778   13.2605 H         2 RES2    0.0000
     59 H27        3.9904    1.6898   13.9043 H         2 RES2    0.0000
     60 H28        1.4894    2.6598    9.9393 H         2 RES2    0.0000
     61 H29        1.4326    2.4838   11.5037 H         2 RES2    0.0000
     62 H30        1.9197    0.2132   11.2941 H         2 RES2    0.0000
     63 H31        0.5736    0.5376   10.4750 H         2 RES2    0.0000
     64 H32        2.0066    0.3394    9.7094 H         2 RES2    0.0000
@<TRIPOS>BOND
     1    1    6 1
     2    2    5 2
     3    3    5 2
     4    4   12 1
     5    5    9 1
     6    6    7 ar
     7    7    8 ar
     8    8    9 ar
     9    9   10 ar
    10   10   11 ar
    11   11    6 ar
    12   12    7 1
    13   13    4 1
    14   14   13 1
    15   15    4 1
    16   16   15 1
    17   17    4 1
    18   18    8 1
    19   19   10 1
    20   20   11 1
    21   21   12 1
    22   22   12 1
    23   23   13 1
    24   24   13 1
    25   25   14 1
    26   26   14 1
    27   27   14 1
    28   28   15 1
    29   29   15 1
    30   30   16 1
    31   31   16 1
    32   32   16 1
    33   33   38 1
    34   34   37 2
    35   35   37 2
    36   36   44 1
    37   37   41 1
    38   38   39 ar
    39   39   40 ar
    40   40   41 ar
    41   41   42 ar
    42   42   43 ar
    43   43   38 ar
    44   44   39 1
    45   45   36 1
    46   46   45 1
    47   47   36 1
    48   48   47 1
    49   49   36 1
    50   50   40 1
    51   51   42 1
    52   52   43 1
    53   53   44 1
    54   54   44 1
    55   55   45 1
    56   56   45 1
    57   57   46 1
    58   58   46 1
    59   59   46 1
    60   60   47 1
    61   61   47 1
    62   62   48 1
    63   63   48 1
    64   64   48 1
@<TRIPOS>SUBSTRUCTURE
     1 RES1 1
     2 RES2 33

@<TRIPOS>CRYSIN
   9.5270   11.2680   11.4080  87.8000  69.6200  81.8200   2 1

