# MOL2 file generated by ConQuest
# Please check atom types

@<TRIPOS>MOLECULE
NUDQEK
    88    94     2
SMALL
NO_CHARGES
****
Generated from CSD

@<TRIPOS>ATOM
      1 C1        -2.6226    0.0234    2.8390 C.2       1 RES1    0.0000
      2 C2        -1.9017    1.1880    3.3552 C.2       1 RES1    0.0000
      3 C3        -0.8192    2.0779    2.8204 C.3       1 RES1    0.0000
      4 H1        -0.5945    1.8651    1.8696 H         1 RES1    0.0000
      5 C4        -1.2055    3.5588    3.0048 C.3       1 RES1    0.0000
      6 H2        -1.8866    3.8130    2.3337 H         1 RES1    0.0000
      7 H3        -0.4097    4.1308    2.8687 H         1 RES1    0.0000
      8 C5        -1.7687    3.7777    4.4281 C.3       1 RES1    0.0000
      9 C6        -1.0605    4.7941    5.3140 C.3       1 RES1    0.0000
     10 H4        -0.0832    4.7744    5.1583 H         1 RES1    0.0000
     11 H5        -1.3938    5.7090    5.1353 H         1 RES1    0.0000
     12 C7        -1.5678    2.9650    6.6841 C.3       1 RES1    0.0000
     13 H6        -2.4585    2.7439    7.0548 H         1 RES1    0.0000
     14 H7        -0.8757    2.5297    7.2427 H         1 RES1    0.0000
     15 C8        -1.4604    2.5009    5.2467 C.3       1 RES1    0.0000
     16 C9        -2.2011    1.3614    4.6371 C.2       1 RES1    0.0000
     17 C10       -3.1983    0.3375    5.0676 C.3       1 RES1    0.0000
     18 H8        -2.8429   -0.2182    5.8064 H         1 RES1    0.0000
     19 H9        -4.0432    0.7632    5.3615 H         1 RES1    0.0000
     20 C11       -3.2731    4.0571    4.4091 C.3       1 RES1    0.0000
     21 H10       -3.6123    4.0800    5.3289 H         1 RES1    0.0000
     22 H11       -3.7308    3.3487    3.9099 H         1 RES1    0.0000
     23 H12       -3.4395    4.9209    3.9770 H         1 RES1    0.0000
     24 C12        0.8212    0.4926    3.7838 C.2       1 RES1    0.0000
     25 C13        1.2983   -1.3878    2.2859 C.3       1 RES1    0.0000
     26 C14        1.0901   -1.5166    0.7904 C.3       1 RES1    0.0000
     27 H13        0.1470   -1.3550    0.5772 H         1 RES1    0.0000
     28 H14        1.3401   -2.4191    0.5024 H         1 RES1    0.0000
     29 H15        1.6479   -0.8588    0.3260 H         1 RES1    0.0000
     30 C15        0.4073   -2.3604    3.0451 C.3       1 RES1    0.0000
     31 H16        0.5812   -2.2796    4.0058 H         1 RES1    0.0000
     32 H17        0.6010   -3.2759    2.7536 H         1 RES1    0.0000
     33 H18       -0.5325   -2.1521    2.8629 H         1 RES1    0.0000
     34 C16        2.7557   -1.5303    2.6495 C.3       1 RES1    0.0000
     35 H19        3.2751   -0.8349    2.1937 H         1 RES1    0.0000
     36 H20        3.0771   -2.4131    2.3701 H         1 RES1    0.0000
     37 H21        2.8621   -1.4347    3.6185 H         1 RES1    0.0000
     38 N1         0.3311    1.8226    3.7381 N.am      1 RES1    0.0000
     39 O1        -2.6164   -0.5169    1.7665 O.2       1 RES1    0.0000
     40 O2        -3.4005   -0.4519    3.8714 O.3       1 RES1    0.0000
     41 O3        -1.3716    4.3902    6.6578 O.3       1 RES1    0.0000
     42 O4        -0.0174    2.2308    5.0722 O.3       1 RES1    0.0000
     43 O5         1.2188   -0.0384    4.7822 O.2       1 RES1    0.0000
     44 O6         0.8325    0.0089    2.5442 O.3       1 RES1    0.0000
     45 C17       -1.7608   -1.1082   11.0705 C.2       2 RES2    0.0000
     46 C18       -0.7213   -0.7674   10.0926 C.2       2 RES2    0.0000
     47 C19       -0.6473    0.1436    8.9090 C.3       2 RES2    0.0000
     48 H22       -1.5351    0.5510    8.6962 H         2 RES2    0.0000
     49 C20       -0.0406   -0.5830    7.6935 C.3       2 RES2    0.0000
     50 H23        0.2107    0.0777    7.0011 H         2 RES2    0.0000
     51 H24       -0.7106   -1.1996    7.3040 H         2 RES2    0.0000
     52 C21        1.2078   -1.3788    8.1311 C.3       2 RES2    0.0000
     53 C22        2.5320   -1.0170    7.4630 C.3       2 RES2    0.0000
     54 H25        2.6478   -1.5204    6.6195 H         2 RES2    0.0000
     55 H26        2.5726   -0.0478    7.2657 H         2 RES2    0.0000
     56 C23        2.9886   -1.3682    9.7430 C.3       2 RES2    0.0000
     57 H27        3.4816   -0.7323   10.3204 H         2 RES2    0.0000
     58 H28        3.0320   -2.2686   10.1535 H         2 RES2    0.0000
     59 C24        1.5554   -0.9316    9.5750 C.3       2 RES2    0.0000
     60 C25        0.4313   -1.3010   10.4797 C.2       2 RES2    0.0000
     61 C26        0.2343   -2.1042   11.7148 C.3       2 RES2    0.0000
     62 H29        0.4377   -3.0597   11.5553 H         2 RES2    0.0000
     63 H30        0.8068   -1.7715   12.4508 H         2 RES2    0.0000
     64 C27       -1.8843    3.2726   11.2216 C.3       2 RES2    0.0000
     65 C28        0.9763   -2.8917    8.0544 C.3       2 RES2    0.0000
     66 H31        0.8139   -3.1504    7.1238 H         2 RES2    0.0000
     67 H32        0.1981   -3.1315    8.6003 H         2 RES2    0.0000
     68 H33        1.7677   -3.3606    8.3913 H         2 RES2    0.0000
     69 C29        0.0529    2.0232   10.3685 C.2       2 RES2    0.0000
     70 C30       -3.3499    3.1297   10.8638 C.3       2 RES2    0.0000
     71 H34       -3.4752    3.3267    9.9119 H         2 RES2    0.0000
     72 H35       -3.8795    3.7572   11.3981 H         2 RES2    0.0000
     73 H36       -3.6431    2.2128   11.0491 H         2 RES2    0.0000
     74 C31       -1.6477    2.9113   12.6725 C.3       2 RES2    0.0000
     75 H37       -1.8201    1.9558   12.8036 H         2 RES2    0.0000
     76 H38       -2.2504    3.4334   13.2408 H         2 RES2    0.0000
     77 H39       -0.7187    3.1115   12.9110 H         2 RES2    0.0000
     78 C32       -1.3467    4.6342   10.8521 C.3       2 RES2    0.0000
     79 H40       -0.3906    4.6758   11.0606 H         2 RES2    0.0000
     80 H41       -1.8224    5.3224   11.3616 H         2 RES2    0.0000
     81 H42       -1.4790    4.7884    9.8928 H         2 RES2    0.0000
     82 N2         0.3590    1.1742    9.2983 N.am      2 RES2    0.0000
     83 O7        -2.9199   -0.8025   11.1465 O.2       2 RES2    0.0000
     84 O8        -1.1729   -1.9120   12.0170 O.3       2 RES2    0.0000
     85 O9         3.5446   -1.3871    8.4256 O.3       2 RES2    0.0000
     86 O10        1.6336    0.5506    9.5484 O.3       2 RES2    0.0000
     87 O11        0.8590    2.4985   11.1213 O.2       2 RES2    0.0000
     88 O12       -1.2650    2.2604   10.3376 O.3       2 RES2    0.0000
@<TRIPOS>BOND
     1    1    2 1
     2    2    3 1
     3    3    4 1
     4    5    3 1
     5    6    5 1
     6    7    5 1
     7    8    5 1
     8    9    8 1
     9   10    9 1
    10   11    9 1
    11   12   13 1
    12   14   12 1
    13   15    8 1
    14   16    2 2
    15   17   16 1
    16   18   17 1
    17   19   17 1
    18   20    8 1
    19   21   20 1
    20   22   20 1
    21   23   20 1
    22   24   38 1
    23   25   26 1
    24   26   27 1
    25   28   26 1
    26   29   26 1
    27   30   25 1
    28   31   30 1
    29   32   30 1
    30   33   30 1
    31   34   25 1
    32   35   34 1
    33   36   34 1
    34   37   34 1
    35   38    3 1
    36   39    1 2
    37   40    1 1
    38   41    9 1
    39   42   15 1
    40   43   24 2
    41   44   24 1
    42   45   46 1
    43   46   47 1
    44   47   48 1
    45   49   47 1
    46   50   49 1
    47   51   49 1
    48   52   49 1
    49   53   52 1
    50   54   53 1
    51   55   53 1
    52   56   57 1
    53   58   56 1
    54   59   52 1
    55   60   46 2
    56   61   60 1
    57   62   61 1
    58   63   61 1
    59   64   70 1
    60   65   52 1
    61   66   65 1
    62   67   65 1
    63   68   65 1
    64   69   82 1
    65   70   71 1
    66   72   70 1
    67   73   70 1
    68   74   64 1
    69   75   74 1
    70   76   74 1
    71   77   74 1
    72   78   64 1
    73   79   78 1
    74   80   78 1
    75   81   78 1
    76   82   47 1
    77   83   45 2
    78   84   45 1
    79   85   53 1
    80   86   59 1
    81   87   69 2
    82   88   64 1
    83   12   15 1
    84   12   41 1
    85   15   16 1
    86   17   40 1
    87   25   44 1
    88   38   42 1
    89   56   59 1
    90   56   85 1
    91   59   60 1
    92   61   84 1
    93   69   88 1
    94   82   86 1
@<TRIPOS>SUBSTRUCTURE
     1 RES1 1
     2 RES2 45

@<TRIPOS>CRYSIN
  16.6489    9.9633   20.3053  90.0000 109.2010  90.0000 231 1

