# MOL2 file generated by ConQuest
# Please check atom types

@<TRIPOS>MOLECULE
NUFDOJ
    13    13     1
SMALL
NO_CHARGES
****
Generated from CSD

@<TRIPOS>ATOM
      1 N1         0.3477    2.2802    1.3217 N.2       1 RES1    0.0000
      2 N2         1.2446    1.3655    1.0509 N.2       1 RES1    0.0000
      3 N3         2.3546    1.7548    1.6690 N.3       1 RES1    0.0000
      4 N4         2.2387    2.8853    2.3461 N.2       1 RES1    0.0000
      5 N5         0.3209    4.3485    2.6094 N.pl3     1 RES1    0.0000
      6 O1         4.3525    1.4133    0.4789 O.3       1 RES1    0.0000
      7 H1         4.9590    1.9332    0.7392 H         1 RES1    0.0000
      8 O2        -0.8241    4.5599    2.2364 O.2       1 RES1    0.0000
      9 O3         0.9690    5.0397    3.3879 O.2       1 RES1    0.0000
     10 C1         0.9788    3.1609    2.0874 C.2       1 RES1    0.0000
     11 C2         3.6187    0.9718    1.5752 C.3       1 RES1    0.0000
     12 H2         4.1486    1.0893    2.4028 H         1 RES1    0.0000
     13 H3         3.4107    0.0093    1.4738 H         1 RES1    0.0000
@<TRIPOS>BOND
     1    1    2 2
     2    2    3 1
     3    3    4 1
     4    4   10 2
     5    5    8 2
     6    6    7 1
     7    9    5 2
     8   10    1 1
     9   11    3 1
    10   12   11 1
    11   13   11 1
    12    5   10 1
    13    6   11 1
@<TRIPOS>SUBSTRUCTURE
     1 RES1 1

@<TRIPOS>CRYSIN
   6.6131    5.4905    7.5660  90.0000  90.5780  90.0000   4 1

