# MOL2 file generated by ConQuest
# Please check atom types

@<TRIPOS>MOLECULE
NUFDUP
    49    51     1
SMALL
NO_CHARGES
****
Generated from CSD

@<TRIPOS>ATOM
      1 O1         0.1222    9.8990    3.1168 O.3       1 RES1    0.0000
      2 H1         0.2173    9.0846    3.1438 H         1 RES1    0.0000
      3 O2         2.3429   10.4440    1.6559 O.2       1 RES1    0.0000
      4 N1         1.2544   10.5156    3.6374 N.am      1 RES1    0.0000
      5 H2         1.2815   10.7341    4.4690 H         1 RES1    0.0000
      6 C1         5.3023   18.8368    6.6848 C.ar      1 RES1    0.0000
      7 C2         2.2936   10.7664    2.8509 C.2       1 RES1    0.0000
      8 C3         6.3392   19.6396    4.5404 C.ar      1 RES1    0.0000
      9 H3         7.0570   19.9797    5.0246 H         1 RES1    0.0000
     10 C4         5.2853   19.0160    5.2083 C.ar      1 RES1    0.0000
     11 N2         0.8587   18.2369    3.3852 N.2       1 RES1    0.0000
     12 N3         1.9268   17.5447    2.9100 N.3       1 RES1    0.0000
     13 C5         5.2223   18.5262    9.4597 C.ar      1 RES1    0.0000
     14 H4         5.1850   18.4266   10.3832 H         1 RES1    0.0000
     15 C6         4.2005   18.5449    4.4544 C.ar      1 RES1    0.0000
     16 H5         3.4835   18.1407    4.8882 H         1 RES1    0.0000
     17 C7         4.8238   17.6570    7.2632 C.ar      1 RES1    0.0000
     18 H6         4.5309   16.9654    6.7159 H         1 RES1    0.0000
     19 C8         4.7792   17.5032    8.6351 C.ar      1 RES1    0.0000
     20 H7         4.4531   16.7146    9.0049 H         1 RES1    0.0000
     21 C9         0.0292   17.3046    3.8476 C.2       1 RES1    0.0000
     22 H8        -0.7950   17.4868    4.2375 H         1 RES1    0.0000
     23 C10        0.5508   16.0142    3.6737 C.2       1 RES1    0.0000
     24 H9         0.1550   15.2063    3.9117 H         1 RES1    0.0000
     25 C11        4.1760   18.6694    3.0764 C.ar      1 RES1    0.0000
     26 C12        2.8433   15.2283    2.6917 C.3       1 RES1    0.0000
     27 H10        3.6715   15.4780    3.1319 H         1 RES1    0.0000
     28 H11        2.9892   15.2808    1.7343 H         1 RES1    0.0000
     29 C13        5.7191   19.6971    8.9106 C.ar      1 RES1    0.0000
     30 H12        6.0214   20.3795    9.4652 H         1 RES1    0.0000
     31 C14        3.4328   11.4760    3.5392 C.3       1 RES1    0.0000
     32 H13        4.2367   10.9368    3.4678 H         1 RES1    0.0000
     33 H14        3.2243   11.5797    4.4800 H         1 RES1    0.0000
     34 C15        3.6912   12.8533    2.9223 C.3       1 RES1    0.0000
     35 H15        4.4613   13.2545    3.3543 H         1 RES1    0.0000
     36 H16        3.9006   12.7451    1.9815 H         1 RES1    0.0000
     37 C16        5.2596   19.2623    2.4290 C.ar      1 RES1    0.0000
     38 H17        5.2668   19.3269    1.5019 H         1 RES1    0.0000
     39 C17        1.7759   16.2066    3.0751 C.2       1 RES1    0.0000
     40 C18        2.5005   13.7898    3.0614 C.3       1 RES1    0.0000
     41 H18        2.1816   13.7649    3.9776 H         1 RES1    0.0000
     42 H19        1.7826   13.4779    2.4885 H         1 RES1    0.0000
     43 C19        5.7646   19.8477    7.5314 C.ar      1 RES1    0.0000
     44 H20        6.1066   20.6314    7.1662 H         1 RES1    0.0000
     45 C20        6.3259   19.7555    3.1648 C.ar      1 RES1    0.0000
     46 H21        7.0371   20.1670    2.7292 H         1 RES1    0.0000
     47 C21        2.9983   18.2438    2.2191 C.3       1 RES1    0.0000
     48 H22        2.6244   19.0356    1.8002 H         1 RES1    0.0000
     49 H23        3.3287   17.6697    1.5110 H         1 RES1    0.0000
@<TRIPOS>BOND
     1    1    2 1
     2    3    7 2
     3    4    1 1
     4    5    4 1
     5    6   10 1
     6    7    4 1
     7    8    9 1
     8   10    8 ar
     9   11   12 1
    10   12   39 1
    11   13   14 1
    12   15   10 ar
    13   16   15 1
    14   17    6 ar
    15   18   17 1
    16   19   13 ar
    17   20   19 1
    18   21   11 2
    19   22   21 1
    20   23   21 1
    21   24   23 1
    22   25   15 ar
    23   26   27 1
    24   28   26 1
    25   29   13 ar
    26   30   29 1
    27   31    7 1
    28   32   31 1
    29   33   31 1
    30   34   31 1
    31   35   34 1
    32   36   34 1
    33   37   25 ar
    34   38   37 1
    35   39   23 2
    36   40   26 1
    37   41   40 1
    38   42   40 1
    39   43    6 ar
    40   44   43 1
    41   45    8 ar
    42   46   45 1
    43   47   12 1
    44   48   47 1
    45   49   47 1
    46   17   19 ar
    47   25   47 1
    48   26   39 1
    49   29   43 ar
    50   34   40 1
    51   37   45 ar
@<TRIPOS>SUBSTRUCTURE
     1 RES1 1

@<TRIPOS>CRYSIN
   9.2614   10.9532    9.7376  90.0000 109.9680  90.0000   7 1

