# MOL2 file generated by ConQuest
# Please check atom types

@<TRIPOS>MOLECULE
NUGJEG
    47    51     1
SMALL
USER_CHARGES
****
Generated from CSD

@<TRIPOS>ATOM
      1 N1         1.1181    4.4515    0.2108 N.pl3     1 RES1    1.0000
      2 O1         2.1618    3.7247    0.1343 O.2       1 RES1   -1.0000
      3 C1         0.7652    2.8115   -2.2911 C.ar      1 RES1    0.0000
      4 N2        -0.4237    4.7626   -2.9775 N.ar      1 RES1    0.0000
      5 C2         0.1856    4.0819   -2.0356 C.ar      1 RES1    0.0000
      6 N3        -0.4281    5.9155    1.1301 N.2       1 RES1    0.0000
      7 C3         0.1874    4.6782   -0.6997 C.2       1 RES1    0.0000
      8 C4        -0.7525    5.6131   -0.0822 C.2       1 RES1    0.0000
      9 N4         0.7498    2.2473   -3.4695 N.ar      1 RES1    0.0000
     10 C5        -1.9708    6.1912   -0.6901 C.ar      1 RES1    0.0000
     11 C6        -4.1089    5.9461   -1.7155 C.ar      1 RES1    0.0000
     12 H1        -4.7782    5.3959   -2.0531 H         1 RES1    0.0000
     13 C7        -2.9547    5.3904   -1.2145 C.ar      1 RES1    0.0000
     14 H2        -2.8412    4.4675   -1.2311 H         1 RES1    0.0000
     15 C8        -4.2774    7.3038   -1.7203 C.ar      1 RES1    0.0000
     16 H3        -5.0458    7.6790   -2.0873 H         1 RES1    0.0000
     17 C9        -3.3101    8.1086   -1.1833 C.ar      1 RES1    0.0000
     18 H4        -3.4307    9.0313   -1.1740 H         1 RES1    0.0000
     19 C10       -2.1599    7.5651   -0.6570 C.ar      1 RES1    0.0000
     20 H5        -1.5129    8.1164   -0.2816 H         1 RES1    0.0000
     21 C11        0.7949    5.2233    1.4611 C.3       1 RES1    0.0000
     22 C12        1.8947    6.2234    1.7679 C.3       1 RES1    0.0000
     23 H6         1.9602    6.8688    1.0465 H         1 RES1    0.0000
     24 H7         2.7454    5.7626    1.8400 H         1 RES1    0.0000
     25 C13        1.5848    6.9417    3.0755 C.3       1 RES1    0.0000
     26 H8         0.7620    7.4463    2.9798 H         1 RES1    0.0000
     27 H9         2.2989    7.5657    3.2785 H         1 RES1    0.0000
     28 C14        1.4410    5.9572    4.2069 C.3       1 RES1    0.0000
     29 H10        2.2869    5.5031    4.3459 H         1 RES1    0.0000
     30 H11        1.2213    6.4351    5.0214 H         1 RES1    0.0000
     31 C15        0.3634    4.9333    3.9216 C.3       1 RES1    0.0000
     32 H12       -0.5000    5.3740    3.9026 H         1 RES1    0.0000
     33 H13        0.3483    4.2763    4.6352 H         1 RES1    0.0000
     34 C16        0.5999    4.2317    2.5984 C.3       1 RES1    0.0000
     35 H14        1.3859    3.6683    2.6715 H         1 RES1    0.0000
     36 H15       -0.1590    3.6610    2.3994 H         1 RES1    0.0000
     37 C17        0.1225    2.9376   -4.4687 C.ar      1 RES1    0.0000
     38 C18        0.0471    2.3840   -5.7643 C.ar      1 RES1    0.0000
     39 C19       -0.6047    3.0622   -6.7423 C.ar      1 RES1    0.0000
     40 C20       -1.2045    4.2975   -6.4919 C.ar      1 RES1    0.0000
     41 C21       -1.1327    4.8594   -5.2574 C.ar      1 RES1    0.0000
     42 C22       -0.4714    4.1937   -4.2171 C.ar      1 RES1    0.0000
     43 H16        1.1822    2.3428   -1.5660 H         1 RES1    0.0000
     44 H17        0.4473    1.4973   -5.9081 H         1 RES1    0.0000
     45 H18       -0.6310    2.7107   -7.5997 H         1 RES1    0.0000
     46 H19       -1.5257    5.7078   -5.0405 H         1 RES1    0.0000
     47 H20       -1.6535    4.7587   -7.2001 H         1 RES1    0.0000
@<TRIPOS>BOND
     1    1    2 1
     2    3    5 ar
     3    4    5 ar
     4    5    7 1
     5    6    8 2
     6    7    1 2
     7    8    7 1
     8    9    3 ar
     9   10    8 1
    10   11   12 1
    11   13   10 ar
    12   14   13 1
    13   15   11 ar
    14   16   15 1
    15   17   15 ar
    16   18   17 1
    17   19   10 ar
    18   20   19 1
    19   21    1 1
    20   22   21 1
    21   23   22 1
    22   24   22 1
    23   25   22 1
    24   26   25 1
    25   27   25 1
    26   28   25 1
    27   29   28 1
    28   30   28 1
    29   31   28 1
    30   32   31 1
    31   33   31 1
    32   34   21 1
    33   35   34 1
    34   36   34 1
    35   37    9 ar
    36   38   37 ar
    37   39   38 ar
    38   40   39 ar
    39   41   40 ar
    40   42    4 ar
    41   43    3 1
    42   44   38 1
    43   45   39 1
    44   46   41 1
    45   47   40 1
    46    6   21 1
    47   11   13 ar
    48   17   19 ar
    49   31   34 1
    50   37   42 ar
    51   41   42 ar
@<TRIPOS>SUBSTRUCTURE
     1 RES1 1

@<TRIPOS>CRYSIN
   7.9877   12.1831   19.0278  90.0000  90.0000  90.0000  19 1

