# MOL2 file generated by ConQuest
# Please check atom types

@<TRIPOS>MOLECULE
NUGQIP
    56    56     1
SMALL
NO_CHARGES
****
Generated from CSD

@<TRIPOS>ATOM
      1 O1         1.3251    1.4692    3.2287 O.2       1 RES1    0.0000
      2 O2         4.1613    1.8935    4.8506 O.3       1 RES1    0.0000
      3 O3         0.0092   -0.2623    5.8010 O.3       1 RES1    0.0000
      4 N1         1.4051    1.7156    4.4708 N.3       1 RES1    0.0000
      5 C1         2.0926    0.7642    5.2838 C.ar      1 RES1    0.0000
      6 C2         3.4793    0.8326    5.3972 C.ar      1 RES1    0.0000
      7 C3         1.3797   -0.2621    5.8778 C.ar      1 RES1    0.0000
      8 C4         0.8333    2.9991    4.9688 C.3       1 RES1    0.0000
      9 C5        -0.6306    3.0086    4.5842 C.3       1 RES1    0.0000
     10 C6         1.5841    4.1205    4.2782 C.3       1 RES1    0.0000
     11 C7         1.0113    3.0797    6.4484 C.3       1 RES1    0.0000
     12 C8         4.8028    1.6046    3.6031 C.3       1 RES1    0.0000
     13 C9        -0.5361   -1.1216    4.8050 C.3       1 RES1    0.0000
     14 H1        -1.0910    2.2360    4.9718 H         1 RES1    0.0000
     15 H2        -0.7303    2.9129    3.6235 H         1 RES1    0.0000
     16 H3        -1.0717    3.7833    4.8620 H         1 RES1    0.0000
     17 H4         1.2861    4.9893    4.5434 H         1 RES1    0.0000
     18 H5         2.5457    4.0840    4.5050 H         1 RES1    0.0000
     19 H6         1.5430    4.0673    3.3217 H         1 RES1    0.0000
     20 H7         0.6250    3.8892    6.7916 H         1 RES1    0.0000
     21 H8         1.9244    3.0474    6.6836 H         1 RES1    0.0000
     22 H9         0.5579    2.3423    6.8877 H         1 RES1    0.0000
     23 H10        4.1243    1.3466    2.9419 H         1 RES1    0.0000
     24 H11        5.2560    2.3611    3.2551 H         1 RES1    0.0000
     25 H12        5.4069    0.8762    3.6769 H         1 RES1    0.0000
     26 H13       -0.2490   -0.8826    3.9247 H         1 RES1    0.0000
     27 H14       -0.3112   -2.0381    4.9580 H         1 RES1    0.0000
     28 H15       -1.5152   -1.0723    4.8014 H         1 RES1    0.0000
     29 C3A        4.1551   -0.1519    6.1226 C.ar      1 RES1    0.0000
     30 O3A        5.5256   -0.1518    6.1994 O.3       1 RES1    0.0000
     31 C9A        6.0708    0.7075    7.1955 C.3       1 RES1    0.0000
     32 H13A       5.7838    0.4686    8.0757 H         1 RES1    0.0000
     33 H14A       5.8459    1.6241    7.0425 H         1 RES1    0.0000
     34 H15A       7.0499    0.6583    7.1991 H         1 RES1    0.0000
     35 C1A        3.4421   -1.1782    6.7166 C.ar      1 RES1    0.0000
     36 N1A        4.1297   -2.1296    7.5297 N.3       1 RES1    0.0000
     37 O1A        4.2096   -1.8832    8.7717 O.2       1 RES1    0.0000
     38 C4A        4.7014   -3.4131    7.0317 C.3       1 RES1    0.0000
     39 C5A        6.1653   -3.4227    7.4163 C.3       1 RES1    0.0000
     40 H1A        6.6257   -2.6500    7.0287 H         1 RES1    0.0000
     41 H2A        6.2651   -3.3269    8.3769 H         1 RES1    0.0000
     42 H3A        6.6064   -4.1974    7.1385 H         1 RES1    0.0000
     43 C6A        3.9506   -4.5346    7.7223 C.3       1 RES1    0.0000
     44 H4A        4.2486   -5.4033    7.4571 H         1 RES1    0.0000
     45 H5A        2.9890   -4.4980    7.4955 H         1 RES1    0.0000
     46 H6A        3.9917   -4.4813    8.6787 H         1 RES1    0.0000
     47 C7A        4.5234   -3.4937    5.5520 C.3       1 RES1    0.0000
     48 H7A        4.9098   -4.3032    5.2088 H         1 RES1    0.0000
     49 H8A        3.6104   -3.4615    5.3168 H         1 RES1    0.0000
     50 H9A        4.9768   -2.7564    5.1128 H         1 RES1    0.0000
     51 C2A        2.0555   -1.2466    6.6032 C.ar      1 RES1    0.0000
     52 O2A        1.3734   -2.3075    7.1499 O.3       1 RES1    0.0000
     53 C8A        0.7320   -2.0187    8.3973 C.3       1 RES1    0.0000
     54 H10A       1.4104   -1.7606    9.0585 H         1 RES1    0.0000
     55 H11A       0.2788   -2.7751    8.7453 H         1 RES1    0.0000
     56 H12A       0.1279   -1.2902    8.3235 H         1 RES1    0.0000
@<TRIPOS>BOND
     1    1    4 1
     2    2    6 1
     3    3    7 1
     4    4    5 1
     5    5    6 ar
     6    6   29 ar
     7    7    5 ar
     8    8    4 1
     9    9    8 1
    10   10    8 1
    11   11    8 1
    12   12    2 1
    13   13    3 1
    14   14    9 1
    15   15    9 1
    16   16    9 1
    17   17   10 1
    18   18   10 1
    19   19   10 1
    20   20   11 1
    21   21   11 1
    22   22   11 1
    23   23   12 1
    24   24   12 1
    25   25   12 1
    26   26   13 1
    27   27   13 1
    28   28   13 1
    29   29   30 1
    30   30   31 1
    31   31   32 1
    32   33   31 1
    33   34   31 1
    34   35   29 ar
    35   36   35 1
    36   37   36 1
    37   38   36 1
    38   39   38 1
    39   40   39 1
    40   41   39 1
    41   42   39 1
    42   43   38 1
    43   44   43 1
    44   45   43 1
    45   46   43 1
    46   47   38 1
    47   48   47 1
    48   49   47 1
    49   50   47 1
    50   51    7 ar
    51   52   51 1
    52   53   52 1
    53   54   53 1
    54   55   53 1
    55   56   53 1
    56   35   51 ar
@<TRIPOS>SUBSTRUCTURE
     1 RES1 1

@<TRIPOS>CRYSIN
   9.0870    9.2880    6.2610  92.8900 106.4800  86.4800   2 1

