# MOL2 file generated by ConQuest
# Please check atom types

@<TRIPOS>MOLECULE
NUGSOY
    72    76     1
SMALL
NO_CHARGES
****
Generated from CSD

@<TRIPOS>ATOM
      1 O1         4.4216    3.6610    5.8728 O.2       1 RES1    0.0000
      2 O2         2.6052    4.7765    5.7432 O.2       1 RES1    0.0000
      3 N1         3.8143    4.7104    5.8354 N.pl3     1 RES1    0.0000
      4 C1         3.0784   10.1905    5.1938 C.ar      1 RES1    0.0000
      5 C2         2.4325   11.3923    5.4466 C.ar      1 RES1    0.0000
      6 H1         1.9282   11.7755    4.7656 H         1 RES1    0.0000
      7 C3         3.0073    9.5496    3.8789 C.2       1 RES1    0.0000
      8 H2         3.5265    8.7845    3.7770 H         1 RES1    0.0000
      9 C4         2.3088    9.9063    2.8245 C.2       1 RES1    0.0000
     10 H3         1.7895   10.6744    2.8800 H         1 RES1    0.0000
     11 C5         2.3065    9.1755    1.5948 C.2       1 RES1    0.0000
     12 H4         2.8437    8.4160    1.5645 H         1 RES1    0.0000
     13 C6         1.6286    9.4568    0.4972 C.2       1 RES1    0.0000
     14 H5         1.1117   10.2301    0.5217 H         1 RES1    0.0000
     15 C7         1.5949    8.6989   -0.7481 C.ar      1 RES1    0.0000
     16 C8         2.1227    7.4342   -0.8545 C.ar      1 RES1    0.0000
     17 H6         2.5142    7.0354   -0.1103 H         1 RES1    0.0000
     18 C9         2.0806    6.7508   -2.0462 C.ar      1 RES1    0.0000
     19 H7         2.4498    5.8997   -2.0984 H         1 RES1    0.0000
     20 C10        1.5078    7.2994   -3.1489 C.ar      1 RES1    0.0000
     21 H8         1.4896    6.8316   -3.9518 H         1 RES1    0.0000
     22 C11        0.9636    8.5350   -3.0664 C.ar      1 RES1    0.0000
     23 H9         0.5564    8.9102   -3.8131 H         1 RES1    0.0000
     24 C12        1.0073    9.2427   -1.8798 C.ar      1 RES1    0.0000
     25 H10        0.6390   10.0957   -1.8405 H         1 RES1    0.0000
     26 C13        3.8350    9.6298    6.2346 C.ar      1 RES1    0.0000
     27 C14        4.5590    8.3378    6.0966 C.ar      1 RES1    0.0000
     28 C15        5.9351    8.2777    6.1811 C.ar      1 RES1    0.0000
     29 H11        6.4187    9.0662    6.2733 H         1 RES1    0.0000
     30 C16        6.6129    7.0761    6.1314 C.ar      1 RES1    0.0000
     31 H12        7.5420    7.0657    6.1727 H         1 RES1    0.0000
     32 C17        5.9234    5.9025    6.0225 C.ar      1 RES1    0.0000
     33 H13        6.3688    5.0869    6.0115 H         1 RES1    0.0000
     34 C18        4.5685    5.9597    5.9296 C.ar      1 RES1    0.0000
     35 C19        3.8754    7.1479    5.9483 C.ar      1 RES1    0.0000
     36 H14        2.9493    7.1481    5.8612 H         1 RES1    0.0000
     37 O1B        1.9145   18.0130    7.0246 O.2       1 RES1    0.0000
     38 O2B        3.7310   16.8975    7.1542 O.2       1 RES1    0.0000
     39 N1B        2.5218   16.9636    7.0620 N.pl3     1 RES1    0.0000
     40 C1B        3.2577   11.4835    7.7036 C.ar      1 RES1    0.0000
     41 C2B        3.9036   10.2817    7.4508 C.ar      1 RES1    0.0000
     42 H1B        4.4079    9.8985    8.1318 H         1 RES1    0.0000
     43 C3B        3.3288   12.1244    9.0185 C.2       1 RES1    0.0000
     44 H2B        2.8096   12.8895    9.1204 H         1 RES1    0.0000
     45 C4B        4.0273   11.7677   10.0729 C.2       1 RES1    0.0000
     46 H3B        4.5466   10.9996   10.0174 H         1 RES1    0.0000
     47 C5B        4.0296   12.4985   11.3027 C.2       1 RES1    0.0000
     48 H4B        3.4924   13.2580   11.3330 H         1 RES1    0.0000
     49 C6B        4.7075   12.2172   12.4002 C.2       1 RES1    0.0000
     50 H5B        5.2244   11.4439   12.3757 H         1 RES1    0.0000
     51 C7B        4.7412   12.9751   13.6455 C.ar      1 RES1    0.0000
     52 C8B        4.2134   14.2398   13.7519 C.ar      1 RES1    0.0000
     53 H6B        3.8219   14.6386   13.0077 H         1 RES1    0.0000
     54 C9B        4.2555   14.9232   14.9436 C.ar      1 RES1    0.0000
     55 H7B        3.8863   15.7743   14.9959 H         1 RES1    0.0000
     56 C10B       4.8283   14.3746   16.0463 C.ar      1 RES1    0.0000
     57 H8B        4.8465   14.8424   16.8492 H         1 RES1    0.0000
     58 C11B       5.3725   13.1390   15.9638 C.ar      1 RES1    0.0000
     59 H9B        5.7797   12.7638   16.7106 H         1 RES1    0.0000
     60 C12B       5.3288   12.4313   14.7772 C.ar      1 RES1    0.0000
     61 H10B       5.6971   11.5783   14.7379 H         1 RES1    0.0000
     62 C13B       2.5011   12.0442    6.6628 C.ar      1 RES1    0.0000
     63 C14B       1.7771   13.3362    6.8008 C.ar      1 RES1    0.0000
     64 C15B       0.4010   13.3963    6.7163 C.ar      1 RES1    0.0000
     65 H11B      -0.0826   12.6078    6.6241 H         1 RES1    0.0000
     66 C16B      -0.2768   14.5979    6.7660 C.ar      1 RES1    0.0000
     67 H12B      -1.2058   14.6083    6.7247 H         1 RES1    0.0000
     68 C17B       0.4127   15.7715    6.8750 C.ar      1 RES1    0.0000
     69 H13B      -0.0327   16.5871    6.8859 H         1 RES1    0.0000
     70 C18B       1.7676   15.7143    6.9678 C.ar      1 RES1    0.0000
     71 C19B       2.4607   14.5261    6.9491 C.ar      1 RES1    0.0000
     72 H14B       3.3868   14.5259    7.0362 H         1 RES1    0.0000
@<TRIPOS>BOND
     1    1    3 2
     2    2    3 2
     3    3   34 1
     4    4    5 ar
     5    5    6 1
     6    7    4 1
     7    8    7 1
     8    9    7 2
     9   10    9 1
    10   11    9 1
    11   12   11 1
    12   13   11 2
    13   14   13 1
    14   15   13 1
    15   16   15 ar
    16   17   16 1
    17   18   16 ar
    18   19   18 1
    19   20   18 ar
    20   21   20 1
    21   22   20 ar
    22   23   22 1
    23   24   15 ar
    24   25   24 1
    25   26    4 ar
    26   27   26 1
    27   28   27 ar
    28   29   28 1
    29   30   28 ar
    30   31   30 1
    31   32   30 ar
    32   33   32 1
    33   34   32 ar
    34   35   27 ar
    35   36   35 1
    36   37   39 2
    37   38   39 2
    38   39   70 1
    39   40   41 ar
    40   41   26 ar
    41   42   41 1
    42   43   40 1
    43   44   43 1
    44   45   43 2
    45   46   45 1
    46   47   45 1
    47   48   47 1
    48   49   47 2
    49   50   49 1
    50   51   49 1
    51   52   51 ar
    52   53   52 1
    53   54   52 ar
    54   55   54 1
    55   56   54 ar
    56   57   56 1
    57   58   56 ar
    58   59   58 1
    59   60   51 ar
    60   61   60 1
    61   62    5 ar
    62   63   62 1
    63   64   63 ar
    64   65   64 1
    65   66   64 ar
    66   67   66 1
    67   68   66 ar
    68   69   68 1
    69   70   68 ar
    70   71   63 ar
    71   72   71 1
    72   22   24 ar
    73   34   35 ar
    74   40   62 ar
    75   58   60 ar
    76   70   71 ar
@<TRIPOS>SUBSTRUCTURE
     1 RES1 1

@<TRIPOS>CRYSIN
  10.3500   21.6740    6.7538  90.0000 107.2870  90.0000  14 1

