# MOL2 file generated by ConQuest
# Please check atom types

@<TRIPOS>MOLECULE
NUGZIY
    60    62     1
SMALL
NO_CHARGES
****
Generated from CSD

@<TRIPOS>ATOM
      1 O1         7.8550   15.8322   10.1941 O.3       1 RES1    0.0000
      2 O2         8.6944   17.4423   11.5399 O.2       1 RES1    0.0000
      3 O3         9.3203   12.3976   11.7134 O.3       1 RES1    0.0000
      4 O4         6.7237   12.5186   15.2252 O.3       1 RES1    0.0000
      5 O5        10.4886   16.8669    4.7915 O.2       1 RES1    0.0000
      6 O6         8.7575   15.7818    5.4611 O.2       1 RES1    0.0000
      7 O7        11.3424   21.0800    7.0759 O.2       1 RES1    0.0000
      8 O8        10.9955   21.1620    9.2193 O.2       1 RES1    0.0000
      9 N1         9.6312   16.6197    5.6197 N.pl3     1 RES1    0.0000
     10 N2        10.9162   20.6135    8.1281 N.pl3     1 RES1    0.0000
     11 C1         7.0205   15.2903   11.2721 C.3       1 RES1    0.0000
     12 H1         6.7759   16.0317   11.8977 H         1 RES1    0.0000
     13 C2         5.7517   14.7622   10.6089 C.3       1 RES1    0.0000
     14 H2         6.0159   14.2240    9.8084 H         1 RES1    0.0000
     15 C3         5.0311   13.8597   11.5679 C.2       1 RES1    0.0000
     16 H3         4.1575   13.5736   11.3300 H         1 RES1    0.0000
     17 C4         5.5235   13.4345   12.7183 C.2       1 RES1    0.0000
     18 H4         4.9760   12.8797   13.2620 H         1 RES1    0.0000
     19 C5         6.8968   13.7776   13.2129 C.3       1 RES1    0.0000
     20 H5         6.7933   14.5703   13.8133 H         1 RES1    0.0000
     21 C6         7.7959   14.2267   12.0437 C.3       1 RES1    0.0000
     22 H6         8.6140   14.6556   12.4276 H         1 RES1    0.0000
     23 C7         8.2390   13.1095   11.1211 C.3       1 RES1    0.0000
     24 H7         7.4825   12.4923   10.9575 H         1 RES1    0.0000
     25 H8         8.5240   13.4864   10.2514 H         1 RES1    0.0000
     26 C8         9.8411   11.4156   10.8153 C.3       1 RES1    0.0000
     27 H9        10.5333   10.8918   11.2709 H         1 RES1    0.0000
     28 H10       10.2297   11.8622   10.0337 H         1 RES1    0.0000
     29 H11        9.1185   10.8217   10.5270 H         1 RES1    0.0000
     30 C9         7.5198   12.6774   14.0549 C.3       1 RES1    0.0000
     31 H12        7.5452   11.8301   13.5427 H         1 RES1    0.0000
     32 H13        8.4467   12.9214   14.3029 H         1 RES1    0.0000
     33 C10        7.2885   11.5711   16.1153 C.3       1 RES1    0.0000
     34 H14        6.6890   11.4441   16.8805 H         1 RES1    0.0000
     35 H15        8.1566   11.8969   16.4312 H         1 RES1    0.0000
     36 H16        7.4089   10.7179   15.6496 H         1 RES1    0.0000
     37 C11        5.3217   16.8323    9.1149 C.ar      1 RES1    0.0000
     38 C12        5.7147   18.1267    9.4560 C.ar      1 RES1    0.0000
     39 H17        5.6286   18.4173   10.3571 H         1 RES1    0.0000
     40 C13        6.2265   18.9927    8.5120 C.ar      1 RES1    0.0000
     41 H18        6.4998   19.8658    8.7725 H         1 RES1    0.0000
     42 C14        6.3443   18.6035    7.1930 C.ar      1 RES1    0.0000
     43 H19        6.6929   19.2025    6.5435 H         1 RES1    0.0000
     44 C15        5.9458   17.3258    6.8305 C.ar      1 RES1    0.0000
     45 H20        6.0149   17.0507    5.9243 H         1 RES1    0.0000
     46 C16        5.4486   16.4483    7.7770 C.ar      1 RES1    0.0000
     47 H21        5.1898   15.5735    7.5152 H         1 RES1    0.0000
     48 C17        4.7891   15.8736   10.1482 C.3       1 RES1    0.0000
     49 H22        3.9743   15.4457    9.7832 H         1 RES1    0.0000
     50 H23        4.5171   16.3962   10.9437 H         1 RES1    0.0000
     51 C18        8.5630   16.9337   10.4553 C.2       1 RES1    0.0000
     52 C19        9.1613   17.4921    9.2042 C.ar      1 RES1    0.0000
     53 C20        9.7721   18.7426    9.2546 C.ar      1 RES1    0.0000
     54 H24        9.8340   19.2197   10.0739 H         1 RES1    0.0000
     55 C21       10.2847   19.2742    8.0929 C.ar      1 RES1    0.0000
     56 C22       10.2658   18.6080    6.8922 C.ar      1 RES1    0.0000
     57 H25       10.6505   18.9815    6.1081 H         1 RES1    0.0000
     58 C23        9.6573   17.3666    6.8821 C.ar      1 RES1    0.0000
     59 C24        9.0973   16.7918    8.0023 C.ar      1 RES1    0.0000
     60 H26        8.6779   15.9407    7.9557 H         1 RES1    0.0000
@<TRIPOS>BOND
     1    1   11 1
     2    2   51 2
     3    3   23 1
     4    4   30 1
     5    5    9 2
     6    6    9 2
     7    7   10 2
     8    8   10 2
     9    9   58 1
    10   10   55 1
    11   11   12 1
    12   13   11 1
    13   14   13 1
    14   15   13 1
    15   16   15 1
    16   17   15 2
    17   18   17 1
    18   19   17 1
    19   20   19 1
    20   21   11 1
    21   22   21 1
    22   23   21 1
    23   24   23 1
    24   25   23 1
    25   26    3 1
    26   27   26 1
    27   28   26 1
    28   29   26 1
    29   30   19 1
    30   31   30 1
    31   32   30 1
    32   33    4 1
    33   34   33 1
    34   35   33 1
    35   36   33 1
    36   37   38 ar
    37   38   39 1
    38   40   38 ar
    39   41   40 1
    40   42   40 ar
    41   43   42 1
    42   44   42 ar
    43   45   44 1
    44   46   37 ar
    45   47   46 1
    46   48   13 1
    47   49   48 1
    48   50   48 1
    49   51    1 1
    50   52   51 1
    51   53   52 ar
    52   54   53 1
    53   55   53 ar
    54   56   55 ar
    55   57   56 1
    56   58   56 ar
    57   59   52 ar
    58   60   59 1
    59   19   21 1
    60   37   48 1
    61   44   46 ar
    62   58   59 ar
@<TRIPOS>SUBSTRUCTURE
     1 RES1 1

@<TRIPOS>CRYSIN
   7.4654   12.4670   13.7020  68.7550  79.4960  86.0840   2 1

