# MOL2 file generated by ConQuest
# Please check atom types

@<TRIPOS>MOLECULE
NUHTOA
    57    59     1
SMALL
NO_CHARGES
****
Generated from CSD

@<TRIPOS>ATOM
      1 N1         4.3081    7.1172   -2.6442 N.2       1 RES1    0.0000
      2 N2         4.3640    6.5605   -1.3746 N.pl3     1 RES1    0.0000
      3 H1         5.0714    6.1077   -1.1137 H         1 RES1    0.0000
      4 N3         4.2864    5.2980    1.2747 N.pl3     1 RES1    0.0000
      5 N4        -0.1169    7.2031    1.9369 N.pl3     1 RES1    0.0000
      6 O1         6.3219    7.6466   -5.4206 O.3       1 RES1    0.0000
      7 O2         5.2846    5.0627    0.5724 O.2       1 RES1    0.0000
      8 O3         4.1550    4.8352    2.4015 O.2       1 RES1    0.0000
      9 O4        -0.1539    6.6075    3.0095 O.2       1 RES1    0.0000
     10 O5        -1.0431    7.9053    1.5198 O.2       1 RES1    0.0000
     11 C1         0.3188    3.3603   -6.7082 C.3       1 RES1    0.0000
     12 H2         0.1102    3.0392   -5.8057 H         1 RES1    0.0000
     13 H3         0.8988    2.7123   -7.1598 H         1 RES1    0.0000
     14 H4        -0.5112    3.4663   -7.2174 H         1 RES1    0.0000
     15 C2         1.0224    4.6821   -6.6178 C.3       1 RES1    0.0000
     16 H5         0.4987    5.4052   -6.1679 H         1 RES1    0.0000
     17 C3         1.9370    5.1551   -7.7179 C.3       1 RES1    0.0000
     18 H6         1.9335    6.1206   -7.9384 H         1 RES1    0.0000
     19 H7         2.0824    4.5512   -8.4885 H         1 RES1    0.0000
     20 C4         2.5025    4.7399   -6.3842 C.3       1 RES1    0.0000
     21 H8         2.9632    3.8525   -6.3795 H         1 RES1    0.0000
     22 C5         3.0807    5.7563   -5.4409 C.3       1 RES1    0.0000
     23 H9         3.0676    5.3863   -4.5227 H         1 RES1    0.0000
     24 H10        2.5082    6.5642   -5.4486 H         1 RES1    0.0000
     25 C6         4.5094    6.1580   -5.7933 C.3       1 RES1    0.0000
     26 H11        5.0916    5.3595   -5.7380 H         1 RES1    0.0000
     27 H12        4.5312    6.4844   -6.7282 H         1 RES1    0.0000
     28 C7         5.0634    7.2408   -4.8759 C.3       1 RES1    0.0000
     29 H13        4.4392    8.0222   -4.8765 H         1 RES1    0.0000
     30 C8         6.8227    8.8198   -4.7939 C.3       1 RES1    0.0000
     31 H14        6.9797    8.6429   -3.8321 H         1 RES1    0.0000
     32 H15        6.1570    9.5482   -4.8697 H         1 RES1    0.0000
     33 C9         8.1100    9.2400   -5.4489 C.ar      1 RES1    0.0000
     34 C10        8.4306    8.8456   -6.7387 C.ar      1 RES1    0.0000
     35 H16        7.8387    8.2835   -7.2241 H         1 RES1    0.0000
     36 C11        9.6217    9.2738   -7.3215 C.ar      1 RES1    0.0000
     37 H17        9.8452    8.9903   -8.2008 H         1 RES1    0.0000
     38 C12       10.4805   10.1090   -6.6302 C.ar      1 RES1    0.0000
     39 H18       11.2869   10.4054   -7.0346 H         1 RES1    0.0000
     40 C13       10.1577   10.5101   -5.3455 C.ar      1 RES1    0.0000
     41 H19       10.7426   11.0857   -4.8663 H         1 RES1    0.0000
     42 C14        8.9818   10.0727   -4.7571 C.ar      1 RES1    0.0000
     43 H20        8.7693   10.3450   -3.8727 H         1 RES1    0.0000
     44 C15        5.2248    6.7349   -3.4609 C.2       1 RES1    0.0000
     45 C16        6.3448    5.7926   -3.1471 C.3       1 RES1    0.0000
     46 H21        6.8374    6.1194   -2.3646 H         1 RES1    0.0000
     47 H22        6.9508    5.7376   -3.9150 H         1 RES1    0.0000
     48 H23        5.9795    4.9040   -2.9553 H         1 RES1    0.0000
     49 C17        3.3065    6.7292   -0.5460 C.ar      1 RES1    0.0000
     50 C18        3.2320    6.1354    0.7392 C.ar      1 RES1    0.0000
     51 C19        2.1118    6.3050    1.5523 C.ar      1 RES1    0.0000
     52 H24        2.0745    5.8983    2.4103 H         1 RES1    0.0000
     53 C20        1.0643    7.0658    1.0990 C.ar      1 RES1    0.0000
     54 C21        1.1019    7.6753   -0.1539 C.ar      1 RES1    0.0000
     55 H25        0.3705    8.2057   -0.4485 H         1 RES1    0.0000
     56 C22        2.1946    7.5071   -0.9575 C.ar      1 RES1    0.0000
     57 H26        2.2090    7.9218   -1.8128 H         1 RES1    0.0000
@<TRIPOS>BOND
     1    1    2 1
     2    2    3 1
     3    4    7 2
     4    5    9 2
     5    6   28 1
     6    8    4 2
     7   10    5 2
     8   11   12 1
     9   13   11 1
    10   14   11 1
    11   15   11 1
    12   16   15 1
    13   17   15 1
    14   18   17 1
    15   19   17 1
    16   20   15 1
    17   21   20 1
    18   22   20 1
    19   23   22 1
    20   24   22 1
    21   25   22 1
    22   26   25 1
    23   27   25 1
    24   28   25 1
    25   29   28 1
    26   30    6 1
    27   31   30 1
    28   32   30 1
    29   33   30 1
    30   34   33 ar
    31   35   34 1
    32   36   34 ar
    33   37   36 1
    34   38   36 ar
    35   39   38 1
    36   40   38 ar
    37   41   40 1
    38   42   33 ar
    39   43   42 1
    40   44    1 2
    41   45   44 1
    42   46   45 1
    43   47   45 1
    44   48   45 1
    45   49    2 1
    46   50    4 1
    47   51   50 ar
    48   52   51 1
    49   53    5 1
    50   54   53 ar
    51   55   54 1
    52   56   49 ar
    53   57   56 1
    54   17   20 1
    55   28   44 1
    56   40   42 ar
    57   49   50 ar
    58   51   53 ar
    59   54   56 ar
@<TRIPOS>SUBSTRUCTURE
     1 RES1 1

@<TRIPOS>CRYSIN
   7.0477    9.0172   17.4990 103.5270  94.3300  95.5010   2 1

