# MOL2 file generated by ConQuest
# Please check atom types

@<TRIPOS>MOLECULE
NUJBEZ01
    40    33     2
SMALL
NO_CHARGES
****
Generated from CSD

@<TRIPOS>ATOM
      1 O1         2.8098   13.5211    4.5349 O.3       1 RES1    0.0000
      2 N1         3.5591   12.9926    3.4591 N.2       1 RES1    0.0000
      3 C1         3.4210   11.7340    3.3606 C.2       1 RES1    0.0000
      4 C2         4.1832   11.0791    2.2453 C.3       1 RES1    0.0000
      5 C3         4.9993    9.8922    2.7397 C.3       1 RES1    0.0000
      6 C4         4.1959    8.9491    3.6185 C.3       1 RES1    0.0000
      7 C5         3.5393    9.6974    4.7754 C.3       1 RES1    0.0000
      8 C6         2.6375   10.8171    4.2549 C.3       1 RES1    0.0000
      9 O2         3.1714   10.5608    1.3182 O.3       1 RES1    0.0000
     10 O3         3.5110   12.2648   -0.0975 O.2       1 RES1    0.0000
     11 C7         2.8901   11.2750    0.2260 C.2       1 RES1    0.0000
     12 C8         1.7727   10.6952   -0.5514 C.ar      1 RES1    0.0000
     13 C9         0.9541    9.6952   -0.0357 C.ar      1 RES1    0.0000
     14 C10       -0.0688    9.1701   -0.7977 C.ar      1 RES1    0.0000
     15 C11       -0.2847    9.6416   -2.0859 C.ar      1 RES1    0.0000
     16 C12        0.5156   10.6405   -2.5977 C.ar      1 RES1    0.0000
     17 C13        1.5441   11.1770   -1.8435 C.ar      1 RES1    0.0000
     18 H1         3.0581   14.3719    4.5117 H         1 RES1    0.0000
     19 H2         4.7138   11.7522    1.8300 H         1 RES1    0.0000
     20 H3         1.1114    9.3535    0.8421 H         1 RES1    0.0000
     21 H4        -0.6899    8.4628   -0.4288 H         1 RES1    0.0000
     22 H5        -0.9817    9.2658   -2.5649 H         1 RES1    0.0000
     23 H6         0.3190   10.9970   -3.4408 H         1 RES1    0.0000
     24 H7         2.0777   11.9208   -2.1757 H         1 RES1    0.0000
     25 H8         5.7259   10.2556    3.2283 H         1 RES1    0.0000
     26 H9         5.4013    9.4434    1.9729 H         1 RES1    0.0000
     27 H10        3.5310    8.5288    3.0632 H         1 RES1    0.0000
     28 H11        4.8145    8.2202    3.9661 H         1 RES1    0.0000
     29 H12        4.2749   10.0710    5.3596 H         1 RES1    0.0000
     30 H13        3.0432    9.0790    5.2872 H         1 RES1    0.0000
     31 H14        1.9134   10.4002    3.7498 H         1 RES1    0.0000
     32 H15        2.2473   11.3239    4.9444 H         1 RES1    0.0000
     33 O4         3.3349   13.6896    3.3857 Du        2 SUP2    0.0000
     34 N2         2.8138   12.6953    4.2462 Du        2 SUP2    0.0000
     35 C14        3.0232   11.4891    3.7566 Du        2 SUP2    0.0000
     36 C15        3.8083   11.4208    2.5504 Du        2 SUP2    0.0000
     37 C16        4.8370   10.3763    2.4809 Du        2 SUP2    0.0000
     38 C17        4.5481    9.1302    3.2129 Du        2 SUP2    0.0000
     39 C18        3.8880    9.3170    4.5253 Du        2 SUP2    0.0000
     40 C19        2.7479   10.2533    4.5340 Du        2 SUP2    0.0000
@<TRIPOS>BOND
     1    1    2 1
     2    2    3 2
     3    3    4 1
     4    4    5 1
     5    5    6 1
     6    6    7 1
     7    7    8 1
     8    8    3 1
     9    9    4 1
    10   10   11 2
    11   11    9 1
    12   12   11 1
    13   13   12 ar
    14   14   13 ar
    15   15   14 ar
    16   16   15 ar
    17   17   12 ar
    18   18    1 1
    19   19    4 1
    20   20   13 1
    21   21   14 1
    22   22   15 1
    23   23   16 1
    24   24   17 1
    25   25    5 1
    26   26    5 1
    27   27    6 1
    28   28    6 1
    29   29    7 1
    30   30    7 1
    31   31    8 1
    32   32    8 1
    33   16   17 ar
@<TRIPOS>SUBSTRUCTURE
     1 RES1 1
     2 SUP2 33

@<TRIPOS>CRYSIN
  10.6730   11.3900    9.6610  90.0000  91.6500  90.0000  14 1

