# MOL2 file generated by ConQuest
# Please check atom types

@<TRIPOS>MOLECULE
NUJBEZ
    32    33     1
SMALL
NO_CHARGES
****
Generated from CSD

@<TRIPOS>ATOM
      1 O1         2.8435   13.5322    4.5931 O.3       1 RES1    0.0000
      2 O2         3.1517   10.6563    1.3186 O.3       1 RES1    0.0000
      3 O3         3.5010   12.3304   -0.0976 O.2       1 RES1    0.0000
      4 N1         3.5504   13.0428    3.4873 N.2       1 RES1    0.0000
      5 C1         3.4282   11.7723    3.3868 C.2       1 RES1    0.0000
      6 C2         4.1688   11.1663    2.2390 C.3       1 RES1    0.0000
      7 C3         5.0056    9.9908    2.6743 C.3       1 RES1    0.0000
      8 C4         4.2423    9.0211    3.5468 C.3       1 RES1    0.0000
      9 C5         3.6293    9.7163    4.7259 C.3       1 RES1    0.0000
     10 C6         2.7045   10.8324    4.2730 C.3       1 RES1    0.0000
     11 C7         2.8739   11.3447    0.2206 C.2       1 RES1    0.0000
     12 C8         1.7867   10.7512   -0.5651 C.ar      1 RES1    0.0000
     13 C9         0.9757    9.7438   -0.0654 C.ar      1 RES1    0.0000
     14 C10       -0.0301    9.2132   -0.8306 C.ar      1 RES1    0.0000
     15 C11       -0.2484    9.6969   -2.1014 C.ar      1 RES1    0.0000
     16 C12        0.5454   10.6769   -2.6030 C.ar      1 RES1    0.0000
     17 C13        1.5623   11.2269   -1.8496 C.ar      1 RES1    0.0000
     18 H1         3.1723   14.4150    4.4477 H         1 RES1    0.0000
     19 H2         4.7093   11.8432    1.8203 H         1 RES1    0.0000
     20 H3         1.1320    9.3653    0.8042 H         1 RES1    0.0000
     21 H4        -0.5724    8.4528   -0.5602 H         1 RES1    0.0000
     22 H5        -0.9611    9.2155   -2.6343 H         1 RES1    0.0000
     23 H6         0.4107   11.1308   -3.4736 H         1 RES1    0.0000
     24 H7         2.0008   12.0079   -2.1521 H         1 RES1    0.0000
     25 H8         5.6873   10.3430    3.2296 H         1 RES1    0.0000
     26 H9         5.3950    9.5036    1.9042 H         1 RES1    0.0000
     27 H10        3.5531    8.6026    2.9876 H         1 RES1    0.0000
     28 H11        4.8829    8.3212    3.8631 H         1 RES1    0.0000
     29 H12        4.3897   10.0868    5.2851 H         1 RES1    0.0000
     30 H13        3.0961    9.0977    5.2559 H         1 RES1    0.0000
     31 H14        1.9186   10.3990    3.7645 H         1 RES1    0.0000
     32 H15        2.3088   11.3001    4.9308 H         1 RES1    0.0000
@<TRIPOS>BOND
     1    1    4 1
     2    2    6 1
     3    3   11 2
     4    4    5 2
     5    5    6 1
     6    6    7 1
     7    7    8 1
     8    8    9 1
     9    9   10 1
    10   10    5 1
    11   11    2 1
    12   12   11 1
    13   13   12 ar
    14   14   13 ar
    15   15   14 ar
    16   16   15 ar
    17   17   12 ar
    18   18    1 1
    19   19    6 1
    20   20   13 1
    21   21   14 1
    22   22   15 1
    23   23   16 1
    24   24   17 1
    25   25    7 1
    26   26    7 1
    27   27    8 1
    28   28    8 1
    29   29    9 1
    30   30    9 1
    31   31   10 1
    32   32   10 1
    33   16   17 ar
@<TRIPOS>SUBSTRUCTURE
     1 RES1 1

@<TRIPOS>CRYSIN
  10.8060   11.4350    9.7650  90.0000  91.8000  90.0000  14 1

