# MOL2 file generated by ConQuest
# Please check atom types

@<TRIPOS>MOLECULE
NUJFII
    44    44     1
SMALL
NO_CHARGES
****
Generated from CSD

@<TRIPOS>ATOM
      1 O1         6.0922   -2.5251    8.1931 O.3       1 RES1    0.0000
      2 O2         6.2834    3.4850    1.7473 O.2       1 RES1    0.0000
      3 O3         5.5327    4.3348    3.5926 O.2       1 RES1    0.0000
      4 O4         7.1473    0.6370    2.0964 O.3       1 RES1    0.0000
      5 O5         5.3991    1.0331    0.0117 O.2       1 RES1    0.0000
      6 O6         3.8960    1.9383    1.4265 O.3       1 RES1    0.0000
      7 O7         5.4705   -1.4387    2.3744 O.2       1 RES1    0.0000
      8 O8         3.9143   -0.1717    3.3844 O.3       1 RES1    0.0000
      9 N1         5.8544    3.3775    2.9025 N.pl3     1 RES1    0.0000
     10 C1         5.5633   -2.4684    9.5270 C.3       1 RES1    0.0000
     11 H1         6.0425   -1.8080   10.0337 H         1 RES1    0.0000
     12 H2         5.6602   -3.3266    9.9468 H         1 RES1    0.0000
     13 H3         4.6333   -2.2324    9.4927 H         1 RES1    0.0000
     14 C2         6.0253   -1.3883    7.4385 C.ar      1 RES1    0.0000
     15 C3         5.4333   -0.1956    7.8447 C.ar      1 RES1    0.0000
     16 H4         5.0752   -0.1161    8.6996 H         1 RES1    0.0000
     17 C4         5.3839    0.8689    6.9662 C.ar      1 RES1    0.0000
     18 H5         5.0060    1.6709    7.2468 H         1 RES1    0.0000
     19 C5         5.8878    0.7725    5.6656 C.ar      1 RES1    0.0000
     20 C6         6.5318   -0.4151    5.3078 C.ar      1 RES1    0.0000
     21 H6         6.9194   -0.4884    4.4648 H         1 RES1    0.0000
     22 C7         6.6046   -1.4772    6.1780 C.ar      1 RES1    0.0000
     23 H7         7.0425   -2.2571    5.9225 H         1 RES1    0.0000
     24 C8         5.7776    1.9324    4.7891 C.2       1 RES1    0.0000
     25 H8         5.6961    2.7487    5.2273 H         1 RES1    0.0000
     26 C9         5.7750    2.0069    3.4561 C.2       1 RES1    0.0000
     27 C10        5.8164    0.9341    2.3947 C.3       1 RES1    0.0000
     28 C11        5.0367    1.3484    1.1169 C.2       1 RES1    0.0000
     29 C12        2.9485    2.2018    0.3393 C.3       1 RES1    0.0000
     30 H9         2.0466    2.2252    0.6964 H         1 RES1    0.0000
     31 H10        2.9950    1.4829   -0.3109 H         1 RES1    0.0000
     32 C13        3.2471    3.4920   -0.3300 C.3       1 RES1    0.0000
     33 H11        3.1931    4.2054    0.3109 H         1 RES1    0.0000
     34 H12        2.6106    3.6433   -1.0318 H         1 RES1    0.0000
     35 H13        4.1322    3.4618   -0.7013 H         1 RES1    0.0000
     36 C14        5.0605   -0.3824    2.7642 C.2       1 RES1    0.0000
     37 C15        3.0271   -1.3333    3.5200 C.3       1 RES1    0.0000
     38 H14        3.1147   -1.8957    2.7342 H         1 RES1    0.0000
     39 H15        2.1070   -1.0291    3.5677 H         1 RES1    0.0000
     40 C16        3.3435   -2.1405    4.7424 C.3       1 RES1    0.0000
     41 H16        4.2194   -2.5245    4.6546 H         1 RES1    0.0000
     42 H17        2.6947   -2.8422    4.8394 H         1 RES1    0.0000
     43 H18        3.3198   -1.5727    5.5162 H         1 RES1    0.0000
     44 H19        7.2253    0.1159    1.4895 H         1 RES1    0.0000
@<TRIPOS>BOND
     1    1   10 1
     2    2    9 2
     3    3    9 2
     4    4   27 1
     5    5   28 2
     6    6   28 1
     7    7   36 2
     8    8   36 1
     9    9   26 1
    10   10   11 1
    11   12   10 1
    12   13   10 1
    13   14    1 1
    14   15   14 ar
    15   16   15 1
    16   17   15 ar
    17   18   17 1
    18   19   17 ar
    19   20   19 ar
    20   21   20 1
    21   22   14 ar
    22   23   22 1
    23   24   19 1
    24   25   24 1
    25   26   24 2
    26   27   26 1
    27   28   27 1
    28   29    6 1
    29   30   29 1
    30   31   29 1
    31   32   29 1
    32   33   32 1
    33   34   32 1
    34   35   32 1
    35   36   27 1
    36   37    8 1
    37   38   37 1
    38   39   37 1
    39   40   37 1
    40   41   40 1
    41   42   40 1
    42   43   40 1
    43   44    4 1
    44   20   22 ar
@<TRIPOS>SUBSTRUCTURE
     1 RES1 1

@<TRIPOS>CRYSIN
   6.7980   10.1396   12.7000  74.6100  85.5600  79.3150   2 1

