# MOL2 file generated by ConQuest
# Please check atom types

@<TRIPOS>MOLECULE
NUKBUQ
    32    33     1
SMALL
NO_CHARGES
****
Generated from CSD

@<TRIPOS>ATOM
      1 O1         3.1664    4.5873    3.2024 O.2       1 RES1    0.0000
      2 O2         7.7673   -1.7542    1.0482 O.2       1 RES1    0.0000
      3 O3         5.8953   -2.3007    1.9300 O.2       1 RES1    0.0000
      4 N1         6.7042   -1.4701    1.5324 N.pl3     1 RES1    0.0000
      5 N2         3.9423    3.6803    2.7760 N.3       1 RES1    0.0000
      6 C1         6.3453   -0.0497    1.6530 C.ar      1 RES1    0.0000
      7 C2         7.2101    0.8790    1.1196 C.ar      1 RES1    0.0000
      8 C3         6.8797    2.2242    1.2198 C.ar      1 RES1    0.0000
      9 C4         5.7107    2.5847    1.8569 C.ar      1 RES1    0.0000
     10 C5         4.8595    1.6268    2.3717 C.ar      1 RES1    0.0000
     11 C6         5.1603    0.2790    2.2748 C.ar      1 RES1    0.0000
     12 C7         5.1865    3.9797    2.0659 C.3       1 RES1    0.0000
     13 C8         4.8766    4.6892    0.7509 C.3       1 RES1    0.0000
     14 C9         6.0947    4.8230    2.9425 C.3       1 RES1    0.0000
     15 C10        3.6484    2.2395    3.0189 C.3       1 RES1    0.0000
     16 C11        2.3529    1.8561    2.3258 C.3       1 RES1    0.0000
     17 C12        3.5982    1.9694    4.5089 C.3       1 RES1    0.0000
     18 H1         8.0510    0.5924    0.6592 H         1 RES1    0.0000
     19 H2         7.4824    2.9236    0.8359 H         1 RES1    0.0000
     20 H3         4.5462   -0.4217    2.6316 H         1 RES1    0.0000
     21 H4         4.2784    4.1121    0.1937 H         1 RES1    0.0000
     22 H5         4.4152    5.5568    0.9429 H         1 RES1    0.0000
     23 H6         5.7255    4.8650    0.2565 H         1 RES1    0.0000
     24 H7         6.2804    4.3338    3.7919 H         1 RES1    0.0000
     25 H8         6.9515    4.9988    2.4617 H         1 RES1    0.0000
     26 H9         5.6412    5.6905    3.1481 H         1 RES1    0.0000
     27 H10        2.4246    2.0484    1.3523 H         1 RES1    0.0000
     28 H11        2.1820    0.8803    2.4668 H         1 RES1    0.0000
     29 H12        1.6009    2.3847    2.7216 H         1 RES1    0.0000
     30 H13        4.4676    2.2344    4.9166 H         1 RES1    0.0000
     31 H14        2.8553    2.4994    4.9115 H         1 RES1    0.0000
     32 H15        3.4376    0.9949    4.6584 H         1 RES1    0.0000
@<TRIPOS>BOND
     1    1    5 1
     2    2    4 2
     3    3    4 2
     4    4    6 1
     5    5   12 1
     6    6    7 ar
     7    7    8 ar
     8    8    9 ar
     9    9   10 ar
    10   10   11 ar
    11   11    6 ar
    12   12    9 1
    13   13   12 1
    14   14   12 1
    15   15    5 1
    16   16   15 1
    17   17   15 1
    18   18    7 1
    19   19    8 1
    20   20   11 1
    21   21   13 1
    22   22   13 1
    23   23   13 1
    24   24   14 1
    25   25   14 1
    26   26   14 1
    27   27   16 1
    28   28   16 1
    29   29   16 1
    30   30   17 1
    31   31   17 1
    32   32   17 1
    33   10   15 1
@<TRIPOS>SUBSTRUCTURE
     1 RES1 1

@<TRIPOS>CRYSIN
  11.3940   12.7390   16.9890  90.0000  90.0000  90.0000  61 1

