# MOL2 file generated by ConQuest
# Please check atom types

@<TRIPOS>MOLECULE
NUKBOK
    32    33     1
SMALL
NO_CHARGES
****
Generated from CSD

@<TRIPOS>ATOM
      1 O1         9.2606    6.2271    4.7760 O.2       1 RES1    0.0000
      2 O2         7.9375    7.4473    3.6563 O.2       1 RES1    0.0000
      3 N1         8.3351    6.3513    4.0200 N.pl3     1 RES1    0.0000
      4 N2         4.3067    2.6497    1.4978 N.3       1 RES1    0.0000
      5 C1         7.6484    5.1594    3.5124 C.ar      1 RES1    0.0000
      6 C2         8.1561    3.9116    3.8327 C.ar      1 RES1    0.0000
      7 C3         7.4973    2.7864    3.3792 C.ar      1 RES1    0.0000
      8 C4         6.3417    2.9373    2.6210 C.ar      1 RES1    0.0000
      9 C5         5.8695    4.1950    2.3005 C.ar      1 RES1    0.0000
     10 C6         6.5128    5.3344    2.7405 C.ar      1 RES1    0.0000
     11 C7         5.4479    1.8712    2.0346 C.3       1 RES1    0.0000
     12 C8         4.9421    0.9052    3.0961 C.3       1 RES1    0.0000
     13 C9         6.1800    1.0977    0.9462 C.3       1 RES1    0.0000
     14 C10        4.6283    4.0967    1.4334 C.3       1 RES1    0.0000
     15 C11        3.4648    4.8943    2.0073 C.3       1 RES1    0.0000
     16 C12        4.9342    4.5501    0.0198 C.3       1 RES1    0.0000
     17 H1         3.5791    2.3338    1.6431 H         1 RES1    0.0000
     18 H2         8.9875    3.8299    4.3808 H         1 RES1    0.0000
     19 H3         7.8469    1.8704    3.5910 H         1 RES1    0.0000
     20 H4         6.1710    6.2462    2.5101 H         1 RES1    0.0000
     21 H5         4.3545    0.2159    2.6665 H         1 RES1    0.0000
     22 H6         5.7180    0.4518    3.5336 H         1 RES1    0.0000
     23 H7         4.4168    1.4069    3.7830 H         1 RES1    0.0000
     24 H8         6.9412    0.5918    1.3501 H         1 RES1    0.0000
     25 H9         5.5477    0.4576    0.5088 H         1 RES1    0.0000
     26 H10        6.5316    1.7370    0.2613 H         1 RES1    0.0000
     27 H11        2.6697    4.7976    1.4035 H         1 RES1    0.0000
     28 H12        3.2356    4.5392    2.9140 H         1 RES1    0.0000
     29 H13        3.7187    5.8545    2.0746 H         1 RES1    0.0000
     30 H14        5.1449    5.5253    0.0178 H         1 RES1    0.0000
     31 H15        5.7169    4.0366   -0.3326 H         1 RES1    0.0000
     32 H16        4.1366    4.3792   -0.5622 H         1 RES1    0.0000
@<TRIPOS>BOND
     1    1    3 2
     2    2    3 2
     3    3    5 1
     4    4   11 1
     5    5    6 ar
     6    6    7 ar
     7    7    8 ar
     8    8    9 ar
     9    9   10 ar
    10   10    5 ar
    11   11    8 1
    12   12   11 1
    13   13   11 1
    14   14    4 1
    15   15   14 1
    16   16   14 1
    17   17    4 1
    18   18    6 1
    19   19    7 1
    20   20   10 1
    21   21   12 1
    22   22   12 1
    23   23   12 1
    24   24   13 1
    25   25   13 1
    26   26   13 1
    27   27   15 1
    28   28   15 1
    29   29   15 1
    30   30   16 1
    31   31   16 1
    32   32   16 1
    33    9   14 1
@<TRIPOS>SUBSTRUCTURE
     1 RES1 1

@<TRIPOS>CRYSIN
  14.2180    8.3350   19.9260  90.0000  96.5500  90.0000  15 1

