# MOL2 file generated by ConQuest
# Please check atom types

@<TRIPOS>MOLECULE
NUKMAJ
    43    45     1
SMALL
NO_CHARGES
****
Generated from CSD

@<TRIPOS>ATOM
      1 C1         2.5697    1.4608    5.3145 C.3       1 RES1    0.0000
      2 C2         1.4128    0.5406    5.7102 C.2       1 RES1    0.0000
      3 C3         0.3695    1.0611    6.6465 C.3       1 RES1    0.0000
      4 H1         0.0181    0.2968    7.1695 H         1 RES1    0.0000
      5 H2        -0.3789    1.4155    6.1052 H         1 RES1    0.0000
      6 C4         0.7981    2.1455    7.6269 C.3       1 RES1    0.0000
      7 H3         1.1139    1.7084    8.4574 H         1 RES1    0.0000
      8 H4         0.0013    2.6846    7.8618 H         1 RES1    0.0000
      9 C5         1.9026    3.1006    7.1316 C.3       1 RES1    0.0000
     10 H5         2.2741    3.5844    7.9244 H         1 RES1    0.0000
     11 C6         3.0044    2.2678    6.5320 C.2       1 RES1    0.0000
     12 C7         1.4746    4.1543    6.0817 C.3       1 RES1    0.0000
     13 H6         2.2909    4.6886    5.8601 H         1 RES1    0.0000
     14 C8         1.0138    3.4993    4.7841 C.3       1 RES1    0.0000
     15 H7         0.8646    4.1978    4.0981 H         1 RES1    0.0000
     16 H8         0.1538    3.0342    4.9389 H         1 RES1    0.0000
     17 C9         2.0457    2.4982    4.2693 C.3       1 RES1    0.0000
     18 H9         2.8203    3.0039    3.9175 H         1 RES1    0.0000
     19 H10        1.6466    2.0013    3.5114 H         1 RES1    0.0000
     20 C10        3.7259    0.6683    4.7103 C.3       1 RES1    0.0000
     21 H11        4.4488    1.2823    4.4631 H         1 RES1    0.0000
     22 H12        3.4142    0.1926    3.9121 H         1 RES1    0.0000
     23 H13        4.0571    0.0211    5.3682 H         1 RES1    0.0000
     24 O1         1.3349   -0.5711    5.2258 O.2       1 RES1    0.0000
     25 O2         4.1323    2.2505    6.9710 O.2       1 RES1    0.0000
     26 C11        0.4380    5.1359    6.6223 C.3       1 RES1    0.0000
     27 H14        0.0652    5.6582    5.8673 H         1 RES1    0.0000
     28 H15       -0.3043    4.6252    7.0318 H         1 RES1    0.0000
     29 C12        1.0017    6.0897    7.6468 C.2       1 RES1    0.0000
     30 O3         2.1946    6.1648    7.8666 O.2       1 RES1    0.0000
     31 C13        0.0578    6.9840    8.4043 C.ar      1 RES1    0.0000
     32 C14       -1.2879    7.1301    8.0560 C.ar      1 RES1    0.0000
     33 H16       -1.6446    6.6384    7.3251 H         1 RES1    0.0000
     34 C15       -2.1041    7.9921    8.7737 C.ar      1 RES1    0.0000
     35 H17       -3.0185    8.1014    8.5397 H         1 RES1    0.0000
     36 C16       -1.5579    8.6879    9.8350 C.ar      1 RES1    0.0000
     37 C17       -0.2251    8.5682   10.2037 C.ar      1 RES1    0.0000
     38 H18        0.1270    9.0671   10.9314 H         1 RES1    0.0000
     39 C18        0.5737    7.7037    9.4833 C.ar      1 RES1    0.0000
     40 H19        1.4867    7.5975    9.7239 H         1 RES1    0.0000
     41 N1        -2.4185    9.5824   10.6230 N.pl3     1 RES1    0.0000
     42 O4        -3.6350    9.4550   10.5126 O.2       1 RES1    0.0000
     43 O5        -1.8838   10.4172   11.3421 O.2       1 RES1    0.0000
@<TRIPOS>BOND
     1    1    2 1
     2    2    3 1
     3    3    4 1
     4    5    3 1
     5    6    3 1
     6    7    6 1
     7    8    6 1
     8    9    6 1
     9   10    9 1
    10   11    1 1
    11   12    9 1
    12   13   12 1
    13   14   12 1
    14   15   14 1
    15   16   14 1
    16   17    1 1
    17   18   17 1
    18   19   17 1
    19   20    1 1
    20   21   20 1
    21   22   20 1
    22   23   20 1
    23   24    2 2
    24   25   11 2
    25   26   12 1
    26   27   26 1
    27   28   26 1
    28   29   26 1
    29   30   29 2
    30   31   29 1
    31   32   31 ar
    32   33   32 1
    33   34   32 ar
    34   35   34 1
    35   36   34 ar
    36   37   36 ar
    37   38   37 1
    38   39   31 ar
    39   40   39 1
    40   41   36 1
    41   42   41 2
    42   43   41 2
    43    9   11 1
    44   14   17 1
    45   37   39 ar
@<TRIPOS>SUBSTRUCTURE
     1 RES1 1

@<TRIPOS>CRYSIN
   6.7182   13.1923   17.8880  90.0000  90.0000  90.0000  19 1

