# MOL2 file generated by ConQuest
# Please check atom types

@<TRIPOS>MOLECULE
NUKPIT
    57    59     1
SMALL
NO_CHARGES
****
Generated from CSD

@<TRIPOS>ATOM
      1 C1        13.5175   25.1419    4.4277 C.ar      1 RES1    0.0000
      2 C2        14.0745   26.3652    4.7277 C.ar      1 RES1    0.0000
      3 H1        14.8865   26.6008    4.3377 H         1 RES1    0.0000
      4 C3        13.4600   27.2521    5.5925 C.ar      1 RES1    0.0000
      5 H2        13.8608   28.0724    5.7720 H         1 RES1    0.0000
      6 C4        12.2727   26.9341    6.1830 C.ar      1 RES1    0.0000
      7 H3        11.8629   27.5291    6.7692 H         1 RES1    0.0000
      8 C5        11.6982   25.7332    5.9008 C.ar      1 RES1    0.0000
      9 H4        10.8859   25.5093    6.2945 H         1 RES1    0.0000
     10 C6        12.3064   24.8400    5.0337 C.ar      1 RES1    0.0000
     11 H5        11.8970   24.0255    4.8558 H         1 RES1    0.0000
     12 C7        14.2852   24.2587    3.4541 C.3       1 RES1    0.0000
     13 H6        15.0814   24.7711    3.2001 H         1 RES1    0.0000
     14 C8        14.8090   22.9031    3.9857 C.3       1 RES1    0.0000
     15 C9        13.6856   21.9156    4.2869 C.3       1 RES1    0.0000
     16 H7        13.1128   22.2738    4.9832 H         1 RES1    0.0000
     17 H8        14.0606   21.0799    4.6025 H         1 RES1    0.0000
     18 C10       12.8631   21.6666    3.0205 C.3       1 RES1    0.0000
     19 H9        13.4515   21.2017    2.3910 H         1 RES1    0.0000
     20 C11       12.4009   22.9516    2.3211 C.3       1 RES1    0.0000
     21 H10       12.0164   22.7318    1.4589 H         1 RES1    0.0000
     22 H11       11.7167   23.3848    2.8556 H         1 RES1    0.0000
     23 C12       13.5755   23.9015    2.1293 C.3       1 RES1    0.0000
     24 C13       14.5981   23.3550    1.0945 C.3       1 RES1    0.0000
     25 H12       14.2555   22.5296    0.7164 H         1 RES1    0.0000
     26 H13       14.6892   23.9963    0.3720 H         1 RES1    0.0000
     27 C14       15.9768   23.0882    1.7003 C.3       1 RES1    0.0000
     28 H14       16.4044   23.9500    1.8873 H         1 RES1    0.0000
     29 C15       15.8667   22.3130    3.0113 C.3       1 RES1    0.0000
     30 H15       16.7333   22.3127    3.4490 H         1 RES1    0.0000
     31 H16       15.6345   21.3918    2.8136 H         1 RES1    0.0000
     32 C16       11.6663   20.7793    3.2266 C.2       1 RES1    0.0000
     33 C17       10.4637   19.2957    4.6054 C.3       1 RES1    0.0000
     34 H17        9.6360   19.7009    4.3015 H         1 RES1    0.0000
     35 H18       10.6082   18.4827    4.0989 H         1 RES1    0.0000
     36 C18       10.3672   18.9860    6.0065 C.3       1 RES1    0.0000
     37 H19       11.1929   18.5972    6.3061 H         1 RES1    0.0000
     38 H20        9.6507   18.3633    6.1483 H         1 RES1    0.0000
     39 H21       10.1940   19.7910    6.5015 H         1 RES1    0.0000
     40 C19       16.8327   22.3412    0.7105 C.2       1 RES1    0.0000
     41 C20       17.6748   22.3997   -1.5313 C.3       1 RES1    0.0000
     42 H22       18.1318   23.0802   -2.0509 H         1 RES1    0.0000
     43 H23       18.3438   21.7865   -1.1883 H         1 RES1    0.0000
     44 C21       16.7565   21.6800   -2.3852 C.3       1 RES1    0.0000
     45 H24       16.3947   20.9313   -1.9061 H         1 RES1    0.0000
     46 H25       17.2231   21.3674   -3.1639 H         1 RES1    0.0000
     47 H26       16.0438   22.2640   -2.6530 H         1 RES1    0.0000
     48 N1        15.5439   23.2296    5.2913 N.pl3     1 RES1    0.0000
     49 N2        13.0558   25.2272    1.5617 N.pl3     1 RES1    0.0000
     50 O1        15.1504   22.7510    6.3304 O.2       1 RES1    0.0000
     51 O2        16.5031   23.9688    5.2166 O.2       1 RES1    0.0000
     52 O3        11.8783   25.3422    1.3088 O.2       1 RES1    0.0000
     53 O4        13.8698   26.1172    1.3921 O.2       1 RES1    0.0000
     54 O5        10.8874   20.5680    2.3621 O.2       1 RES1    0.0000
     55 O6        11.5788   20.2218    4.3907 O.3       1 RES1    0.0000
     56 O7        17.3675   21.3067    0.9105 O.2       1 RES1    0.0000
     57 O8        16.9743   23.0278   -0.4176 O.3       1 RES1    0.0000
@<TRIPOS>BOND
     1    1    2 ar
     2    2    3 1
     3    4    2 ar
     4    5    4 1
     5    6    4 ar
     6    7    6 1
     7    8    6 ar
     8    9    8 1
     9   10    1 ar
    10   11   10 1
    11   12    1 1
    12   13   12 1
    13   14   12 1
    14   15   14 1
    15   16   15 1
    16   17   15 1
    17   18   15 1
    18   19   18 1
    19   20   18 1
    20   21   20 1
    21   22   20 1
    22   23   12 1
    23   24   23 1
    24   25   24 1
    25   26   24 1
    26   27   24 1
    27   28   27 1
    28   29   14 1
    29   30   29 1
    30   31   29 1
    31   32   18 1
    32   33   34 1
    33   35   33 1
    34   36   33 1
    35   37   36 1
    36   38   36 1
    37   39   36 1
    38   40   27 1
    39   41   42 1
    40   43   41 1
    41   44   41 1
    42   45   44 1
    43   46   44 1
    44   47   44 1
    45   48   14 1
    46   49   23 1
    47   50   48 2
    48   51   48 2
    49   52   49 2
    50   53   49 2
    51   54   32 2
    52   55   32 1
    53   56   40 2
    54   57   40 1
    55    8   10 ar
    56   20   23 1
    57   27   29 1
    58   33   55 1
    59   41   57 1
@<TRIPOS>SUBSTRUCTURE
     1 RES1 1

@<TRIPOS>CRYSIN
  24.3642   24.3642   14.4734  90.0000  90.0000  90.0000  88 1

