# MOL2 file generated by ConQuest
# Please check atom types

@<TRIPOS>MOLECULE
NULGEI
    36    38     1
SMALL
NO_CHARGES
****
Generated from CSD

@<TRIPOS>ATOM
      1 C1        -1.2855    7.1343    7.0929 C.ar      1 RES1    0.0000
      2 C2        -1.8200    6.3719    6.2121 C.ar      1 RES1    0.0000
      3 H1        -1.3904    5.5800    5.9876 H         1 RES1    0.0000
      4 C3        -2.9940    6.6780    5.5900 C.ar      1 RES1    0.0000
      5 H2        -3.3148    6.0736    4.9594 H         1 RES1    0.0000
      6 C4        -3.6669    7.6964    5.7991 C.ar      1 RES1    0.0000
      7 H3        -4.4818    7.8589    5.3792 H         1 RES1    0.0000
      8 C5        -3.1556    8.5033    6.6354 C.ar      1 RES1    0.0000
      9 H4        -3.5773    9.3169    6.7862 H         1 RES1    0.0000
     10 C6        -1.9470    8.2028    7.3671 C.ar      1 RES1    0.0000
     11 H5        -1.6463    8.7805    8.0303 H         1 RES1    0.0000
     12 C7        -0.0746    5.8049    8.8666 C.2       1 RES1    0.0000
     13 H6        -0.9105    5.5533    9.1836 H         1 RES1    0.0000
     14 C8         0.0093    6.9045    7.8349 C.3       1 RES1    0.0000
     15 H7         0.1993    7.7320    8.3250 H         1 RES1    0.0000
     16 C9         1.1710    6.6474    6.9867 C.3       1 RES1    0.0000
     17 H8         0.9258    5.8805    6.4280 H         1 RES1    0.0000
     18 C10        2.4381    6.2434    7.6944 C.2       1 RES1    0.0000
     19 C11        0.9939    5.1866    9.3327 C.2       1 RES1    0.0000
     20 C12        0.9980    4.1799   10.4106 C.ar      1 RES1    0.0000
     21 C13        1.9138    3.1309   10.4311 C.ar      1 RES1    0.0000
     22 H9         2.5610    3.0602    9.7645 H         1 RES1    0.0000
     23 C14        1.8551    2.1993   11.4439 C.ar      1 RES1    0.0000
     24 H10        2.4642    1.4953   11.4439 H         1 RES1    0.0000
     25 C15        0.9401    2.2766   12.4396 C.ar      1 RES1    0.0000
     26 H11        0.9167    1.6255   13.1045 H         1 RES1    0.0000
     27 C16        0.0469    3.3162   12.4687 C.ar      1 RES1    0.0000
     28 H12       -0.5738    3.3835   13.1576 H         1 RES1    0.0000
     29 C17        0.0791    4.2689   11.4559 C.ar      1 RES1    0.0000
     30 H13       -0.5239    4.9779   11.4782 H         1 RES1    0.0000
     31 O1         3.5375    6.5494    7.2351 O.2       1 RES1    0.0000
     32 O2         1.5958    8.8712    6.5051 O.2       1 RES1    0.0000
     33 O3         1.5690    7.4833    4.8703 O.2       1 RES1    0.0000
     34 N1         2.2511    5.4993    8.7740 N.am      1 RES1    0.0000
     35 H14        2.9352    5.1643    9.1339 H         1 RES1    0.0000
     36 N2         1.4627    7.7615    6.0356 N.pl3     1 RES1    0.0000
@<TRIPOS>BOND
     1    1    2 ar
     2    2    3 1
     3    4    2 ar
     4    5    4 1
     5    6    4 ar
     6    7    6 1
     7    8    6 ar
     8    9    8 1
     9   10    1 ar
    10   11   10 1
    11   12   13 1
    12   14    1 1
    13   15   14 1
    14   16   14 1
    15   17   16 1
    16   18   16 1
    17   19   12 2
    18   20   19 1
    19   21   20 ar
    20   22   21 1
    21   23   21 ar
    22   24   23 1
    23   25   23 ar
    24   26   25 1
    25   27   25 ar
    26   28   27 1
    27   29   20 ar
    28   30   29 1
    29   31   18 2
    30   32   36 2
    31   33   36 2
    32   34   18 1
    33   35   34 1
    34   36   16 1
    35    8   10 ar
    36   12   14 1
    37   19   34 1
    38   27   29 ar
@<TRIPOS>SUBSTRUCTURE
     1 RES1 1

@<TRIPOS>CRYSIN
  15.6170    5.5650   18.6200  90.0000 113.0240  90.0000  14 1

