# MOL2 file generated by ConQuest
# Please check atom types

@<TRIPOS>MOLECULE
NUMMOZ
   124   132     2
SMALL
NO_CHARGES
****
Generated from CSD

@<TRIPOS>ATOM
      1 N1         7.4403    2.2170    8.8122 N.3       1 RES1    0.0000
      2 H1         8.0657    2.8903    8.7741 H         1 RES1    0.0000
      3 C1         7.4937    1.4868    7.5465 C.3       1 RES1    0.0000
      4 H2         7.1892    0.5448    7.6881 H         1 RES1    0.0000
      5 C2         8.9052    1.4891    6.9591 C.2       1 RES1    0.0000
      6 O1         9.6875    2.3965    7.1814 O.2       1 RES1    0.0000
      7 N2         9.2567    0.4234    6.1852 N.am      1 RES1    0.0000
      8 C3        10.4187    0.4980    5.3107 C.3       1 RES1    0.0000
      9 H3        10.1946    1.0224    4.5135 H         1 RES1    0.0000
     10 H4        10.6845   -0.4060    5.0426 H         1 RES1    0.0000
     11 H5        11.1592    0.9289    5.7877 H         1 RES1    0.0000
     12 O2         8.1871   -0.3261    5.6446 O.3       1 RES1    0.0000
     13 C4         8.2555   -1.6813    6.1101 C.3       1 RES1    0.0000
     14 H6         9.1105   -2.0768    5.8401 H         1 RES1    0.0000
     15 H7         7.5192   -2.1981    5.7198 H         1 RES1    0.0000
     16 H8         8.1828   -1.6956    7.0865 H         1 RES1    0.0000
     17 C5         6.5720    2.1832    6.5314 C.3       1 RES1    0.0000
     18 H9         6.8490    3.1299    6.4433 H         1 RES1    0.0000
     19 H10        6.6849    1.7526    5.6473 H         1 RES1    0.0000
     20 C6         5.1146    2.1336    6.9170 C.ar      1 RES1    0.0000
     21 C7         4.4372    3.2774    7.3182 C.ar      1 RES1    0.0000
     22 H11        4.9069    4.0996    7.3796 H         1 RES1    0.0000
     23 C8         3.0838    3.2379    7.6314 C.ar      1 RES1    0.0000
     24 H12        2.6346    4.0310    7.8964 H         1 RES1    0.0000
     25 C9         2.3977    2.0535    7.5581 C.ar      1 RES1    0.0000
     26 H13        1.4714    2.0272    7.7653 H         1 RES1    0.0000
     27 C10        3.0554    0.9040    7.1842 C.ar      1 RES1    0.0000
     28 H14        2.5821    0.0803    7.1467 H         1 RES1    0.0000
     29 C11        4.4080    0.9413    6.8604 C.ar      1 RES1    0.0000
     30 H15        4.8523    0.1431    6.5975 H         1 RES1    0.0000
     31 C12        7.6953    1.4106   10.0214 C.3       1 RES1    0.0000
     32 C13        6.6471    0.3013   10.1636 C.ar      1 RES1    0.0000
     33 C14        5.2736    0.4276   10.2170 C.ar      1 RES1    0.0000
     34 H16        4.8590    1.2794   10.1547 H         1 RES1    0.0000
     35 C15        4.5109   -0.7321   10.3646 C.ar      1 RES1    0.0000
     36 H17        3.5645   -0.6689   10.4061 H         1 RES1    0.0000
     37 C16        5.1171   -1.9777   10.4509 C.ar      1 RES1    0.0000
     38 H18        4.5792   -2.7530   10.5573 H         1 RES1    0.0000
     39 C17        6.4930   -2.1055   10.3835 C.ar      1 RES1    0.0000
     40 H19        6.9058   -2.9604   10.4354 H         1 RES1    0.0000
     41 C18        7.2572   -0.9560   10.2389 C.ar      1 RES1    0.0000
     42 C19        8.7191   -0.7790   10.1288 C.ar      1 RES1    0.0000
     43 C20        9.7506   -1.7102   10.1434 C.ar      1 RES1    0.0000
     44 H20        9.5668   -2.6377   10.2318 H         1 RES1    0.0000
     45 C21       11.0555   -1.2524   10.0250 C.ar      1 RES1    0.0000
     46 H21       11.7729   -1.8753   10.0282 H         1 RES1    0.0000
     47 C22       11.3297    0.1053    9.9030 C.ar      1 RES1    0.0000
     48 H22       12.2288    0.4002    9.8215 H         1 RES1    0.0000
     49 C23       10.2935    1.0367    9.8991 C.ar      1 RES1    0.0000
     50 H23       10.4800    1.9644    9.8215 H         1 RES1    0.0000
     51 C24        8.9920    0.5911   10.0095 C.ar      1 RES1    0.0000
     52 C25        7.6197    2.3482   11.2330 C.ar      1 RES1    0.0000
     53 C26        6.8848    3.5284   11.1856 C.ar      1 RES1    0.0000
     54 H24        6.4342    3.7739   10.3861 H         1 RES1    0.0000
     55 C27        6.8086    4.3501   12.3072 C.ar      1 RES1    0.0000
     56 H25        6.3146    5.1599   12.2649 H         1 RES1    0.0000
     57 C28        7.4465    3.9977   13.4820 C.ar      1 RES1    0.0000
     58 H26        7.3945    4.5655   14.2425 H         1 RES1    0.0000
     59 C29        8.1551    2.8208   13.5437 C.ar      1 RES1    0.0000
     60 H27        8.5860    2.5676   14.3520 H         1 RES1    0.0000
     61 C30        8.2414    2.0047   12.4254 C.ar      1 RES1    0.0000
     62 H28        8.7367    1.1947   12.4763 H         1 RES1    0.0000
     63 N3         6.3031    1.0469    2.8069 N.3       2 RES2    0.0000
     64 H29        6.9050    0.9566    3.4769 H         2 RES2    0.0000
     65 C31        6.4904    2.3866    2.2660 C.3       2 RES2    0.0000
     66 H30        6.2564    2.3894    1.2942 H         2 RES2    0.0000
     67 C32        7.9185    2.9011    2.4474 C.2       2 RES2    0.0000
     68 O3         8.6126    2.5594    3.4004 O.2       2 RES2    0.0000
     69 N4         8.3584    3.8045    1.5358 N.am      2 RES2    0.0000
     70 C33        9.4603    4.7149    1.7989 C.3       2 RES2    0.0000
     71 H31        9.1063    5.5776    2.1010 H         2 RES2    0.0000
     72 H32        9.9798    4.8445    0.9780 H         2 RES2    0.0000
     73 H33       10.0370    4.3362    2.4943 H         2 RES2    0.0000
     74 O4         7.3867    4.3278    0.6619 O.3       2 RES2    0.0000
     75 C34        7.6249    3.8670   -0.6704 C.3       2 RES2    0.0000
     76 H34        8.5163    4.1507   -0.9595 H         2 RES2    0.0000
     77 H35        6.9499    4.2457   -1.2726 H         2 RES2    0.0000
     78 H36        7.5700    2.8889   -0.6926 H         2 RES2    0.0000
     79 C35        5.5867    3.3984    3.0165 C.3       2 RES2    0.0000
     80 H37        5.7668    3.3372    3.9875 H         2 RES2    0.0000
     81 H38        5.8131    4.3172    2.7226 H         2 RES2    0.0000
     82 C36        4.1282    3.1458    2.7671 C.ar      2 RES2    0.0000
     83 C37        3.4168    2.2322    3.5380 C.ar      2 RES2    0.0000
     84 H39        3.8469    1.7877    4.2590 H         2 RES2    0.0000
     85 C38        2.0849    1.9651    3.2616 C.ar      2 RES2    0.0000
     86 H40        1.6164    1.3203    3.7777 H         2 RES2    0.0000
     87 C39        1.4387    2.6274    2.2429 C.ar      2 RES2    0.0000
     88 H41        0.5258    2.4420    2.0562 H         2 RES2    0.0000
     89 C40        2.1252    3.5665    1.4929 C.ar      2 RES2    0.0000
     90 H42        1.6760    4.0441    0.8052 H         2 RES2    0.0000
     91 C41        3.4644    3.8109    1.7436 C.ar      2 RES2    0.0000
     92 H43        3.9340    4.4399    1.2094 H         2 RES2    0.0000
     93 C42        6.4772   -0.0669    1.8556 C.3       2 RES2    0.0000
     94 C43        5.5165    0.0540    0.6616 C.ar      2 RES2    0.0000
     95 C44        4.1440    0.1934    0.6689 C.ar      2 RES2    0.0000
     96 H44        3.6678    0.2497    1.4886 H         2 RES2    0.0000
     97 C45        3.4674    0.2512   -0.5499 C.ar      2 RES2    0.0000
     98 H45        2.5239    0.3593   -0.5600 H         2 RES2    0.0000
     99 C46        4.1606    0.1531   -1.7507 C.ar      2 RES2    0.0000
    100 H46        3.6834    0.1665   -2.5715 H         2 RES2    0.0000
    101 C47        5.5395    0.0356   -1.7628 C.ar      2 RES2    0.0000
    102 H47        6.0141   -0.0204   -2.5838 H         2 RES2    0.0000
    103 C48        6.2172    0.0018   -0.5468 C.ar      2 RES2    0.0000
    104 C49        7.6606   -0.0568   -0.2585 C.ar      2 RES2    0.0000
    105 C50        8.7593   -0.0286   -1.1113 C.ar      2 RES2    0.0000
    106 H48        8.6441   -0.0161   -2.0547 H         2 RES2    0.0000
    107 C51       10.0273   -0.0191   -0.5495 C.ar      2 RES2    0.0000
    108 H49       10.7890    0.0088   -1.1168 H         2 RES2    0.0000
    109 C52       10.2009   -0.0505    0.8264 C.ar      2 RES2    0.0000
    110 H50       11.0783   -0.0365    1.1909 H         2 RES2    0.0000
    111 C53        9.0984   -0.1025    1.6791 C.ar      2 RES2    0.0000
    112 H51        9.2180   -0.1431    2.6208 H         2 RES2    0.0000
    113 C54        7.8323   -0.0929    1.1335 C.ar      2 RES2    0.0000
    114 C55        6.1639   -1.3657    2.6214 C.ar      2 RES2    0.0000
    115 C56        5.1280   -1.3796    3.5482 C.ar      2 RES2    0.0000
    116 H52        4.6591   -0.5754    3.7407 H         2 RES2    0.0000
    117 C57        4.7701   -2.5544    4.1956 C.ar      2 RES2    0.0000
    118 H53        4.0548   -2.5500    4.8205 H         2 RES2    0.0000
    119 C58        5.4498   -3.7304    3.9342 C.ar      2 RES2    0.0000
    120 H54        5.2068   -4.5334    4.3793 H         2 RES2    0.0000
    121 C59        6.4825   -3.7253    3.0223 C.ar      2 RES2    0.0000
    122 H55        6.9541   -4.5290    2.8414 H         2 RES2    0.0000
    123 C60        6.8397   -2.5525    2.3643 C.ar      2 RES2    0.0000
    124 H56        7.5516   -2.5632    1.7354 H         2 RES2    0.0000
@<TRIPOS>BOND
     1    1    2 1
     2    3    1 1
     3    4    3 1
     4    5    3 1
     5    6    5 2
     6    7    5 1
     7    8    7 1
     8    9    8 1
     9   10    8 1
    10   11    8 1
    11   12    7 1
    12   13   12 1
    13   14   13 1
    14   15   13 1
    15   16   13 1
    16   17    3 1
    17   18   17 1
    18   19   17 1
    19   20   17 1
    20   21   20 ar
    21   22   21 1
    22   23   21 ar
    23   24   23 1
    24   25   23 ar
    25   26   25 1
    26   27   25 ar
    27   28   27 1
    28   29   20 ar
    29   30   29 1
    30   31    1 1
    31   32   31 1
    32   33   32 ar
    33   34   33 1
    34   35   33 ar
    35   36   35 1
    36   37   35 ar
    37   38   37 1
    38   39   37 ar
    39   40   39 1
    40   41   32 ar
    41   42   41 1
    42   43   42 ar
    43   44   43 1
    44   45   43 ar
    45   46   45 1
    46   47   45 ar
    47   48   47 1
    48   49   47 ar
    49   50   49 1
    50   51   31 1
    51   52   31 1
    52   53   52 ar
    53   54   53 1
    54   55   53 ar
    55   56   55 1
    56   57   55 ar
    57   58   57 1
    58   59   57 ar
    59   60   59 1
    60   61   52 ar
    61   62   61 1
    62   63   64 1
    63   65   63 1
    64   66   65 1
    65   67   65 1
    66   68   67 2
    67   69   67 1
    68   70   69 1
    69   71   70 1
    70   72   70 1
    71   73   70 1
    72   74   69 1
    73   75   74 1
    74   76   75 1
    75   77   75 1
    76   78   75 1
    77   79   65 1
    78   80   79 1
    79   81   79 1
    80   82   79 1
    81   83   82 ar
    82   84   83 1
    83   85   83 ar
    84   86   85 1
    85   87   85 ar
    86   88   87 1
    87   89   87 ar
    88   90   89 1
    89   91   82 ar
    90   92   91 1
    91   93   63 1
    92   94   93 1
    93   95   94 ar
    94   96   95 1
    95   97   95 ar
    96   98   97 1
    97   99   97 ar
    98  100   99 1
    99  101   99 ar
   100  102  101 1
   101  103   94 ar
   102  104  103 1
   103  105  104 ar
   104  106  105 1
   105  107  105 ar
   106  108  107 1
   107  109  107 ar
   108  110  109 1
   109  111  109 ar
   110  112  111 1
   111  113   93 1
   112  114   93 1
   113  115  114 ar
   114  116  115 1
   115  117  115 ar
   116  118  117 1
   117  119  117 ar
   118  120  119 1
   119  121  119 ar
   120  122  121 1
   121  123  114 ar
   122  124  123 1
   123   27   29 ar
   124   39   41 ar
   125   42   51 ar
   126   49   51 ar
   127   59   61 ar
   128   89   91 ar
   129  101  103 ar
   130  104  113 ar
   131  111  113 ar
   132  121  123 ar
@<TRIPOS>SUBSTRUCTURE
     1 RES1 1
     2 RES2 63

@<TRIPOS>CRYSIN
  10.9640   14.6050   15.8740  90.0000 103.6500  90.0000   4 1

