# MOL2 file generated by ConQuest
# Please check atom types

@<TRIPOS>MOLECULE
NUMXAV
    17    16     1
SMALL
NO_CHARGES
****
Generated from CSD

@<TRIPOS>ATOM
      1 O1        -0.5728   -0.5985    8.4701 O.2       1 RES1    0.0000
      2 O2        -0.5724    2.0364    8.4953 O.2       1 RES1    0.0000
      3 N1        -0.5249    1.9327    7.2268 N.pl3     1 RES1    0.0000
      4 N2        -0.4966   -0.4962    7.2605 N.pl3     1 RES1    0.0000
      5 O3        -0.4786   -1.5484    6.5194 O.2       1 RES1    0.0000
      6 O4        -0.4602    2.9169    6.5012 O.2       1 RES1    0.0000
      7 C1        -0.4119    0.7231    5.1226 C.2       1 RES1    0.0000
      8 N3        -1.5299    0.6962    4.4585 N.3       1 RES1    0.0000
      9 H1        -2.2571    0.7134    4.9185 H         1 RES1    0.0000
     10 C2        -0.4796    0.6716    6.5919 C.2       1 RES1    0.0000
     11 N4         0.7596    0.6835    4.5577 N.3       1 RES1    0.0000
     12 H2         0.8226    0.6373    3.7012 H         1 RES1    0.0000
     13 H3         1.4712    0.7044    5.0403 H         1 RES1    0.0000
     14 C3        -1.6677    0.6417    3.0035 C.3       1 RES1    0.0000
     15 H4        -2.5981    0.6559    2.7689 H         1 RES1    0.0000
     16 H5        -1.2702   -0.1716    2.6763 H         1 RES1    0.0000
     17 H6        -1.2247    1.3939    2.6102 H         1 RES1    0.0000
@<TRIPOS>BOND
     1    1    4 2
     2    2    3 2
     3    3    6 2
     4    4    5 2
     5    7    8 1
     6    8    9 1
     7   10    3 1
     8   11    7 1
     9   12   11 1
    10   13   11 1
    11   14    8 1
    12   15   14 1
    13   16   14 1
    14   17   14 1
    15    4   10 1
    16    7   10 2
@<TRIPOS>SUBSTRUCTURE
     1 RES1 1

@<TRIPOS>CRYSIN
   6.3610    7.4620    6.7880  90.0000 107.3670  90.0000   4 1

