# MOL2 file generated by ConQuest
# Please check atom types

@<TRIPOS>MOLECULE
NUNFOT
    37    38     1
SMALL
NO_CHARGES
****
Generated from CSD

@<TRIPOS>ATOM
      1 O1         1.6063   12.4966   -0.8070 O.2       1 RES1    0.0000
      2 O2         2.2050   13.9939    5.3240 O.2       1 RES1    0.0000
      3 O3         4.0670   14.7492    4.3284 O.3       1 RES1    0.0000
      4 O4         6.1030   15.0215    1.2415 O.2       1 RES1    0.0000
      5 O5         6.6408   16.9053    2.1619 O.2       1 RES1    0.0000
      6 N1         0.9626   12.9850    1.3131 N.am      1 RES1    0.0000
      7 H1         0.1503   12.6233    1.1200 H         1 RES1    0.0000
      8 N2         3.0854   13.5275    0.5829 N.am      1 RES1    0.0000
      9 H2         3.6745   13.5489   -0.1105 H         1 RES1    0.0000
     10 N3         5.8212   16.1433    1.6399 N.pl3     1 RES1    0.0000
     11 C1         3.4061   14.2563    1.8188 C.3       1 RES1    0.0000
     12 H3         4.3351   14.0141    2.0993 H         1 RES1    0.0000
     13 C2         2.4490   13.8609    2.9255 C.2       1 RES1    0.0000
     14 C3         1.2626   13.2874    2.6251 C.2       1 RES1    0.0000
     15 C4         1.8862   12.9853    0.2916 C.2       1 RES1    0.0000
     16 C5         0.1662   12.9092    3.5669 C.3       1 RES1    0.0000
     17 H4         0.4335   13.1273    4.4844 H         1 RES1    0.0000
     18 H5        -0.0065   11.9473    3.4977 H         1 RES1    0.0000
     19 H6        -0.6476   13.4059    3.3372 H         1 RES1    0.0000
     20 C6         3.3494   15.7716    1.5692 C.ar      1 RES1    0.0000
     21 C7         2.0973   16.3735    1.4506 C.ar      1 RES1    0.0000
     22 H7         1.3201   15.8337    1.5235 H         1 RES1    0.0000
     23 C8         1.9480   17.7339    1.2297 C.ar      1 RES1    0.0000
     24 H8         1.0778   18.1063    1.1391 H         1 RES1    0.0000
     25 C9         3.0578   18.5502    1.1421 C.ar      1 RES1    0.0000
     26 H9         2.9581   19.4825    0.9845 H         1 RES1    0.0000
     27 C10        4.3093   18.0014    1.2835 C.ar      1 RES1    0.0000
     28 H10        5.0792   18.5546    1.2415 H         1 RES1    0.0000
     29 C11        4.4448   16.6349    1.4889 C.ar      1 RES1    0.0000
     30 C12        2.8408   14.1798    4.3055 C.2       1 RES1    0.0000
     31 C13        4.5833   15.0956    5.6412 C.3       1 RES1    0.0000
     32 H11        4.6853   14.2830    6.1971 H         1 RES1    0.0000
     33 H12        3.9658   15.7174    6.1014 H         1 RES1    0.0000
     34 C14        5.9140   15.7479    5.4203 C.3       1 RES1    0.0000
     35 H13        6.5304   15.1019    5.0146 H         1 RES1    0.0000
     36 H14        6.2764   16.0493    6.2789 H         1 RES1    0.0000
     37 H15        5.8054   16.5169    4.8224 H         1 RES1    0.0000
@<TRIPOS>BOND
     1    1   15 2
     2    2   30 2
     3    3   30 1
     4    4   10 2
     5    5   10 2
     6    6    7 1
     7    8    9 1
     8   10   29 1
     9   11    8 1
    10   12   11 1
    11   13   11 1
    12   14    6 1
    13   15    6 1
    14   16   14 1
    15   17   16 1
    16   18   16 1
    17   19   16 1
    18   20   11 1
    19   21   20 ar
    20   22   21 1
    21   23   21 ar
    22   24   23 1
    23   25   23 ar
    24   26   25 1
    25   27   25 ar
    26   28   27 1
    27   29   20 ar
    28   30   13 1
    29   31    3 1
    30   32   31 1
    31   33   31 1
    32   34   31 1
    33   35   34 1
    34   36   34 1
    35   37   34 1
    36    8   15 1
    37   13   14 2
    38   27   29 ar
@<TRIPOS>SUBSTRUCTURE
     1 RES1 1

@<TRIPOS>CRYSIN
   7.8271   24.2290    7.8400  90.0000 110.0780  90.0000  14 1

