# MOL2 file generated by ConQuest
# Please check atom types

@<TRIPOS>MOLECULE
NUNGEJ
    56    58     1
SMALL
NO_CHARGES
****
Generated from CSD

@<TRIPOS>ATOM
      1 O1         7.9222    7.3328    0.2812 O.3       1 RES1    0.0000
      2 O2         9.5329    8.2258   -0.9747 O.2       1 RES1    0.0000
      3 O3         5.1729    2.2965   -2.5780 O.2       1 RES1    0.0000
      4 O4         5.2041    0.2929   -1.8003 O.2       1 RES1    0.0000
      5 O5         8.6024   -1.2569    1.0834 O.2       1 RES1    0.0000
      6 O6        10.1648    0.0801    1.7246 O.2       1 RES1    0.0000
      7 N1         7.3849    5.3482   -1.5638 N.2       1 RES1    0.0000
      8 N2         6.8198    4.0963   -1.6888 N.pl3     1 RES1    0.0000
      9 H1         6.1221    3.9818   -2.1778 H         1 RES1    0.0000
     10 N3         5.6729    1.4195   -1.8626 N.pl3     1 RES1    0.0000
     11 N4         9.1298   -0.1503    1.1168 N.pl3     1 RES1    0.0000
     12 C1         6.7049    6.3338   -2.0178 C.2       1 RES1    0.0000
     13 C2         7.4438    7.6602   -2.0380 C.3       1 RES1    0.0000
     14 C3         8.1836    7.7596   -3.4164 C.3       1 RES1    0.0000
     15 H2         7.5368    7.4747   -4.0949 H         1 RES1    0.0000
     16 C4         8.4151    9.2584   -3.6482 C.3       1 RES1    0.0000
     17 H3         9.3459    9.4845   -3.4967 H         1 RES1    0.0000
     18 H4         8.1828    9.4996   -4.5581 H         1 RES1    0.0000
     19 C5         7.5176   10.0008   -2.6556 C.3       1 RES1    0.0000
     20 H5         7.0174   10.6959   -3.1104 H         1 RES1    0.0000
     21 H6         8.0543   10.4117   -1.9595 H         1 RES1    0.0000
     22 C6         6.5540    8.9628   -2.0434 C.3       1 RES1    0.0000
     23 C7         5.3285    8.7500   -2.9730 C.3       1 RES1    0.0000
     24 H7         5.6703    8.6065   -3.8798 H         1 RES1    0.0000
     25 C8         4.5395    7.5122   -2.5844 C.3       1 RES1    0.0000
     26 H8         3.7692    7.4330   -3.1685 H         1 RES1    0.0000
     27 H9         4.2124    7.6199   -1.6769 H         1 RES1    0.0000
     28 C9         5.3564    6.2295   -2.6669 C.3       1 RES1    0.0000
     29 H10        4.8584    5.5128   -2.2421 H         1 RES1    0.0000
     30 H11        5.4753    5.9929   -3.6003 H         1 RES1    0.0000
     31 C10        8.4313    7.7577   -0.8870 C.2       1 RES1    0.0000
     32 C11        8.7912    7.4889    1.4133 C.3       1 RES1    0.0000
     33 H12        8.3516    7.1626    2.2013 H         1 RES1    0.0000
     34 H13        9.0046    8.4183    1.5277 H         1 RES1    0.0000
     35 H14        9.5991    6.9908    1.2671 H         1 RES1    0.0000
     36 C12        9.4054    6.8885   -3.6066 C.3       1 RES1    0.0000
     37 H15        9.1716    5.9701   -3.4511 H         1 RES1    0.0000
     38 H16       10.0877    7.1538   -2.9864 H         1 RES1    0.0000
     39 H17        9.7324    6.9883   -4.5031 H         1 RES1    0.0000
     40 C13        6.1082    9.4192   -0.6645 C.3       1 RES1    0.0000
     41 H18        5.5093    8.7695   -0.2905 H         1 RES1    0.0000
     42 H19        5.6588   10.2639   -0.7364 H         1 RES1    0.0000
     43 H20        6.8748    9.5123   -0.0942 H         1 RES1    0.0000
     44 C14        4.3841    9.9528   -3.0255 C.3       1 RES1    0.0000
     45 H21        4.8800   10.7389   -3.2690 H         1 RES1    0.0000
     46 H22        3.9819   10.0820   -2.1636 H         1 RES1    0.0000
     47 H23        3.6983    9.7927   -3.6772 H         1 RES1    0.0000
     48 C15        7.3759    3.0501   -1.0316 C.ar      1 RES1    0.0000
     49 C16        6.8426    1.7419   -1.0810 C.ar      1 RES1    0.0000
     50 C17        7.4027    0.7014   -0.3663 C.ar      1 RES1    0.0000
     51 H24        7.0286   -0.1491   -0.3972 H         1 RES1    0.0000
     52 C18        8.5154    0.9429    0.3855 C.ar      1 RES1    0.0000
     53 C19        9.0844    2.2092    0.4553 C.ar      1 RES1    0.0000
     54 H25        9.8455    2.3522    0.9703 H         1 RES1    0.0000
     55 C20        8.5198    3.2400   -0.2347 C.ar      1 RES1    0.0000
     56 H26        8.8991    4.0879   -0.1774 H         1 RES1    0.0000
@<TRIPOS>BOND
     1    1   31 1
     2    2   31 2
     3    3   10 2
     4    4   10 2
     5    5   11 2
     6    6   11 2
     7    7    8 1
     8    8    9 1
     9   10   49 1
    10   11   52 1
    11   12    7 2
    12   13   12 1
    13   14   13 1
    14   15   14 1
    15   16   14 1
    16   17   16 1
    17   18   16 1
    18   19   16 1
    19   20   19 1
    20   21   19 1
    21   22   13 1
    22   23   22 1
    23   24   23 1
    24   25   23 1
    25   26   25 1
    26   27   25 1
    27   28   12 1
    28   29   28 1
    29   30   28 1
    30   31   13 1
    31   32    1 1
    32   33   32 1
    33   34   32 1
    34   35   32 1
    35   36   14 1
    36   37   36 1
    37   38   36 1
    38   39   36 1
    39   40   22 1
    40   41   40 1
    41   42   40 1
    42   43   40 1
    43   44   23 1
    44   45   44 1
    45   46   44 1
    46   47   44 1
    47   48    8 1
    48   49   48 ar
    49   50   49 ar
    50   51   50 1
    51   52   50 ar
    52   53   52 ar
    53   54   53 1
    54   55   48 ar
    55   56   55 1
    56   19   22 1
    57   25   28 1
    58   53   55 ar
@<TRIPOS>SUBSTRUCTURE
     1 RES1 1

@<TRIPOS>CRYSIN
  10.3756   12.6325   16.2827  90.0000 105.3580  90.0000 231 1

