# MOL2 file generated by ConQuest
# Please check atom types

@<TRIPOS>MOLECULE
NUNLOX
   124   132     1
SMALL
NO_CHARGES
****
Generated from CSD

@<TRIPOS>ATOM
      1 O1         1.7118    1.6685    2.7096 O.3       1 RES1    0.0000
      2 O2         1.6530    7.6491    4.4953 O.2       1 RES1    0.0000
      3 O3         0.3900    7.7716    2.7556 O.2       1 RES1    0.0000
      4 O4        -1.4427    1.9670    3.0616 O.3       1 RES1    0.0000
      5 O5        -4.6082    6.9662    0.6929 O.2       1 RES1    0.0000
      6 O6        -4.0837    3.6625   -2.4194 O.2       1 RES1    0.0000
      7 N1         1.0850    7.1366    3.5438 N.pl3     1 RES1    0.0000
      8 N2        -4.2062    5.1029   -0.6109 N.am      1 RES1    0.0000
      9 C1         1.5698    3.0224    2.9111 C.ar      1 RES1    0.0000
     10 C2         2.1550    3.6120    4.0382 C.ar      1 RES1    0.0000
     11 C3         1.9880    4.9713    4.2278 C.ar      1 RES1    0.0000
     12 C4         1.2491    5.6999    3.3166 C.ar      1 RES1    0.0000
     13 C5         0.6238    5.1119    2.2295 C.ar      1 RES1    0.0000
     14 C6         0.7856    3.7539    2.0107 C.ar      1 RES1    0.0000
     15 C7         2.8359    1.3093    1.8898 C.3       1 RES1    0.0000
     16 C8         2.6627   -0.1098    1.4328 C.3       1 RES1    0.0000
     17 C9         3.8689   -0.5859    0.6501 C.3       1 RES1    0.0000
     18 C10        0.0490    3.0799    0.8672 C.3       1 RES1    0.0000
     19 C11       -1.4480    3.2406    1.0269 C.ar      1 RES1    0.0000
     20 C12       -2.1197    2.7401    2.1424 C.ar      1 RES1    0.0000
     21 C13       -3.4377    3.0958    2.4225 C.ar      1 RES1    0.0000
     22 C14       -4.1353    3.8680    1.4965 C.ar      1 RES1    0.0000
     23 C15       -3.5007    4.3037    0.3468 C.ar      1 RES1    0.0000
     24 C16       -2.1690    4.0166    0.1251 C.ar      1 RES1    0.0000
     25 C17        2.8615    2.7775    5.0916 C.3       1 RES1    0.0000
     26 C18       -1.2071    0.6045    2.6383 C.3       1 RES1    0.0000
     27 C19       -2.3642   -0.3231    2.8736 C.3       1 RES1    0.0000
     28 C20       -2.0456   -1.6924    2.2916 C.3       1 RES1    0.0000
     29 C21       -4.6611    6.4042   -0.3676 C.2       1 RES1    0.0000
     30 C22       -5.2142    6.8849   -1.6706 C.ar      1 RES1    0.0000
     31 C23       -5.8024    8.0884   -1.9937 C.ar      1 RES1    0.0000
     32 C24       -6.2147    8.2566   -3.3150 C.ar      1 RES1    0.0000
     33 C25       -6.0235    7.2699   -4.2560 C.ar      1 RES1    0.0000
     34 C26       -5.4353    6.0614   -3.9204 C.ar      1 RES1    0.0000
     35 C27       -5.0395    5.8876   -2.6056 C.ar      1 RES1    0.0000
     36 C28       -4.3993    4.7240   -1.9464 C.2       1 RES1    0.0000
     37 H1         2.3613    5.4139    4.9588 H         1 RES1    0.0000
     38 H2         0.0886    5.6819    1.6595 H         1 RES1    0.0000
     39 H3         2.8851    1.9355    1.1164 H         1 RES1    0.0000
     40 H4         3.6728    1.4267    2.3925 H         1 RES1    0.0000
     41 H5         2.4882   -0.7033    2.2203 H         1 RES1    0.0000
     42 H6         1.8154   -0.1506    0.8714 H         1 RES1    0.0000
     43 H7         4.6887   -0.5218    1.1962 H         1 RES1    0.0000
     44 H8         3.7590   -1.5299    0.3443 H         1 RES1    0.0000
     45 H9         4.0131    0.0237   -0.1491 H         1 RES1    0.0000
     46 H10        0.3323    3.5140   -0.0142 H         1 RES1    0.0000
     47 H11        0.2807    2.1288    0.8324 H         1 RES1    0.0000
     48 H12       -5.0825    4.1010    1.6666 H         1 RES1    0.0000
     49 H13       -1.7158    4.3702   -0.6283 H         1 RES1    0.0000
     50 H14        2.7802    1.8477    4.8737 H         1 RES1    0.0000
     51 H15        3.8299    2.9744    5.0920 H         1 RES1    0.0000
     52 H16       -0.3954    0.3048    3.1450 H         1 RES1    0.0000
     53 H17       -0.9196    0.6131    1.6630 H         1 RES1    0.0000
     54 H18       -3.1937    0.0593    2.4422 H         1 RES1    0.0000
     55 H19       -2.5641   -0.3439    3.8531 H         1 RES1    0.0000
     56 H20       -1.2802   -2.0517    2.7403 H         1 RES1    0.0000
     57 H21       -1.8327   -1.5892    1.2779 H         1 RES1    0.0000
     58 H22       -2.7577   -2.3482    2.4776 H         1 RES1    0.0000
     59 H23       -5.9677    8.7405   -1.3631 H         1 RES1    0.0000
     60 H24       -6.6458    9.0607   -3.5532 H         1 RES1    0.0000
     61 H25       -6.3160    7.3885   -5.1505 H         1 RES1    0.0000
     62 H26       -5.2942    5.3700   -4.5737 H         1 RES1    0.0000
     63 C17B      -4.0169    2.7775    3.7825 C.3       1 RES1    0.0000
     64 C2B       -3.3103    3.6120    4.8359 C.ar      1 RES1    0.0000
     65 C1B       -2.7252    3.0224    5.9630 C.ar      1 RES1    0.0000
     66 O1B       -2.8672    1.6685    6.1645 O.3       1 RES1    0.0000
     67 C7B       -3.9913    1.3093    6.9843 C.3       1 RES1    0.0000
     68 C8B       -3.8181   -0.1098    7.4413 C.3       1 RES1    0.0000
     69 C9B       -5.0243   -0.5859    8.2240 C.3       1 RES1    0.0000
     70 H7B       -5.8441   -0.5218    7.6779 H         1 RES1    0.0000
     71 H8B       -4.9144   -1.5299    8.5298 H         1 RES1    0.0000
     72 H9B       -5.1685    0.0237    9.0232 H         1 RES1    0.0000
     73 H5B       -3.6436   -0.7033    6.6538 H         1 RES1    0.0000
     74 H6B       -2.9708   -0.1506    8.0027 H         1 RES1    0.0000
     75 H3B       -4.0404    1.9355    7.7577 H         1 RES1    0.0000
     76 H4B       -4.8282    1.4267    6.4816 H         1 RES1    0.0000
     77 C6B       -1.9410    3.7539    6.8634 C.ar      1 RES1    0.0000
     78 C5B       -1.7791    5.1119    6.6446 C.ar      1 RES1    0.0000
     79 C4B       -2.4045    5.6999    5.5575 C.ar      1 RES1    0.0000
     80 N1B       -2.2404    7.1366    5.3303 N.pl3     1 RES1    0.0000
     81 O2B       -2.8083    7.6491    4.3788 O.2       1 RES1    0.0000
     82 O3B       -1.5454    7.7716    6.1185 O.2       1 RES1    0.0000
     83 C3B       -3.1434    4.9713    4.6463 C.ar      1 RES1    0.0000
     84 H1B       -3.5167    5.4139    3.9153 H         1 RES1    0.0000
     85 H2B       -1.2440    5.6819    7.2146 H         1 RES1    0.0000
     86 C10B      -1.2044    3.0799    8.0069 C.3       1 RES1    0.0000
     87 C11B       0.2927    3.2406    7.8472 C.ar      1 RES1    0.0000
     88 C12B       0.9643    2.7401    6.7317 C.ar      1 RES1    0.0000
     89 O4B        0.2873    1.9670    5.8125 O.3       1 RES1    0.0000
     90 C18B       0.0518    0.6045    6.2358 C.3       1 RES1    0.0000
     91 C19B       1.2088   -0.3231    6.0005 C.3       1 RES1    0.0000
     92 C20B       0.8902   -1.6924    6.5825 C.3       1 RES1    0.0000
     93 H20B       0.1248   -2.0517    6.1338 H         1 RES1    0.0000
     94 H21B       0.6774   -1.5892    7.5962 H         1 RES1    0.0000
     95 H22B       1.6023   -2.3482    6.3965 H         1 RES1    0.0000
     96 H18B       2.0383    0.0593    6.4319 H         1 RES1    0.0000
     97 H19B       1.4087   -0.3439    5.0210 H         1 RES1    0.0000
     98 H16B      -0.7600    0.3048    5.7291 H         1 RES1    0.0000
     99 H17B      -0.2358    0.6131    7.2111 H         1 RES1    0.0000
    100 C13B       2.2823    3.0958    6.4517 C.ar      1 RES1    0.0000
    101 C14B       2.9799    3.8680    7.3776 C.ar      1 RES1    0.0000
    102 C15B       2.3453    4.3037    8.5273 C.ar      1 RES1    0.0000
    103 N2B        3.0508    5.1029    9.4850 N.am      1 RES1    0.0000
    104 C21B       3.5057    6.4042    9.2417 C.2       1 RES1    0.0000
    105 O5B        3.4528    6.9662    8.1812 O.2       1 RES1    0.0000
    106 C22B       4.0589    6.8849   10.5447 C.ar      1 RES1    0.0000
    107 C23B       4.6470    8.0884   10.8678 C.ar      1 RES1    0.0000
    108 C24B       5.0593    8.2566   12.1891 C.ar      1 RES1    0.0000
    109 C25B       4.8681    7.2699   13.1301 C.ar      1 RES1    0.0000
    110 C26B       4.2799    6.0614   12.7945 C.ar      1 RES1    0.0000
    111 C27B       3.8842    5.8876   11.4797 C.ar      1 RES1    0.0000
    112 C28B       3.2439    4.7240   10.8205 C.2       1 RES1    0.0000
    113 O6B        2.9283    3.6625   11.2935 O.2       1 RES1    0.0000
    114 H26B       4.1389    5.3700   13.4478 H         1 RES1    0.0000
    115 H25B       5.1606    7.3885   14.0246 H         1 RES1    0.0000
    116 H24B       5.4904    9.0607   12.4273 H         1 RES1    0.0000
    117 H23B       4.8123    8.7405   10.2372 H         1 RES1    0.0000
    118 C16B       1.0136    4.0166    8.7490 C.ar      1 RES1    0.0000
    119 H13B       0.5604    4.3702    9.5024 H         1 RES1    0.0000
    120 H12B       3.9271    4.1010    7.2075 H         1 RES1    0.0000
    121 H10B      -1.4877    3.5140    8.8883 H         1 RES1    0.0000
    122 H11B      -1.4361    2.1288    8.0417 H         1 RES1    0.0000
    123 H14B      -3.9356    1.8477    4.0004 H         1 RES1    0.0000
    124 H15B      -4.9853    2.9744    3.7821 H         1 RES1    0.0000
@<TRIPOS>BOND
     1    1    9 1
     2    2    7 2
     3    3    7 2
     4    4   20 1
     5    5   29 2
     6    6   36 2
     7    7   12 1
     8    8   23 1
     9    9   10 ar
    10   10   11 ar
    11   11   12 ar
    12   12   13 ar
    13   13   14 ar
    14   14    9 ar
    15   15    1 1
    16   16   15 1
    17   17   16 1
    18   18   14 1
    19   19   18 1
    20   20   19 ar
    21   21   20 ar
    22   22   21 ar
    23   23   22 ar
    24   24   19 ar
    25   25   10 1
    26   26    4 1
    27   27   26 1
    28   28   27 1
    29   29    8 1
    30   30   29 1
    31   31   30 ar
    32   32   31 ar
    33   33   32 ar
    34   34   33 ar
    35   35   30 ar
    36   36    8 1
    37   37   11 1
    38   38   13 1
    39   39   15 1
    40   40   15 1
    41   41   16 1
    42   42   16 1
    43   43   17 1
    44   44   17 1
    45   45   17 1
    46   46   18 1
    47   47   18 1
    48   48   22 1
    49   49   24 1
    50   50   25 1
    51   51   25 1
    52   52   26 1
    53   53   26 1
    54   54   27 1
    55   55   27 1
    56   56   28 1
    57   57   28 1
    58   58   28 1
    59   59   31 1
    60   60   32 1
    61   61   33 1
    62   62   34 1
    63   63   21 1
    64   64   63 1
    65   65   64 ar
    66   66   65 1
    67   67   66 1
    68   68   67 1
    69   69   68 1
    70   70   69 1
    71   71   69 1
    72   72   69 1
    73   73   68 1
    74   74   68 1
    75   75   67 1
    76   76   67 1
    77   77   65 ar
    78   78   77 ar
    79   79   78 ar
    80   80   79 1
    81   81   80 2
    82   82   80 2
    83   83   64 ar
    84   84   83 1
    85   85   78 1
    86   86   77 1
    87   87   86 1
    88   88   87 ar
    89   89   88 1
    90   90   89 1
    91   91   90 1
    92   92   91 1
    93   93   92 1
    94   94   92 1
    95   95   92 1
    96   96   91 1
    97   97   91 1
    98   98   90 1
    99   99   90 1
   100  100   25 1
   101  101  100 ar
   102  102  101 ar
   103  103  102 1
   104  104  103 1
   105  105  104 2
   106  106  104 1
   107  107  106 ar
   108  108  107 ar
   109  109  108 ar
   110  110  109 ar
   111  111  106 ar
   112  112  103 1
   113  113  112 2
   114  114  110 1
   115  115  109 1
   116  116  108 1
   117  117  107 1
   118  118   87 ar
   119  119  118 1
   120  120  101 1
   121  121   86 1
   122  122   86 1
   123  123   63 1
   124  124   63 1
   125   23   24 ar
   126   34   35 ar
   127   35   36 1
   128   79   83 ar
   129   88  100 ar
   130  102  118 ar
   131  110  111 ar
   132  111  112 1
@<TRIPOS>SUBSTRUCTURE
     1 RES1 1

@<TRIPOS>CRYSIN
  23.4370   11.8595   17.8980  90.0000  97.4180  90.0000  15 1

