# MOL2 file generated by ConQuest
# Please check atom types

@<TRIPOS>MOLECULE
NUNMAK
    54    58     1
SMALL
NO_CHARGES
****
Generated from CSD

@<TRIPOS>ATOM
      1 O1         2.7076    4.0561    9.1938 O.3       1 RES1    0.0000
      2 O2        -4.1415   -1.4058    7.8560 O.3       1 RES1    0.0000
      3 O3         2.1004    0.6332    8.4839 O.2       1 RES1    0.0000
      4 N1         1.6991    3.9864    8.1809 N.3       1 RES1    0.0000
      5 C1         0.9939    2.7361    8.4734 C.3       1 RES1    0.0000
      6 H1         0.0821    2.7727    8.1168 H         1 RES1    0.0000
      7 C2         0.9563    2.6241   10.0032 C.3       1 RES1    0.0000
      8 H2         1.1265    1.7047   10.2941 H         1 RES1    0.0000
      9 C3         2.0999    3.5596   10.4320 C.3       1 RES1    0.0000
     10 H3         2.7618    3.0678   10.9620 H         1 RES1    0.0000
     11 C4         1.4465    4.6029   11.2626 C.2       1 RES1    0.0000
     12 H4         1.8918    5.3228   11.6472 H         1 RES1    0.0000
     13 C5         0.1478    4.3757   11.3865 C.2       1 RES1    0.0000
     14 H5        -0.4258    4.9163   11.8800 H         1 RES1    0.0000
     15 C6        -0.2831    3.1871   10.6690 C.2       1 RES1    0.0000
     16 C7        -1.5430    2.7236   10.6507 C.2       1 RES1    0.0000
     17 H6        -2.1438    3.2173   11.1614 H         1 RES1    0.0000
     18 C8        -2.1267    1.5823    9.9687 C.ar      1 RES1    0.0000
     19 C9        -1.4194    0.6208    9.2458 C.ar      1 RES1    0.0000
     20 H7        -0.4901    0.6557    9.2437 H         1 RES1    0.0000
     21 C10       -2.0497   -0.3815    8.5337 C.ar      1 RES1    0.0000
     22 H8        -1.5473   -0.9963    8.0500 H         1 RES1    0.0000
     23 C11       -3.4221   -0.4675    8.5445 C.ar      1 RES1    0.0000
     24 C12       -4.1564    0.4229    9.3083 C.ar      1 RES1    0.0000
     25 H9        -5.0815    0.3441    9.3525 H         1 RES1    0.0000
     26 C13       -3.5211    1.4207    9.9967 C.ar      1 RES1    0.0000
     27 H10       -4.0308    2.0123   10.5020 H         1 RES1    0.0000
     28 C14       -3.4573   -2.1983    6.8994 C.3       1 RES1    0.0000
     29 H11       -4.0748   -2.8103    6.4921 H         1 RES1    0.0000
     30 H12       -2.7583   -2.6916    7.3346 H         1 RES1    0.0000
     31 H13       -3.0774   -1.6304    6.2260 H         1 RES1    0.0000
     32 C15        1.7697    1.5920    7.8129 C.2       1 RES1    0.0000
     33 C16        2.1152    1.6634    6.3715 C.ar      1 RES1    0.0000
     34 C17        1.4498    2.4851    5.4783 C.ar      1 RES1    0.0000
     35 H14        0.7555    3.0246    5.7800 H         1 RES1    0.0000
     36 C18        1.8069    2.5135    4.1370 C.ar      1 RES1    0.0000
     37 H15        1.3370    3.0503    3.5402 H         1 RES1    0.0000
     38 C19        2.8585    1.7465    3.6942 C.ar      1 RES1    0.0000
     39 H16        3.1098    1.7726    2.8000 H         1 RES1    0.0000
     40 C20        3.5332    0.9431    4.5744 C.ar      1 RES1    0.0000
     41 H17        4.2515    0.4329    4.2760 H         1 RES1    0.0000
     42 C21        3.1539    0.8831    5.9017 C.ar      1 RES1    0.0000
     43 H18        3.6030    0.3122    6.4835 H         1 RES1    0.0000
     44 C22        1.0177    5.2084    7.9552 C.ar      1 RES1    0.0000
     45 C23       -0.2165    5.2381    7.3368 C.ar      1 RES1    0.0000
     46 H19       -0.6715    4.4439    7.1698 H         1 RES1    0.0000
     47 C24       -0.7776    6.4486    6.9662 C.ar      1 RES1    0.0000
     48 H20       -1.6075    6.4652    6.5460 H         1 RES1    0.0000
     49 C25       -0.1094    7.6365    7.2161 C.ar      1 RES1    0.0000
     50 H21       -0.4837    8.4494    6.9651 H         1 RES1    0.0000
     51 C26        1.1103    7.5962    7.8399 C.ar      1 RES1    0.0000
     52 H22        1.5586    8.3906    8.0220 H         1 RES1    0.0000
     53 C27        1.6777    6.4045    8.1986 C.ar      1 RES1    0.0000
     54 H23        2.5121    6.3954    8.6091 H         1 RES1    0.0000
@<TRIPOS>BOND
     1    1    4 1
     2    2   23 1
     3    3   32 2
     4    4    5 1
     5    5    6 1
     6    7    5 1
     7    8    7 1
     8    9    1 1
     9   10    9 1
    10   11    9 1
    11   12   11 1
    12   13   11 2
    13   14   13 1
    14   15    7 1
    15   16   15 2
    16   17   16 1
    17   18   16 1
    18   19   18 ar
    19   20   19 1
    20   21   19 ar
    21   22   21 1
    22   23   21 ar
    23   24   23 ar
    24   25   24 1
    25   26   18 ar
    26   27   26 1
    27   28    2 1
    28   29   28 1
    29   30   28 1
    30   31   28 1
    31   32    5 1
    32   33   32 1
    33   34   33 ar
    34   35   34 1
    35   36   34 ar
    36   37   36 1
    37   38   36 ar
    38   39   38 1
    39   40   38 ar
    40   41   40 1
    41   42   33 ar
    42   43   42 1
    43   44    4 1
    44   45   44 ar
    45   46   45 1
    46   47   45 ar
    47   48   47 1
    48   49   47 ar
    49   50   49 1
    50   51   49 ar
    51   52   51 1
    52   53   44 ar
    53   54   53 1
    54    7    9 1
    55   13   15 1
    56   24   26 ar
    57   40   42 ar
    58   51   53 ar
@<TRIPOS>SUBSTRUCTURE
     1 RES1 1

@<TRIPOS>CRYSIN
   9.5420   10.3270   11.8570 114.4100  90.7000  96.6100   2 1

