# MOL2 file generated by ConQuest
# Please check atom types

@<TRIPOS>MOLECULE
NUPMES01
    26    27     1
SMALL
NO_CHARGES
****
Generated from CSD

@<TRIPOS>ATOM
      1 N1         0.9331    1.9835   12.7905 N.2       1 RES1    0.0000
      2 C1         1.6549    3.2181   16.6851 C.ar      1 RES1    0.0000
      3 C2         0.8266    3.7222   14.5272 C.ar      1 RES1    0.0000
      4 H1         0.4218    4.3158   13.9356 H         1 RES1    0.0000
      5 C3         1.8422    1.5857   14.9743 C.ar      1 RES1    0.0000
      6 H2         2.1048    0.7400   14.6949 H         1 RES1    0.0000
      7 N2         1.0035    3.2047    9.4508 N.ar      1 RES1    0.0000
      8 C4         1.0293    4.1024   15.8290 C.ar      1 RES1    0.0000
      9 H3         0.7511    4.9379   16.1303 H         1 RES1    0.0000
     10 C5         2.0668    1.9739   16.2652 C.ar      1 RES1    0.0000
     11 H4         2.4963    1.3986   16.8568 H         1 RES1    0.0000
     12 O1         2.4924    2.8339   18.7939 O.2       1 RES1    0.0000
     13 O2         1.4112    4.6499   18.4912 O.2       1 RES1    0.0000
     14 N3         1.8629    3.5962   18.0741 N.pl3     1 RES1    0.0000
     15 C6         1.2189    2.4557   14.0719 C.ar      1 RES1    0.0000
     16 C7        -0.2274    0.7745    8.9069 C.ar      1 RES1    0.0000
     17 H5        -0.6359   -0.0407    8.7242 H         1 RES1    0.0000
     18 C8         1.1170    2.7424   11.7818 C.2       1 RES1    0.0000
     19 H6         1.5096    3.5759   11.9072 H         1 RES1    0.0000
     20 C9         0.7224    2.3297   10.4200 C.ar      1 RES1    0.0000
     21 C10        0.0445    1.6568    7.8995 C.ar      1 RES1    0.0000
     22 H7        -0.1788    1.4576    7.0189 H         1 RES1    0.0000
     23 C11        0.1106    1.1079   10.1910 C.ar      1 RES1    0.0000
     24 H8        -0.0672    0.5265   10.8944 H         1 RES1    0.0000
     25 C12        0.6598    2.8542    8.2185 C.ar      1 RES1    0.0000
     26 H9         0.8431    3.4498    7.5274 H         1 RES1    0.0000
@<TRIPOS>BOND
     1    1   15 1
     2    2    8 ar
     3    3    4 1
     4    5    6 1
     5    7   20 ar
     6    8    3 ar
     7    9    8 1
     8   10    2 ar
     9   11   10 1
    10   12   14 2
    11   13   14 2
    12   14    2 1
    13   15    3 ar
    14   16   17 1
    15   18    1 2
    16   19   18 1
    17   20   18 1
    18   21   16 ar
    19   22   21 1
    20   23   16 ar
    21   24   23 1
    22   25    7 ar
    23   26   25 1
    24    5   10 ar
    25    5   15 ar
    26   20   23 ar
    27   21   25 ar
@<TRIPOS>SUBSTRUCTURE
     1 RES1 1

@<TRIPOS>CRYSIN
   3.8588   20.3290   13.6320  90.0000  89.5540  90.0000 231 1

