# MOL2 file generated by ConQuest
# Please check atom types

@<TRIPOS>MOLECULE
NUPNES
    35    36     1
SMALL
NO_CHARGES
****
Generated from CSD

@<TRIPOS>ATOM
      1 O1        -2.5596    5.6839    6.7332 O.2       1 RES1    0.0000
      2 O2        -1.5611    3.7603    6.6329 O.2       1 RES1    0.0000
      3 O3         1.4107    7.2714   12.2260 O.2       1 RES1    0.0000
      4 N1        -1.7607    4.8563    7.1508 N.pl3     1 RES1    0.0000
      5 N2         1.5139    5.0340   12.6708 N.am      1 RES1    0.0000
      6 H1         1.2700    4.2277   12.4163 H         1 RES1    0.0000
      7 N3         2.2344    5.1941   13.8435 N.2       1 RES1    0.0000
      8 C1         0.4501    5.7581   10.6396 C.ar      1 RES1    0.0000
      9 C2        -0.5391    6.6273   10.1981 C.ar      1 RES1    0.0000
     10 H2        -0.7207    7.4202   10.6894 H         1 RES1    0.0000
     11 C3        -1.2628    6.3536    9.0522 C.ar      1 RES1    0.0000
     12 H3        -1.9392    6.9469    8.7463 H         1 RES1    0.0000
     13 C4        -0.9728    5.1893    8.3631 C.ar      1 RES1    0.0000
     14 C5         0.0157    4.3136    8.7648 C.ar      1 RES1    0.0000
     15 H4         0.2011    3.5298    8.2609 H         1 RES1    0.0000
     16 C6         0.7331    4.5970    9.9142 C.ar      1 RES1    0.0000
     17 H5         1.4158    4.0047   10.2087 H         1 RES1    0.0000
     18 C7         1.1802    6.1076   11.9091 C.2       1 RES1    0.0000
     19 C8         2.3961    4.1002   14.5080 C.2       1 RES1    0.0000
     20 H6         1.9998    3.2955   14.1960 H         1 RES1    0.0000
     21 C9         3.1745    4.0922   15.7216 C.2       1 RES1    0.0000
     22 H7         3.5667    4.9016   16.0271 H         1 RES1    0.0000
     23 C10        3.3585    2.9700   16.4288 C.2       1 RES1    0.0000
     24 H8         2.8978    2.1968   16.1251 H         1 RES1    0.0000
     25 C11        4.1970    2.8083   17.6247 C.ar      1 RES1    0.0000
     26 C12        5.1608    3.7517   17.9978 C.ar      1 RES1    0.0000
     27 H9         5.2947    4.5249   17.4631 H         1 RES1    0.0000
     28 C13        5.9237    3.5676   19.1420 C.ar      1 RES1    0.0000
     29 H10        6.5678    4.2208   19.3906 H         1 RES1    0.0000
     30 C14        5.7514    2.4332   19.9278 C.ar      1 RES1    0.0000
     31 H11        6.2694    2.3137   20.7146 H         1 RES1    0.0000
     32 C15        4.8191    1.4786   19.5563 C.ar      1 RES1    0.0000
     33 H12        4.7057    0.6969   20.0829 H         1 RES1    0.0000
     34 C16        4.0503    1.6638   18.4116 C.ar      1 RES1    0.0000
     35 H13        3.4166    1.0016   18.1616 H         1 RES1    0.0000
@<TRIPOS>BOND
     1    1    4 2
     2    2    4 2
     3    3   18 2
     4    4   13 1
     5    5    6 1
     6    7    5 1
     7    8    9 ar
     8    9   10 1
     9   11    9 ar
    10   12   11 1
    11   13   11 ar
    12   14   13 ar
    13   15   14 1
    14   16    8 ar
    15   17   16 1
    16   18    5 1
    17   19    7 2
    18   20   19 1
    19   21   19 1
    20   22   21 1
    21   23   21 2
    22   24   23 1
    23   25   23 1
    24   26   25 ar
    25   27   26 1
    26   28   26 ar
    27   29   28 1
    28   30   28 ar
    29   31   30 1
    30   32   30 ar
    31   33   32 1
    32   34   25 ar
    33   35   34 1
    34    8   18 1
    35   14   16 ar
    36   32   34 ar
@<TRIPOS>SUBSTRUCTURE
     1 RES1 1

@<TRIPOS>CRYSIN
  16.4236    5.3360   17.1073  90.0000 114.5780  90.0000  14 1

