# MOL2 file generated by ConQuest
# Please check atom types

@<TRIPOS>MOLECULE
NUPNIW
    33    35     1
SMALL
NO_CHARGES
****
Generated from CSD

@<TRIPOS>ATOM
      1 N1         0.9655    2.0476   10.7096 N.pl3     1 RES1    0.0000
      2 O1         0.9374    6.1455    6.9236 O.3       1 RES1    0.0000
      3 O2        -0.2544    7.5828    8.2048 O.2       1 RES1    0.0000
      4 O3         1.2050    2.3152   11.8867 O.2       1 RES1    0.0000
      5 O4         0.7451    0.9057   10.3123 O.2       1 RES1    0.0000
      6 C1         0.2901    7.3305    7.1631 C.2       1 RES1    0.0000
      7 C2         0.9321    5.1620    7.9189 C.ar      1 RES1    0.0000
      8 C3         1.3073    5.4377    9.2228 C.ar      1 RES1    0.0000
      9 H1         1.5592    6.3177    9.4779 H         1 RES1    0.0000
     10 C4         1.3087    4.4097   10.1488 C.ar      1 RES1    0.0000
     11 H2         1.5473    4.5733   11.0534 H         1 RES1    0.0000
     12 C5         0.9570    3.1393    9.7324 C.ar      1 RES1    0.0000
     13 C6         0.6136    2.8520    8.4245 C.ar      1 RES1    0.0000
     14 H3         0.3882    1.9662    8.1652 H         1 RES1    0.0000
     15 C7         0.6047    3.8828    7.5005 C.ar      1 RES1    0.0000
     16 H4         0.3779    3.7158    6.5941 H         1 RES1    0.0000
     17 C8         0.3339    8.1953    5.9533 C.ar      1 RES1    0.0000
     18 C9         0.4933    9.6177    6.0702 C.ar      1 RES1    0.0000
     19 C10        0.6946   10.2932    7.3002 C.ar      1 RES1    0.0000
     20 H5         0.7100    9.8003    8.1126 H         1 RES1    0.0000
     21 C11        0.8677   11.6528    7.3265 C.ar      1 RES1    0.0000
     22 H6         0.9900   12.0946    8.1593 H         1 RES1    0.0000
     23 C12        0.8667   12.4017    6.1375 C.ar      1 RES1    0.0000
     24 H7         0.9947   13.3430    6.1706 H         1 RES1    0.0000
     25 C13        0.6838   11.7830    4.9366 C.ar      1 RES1    0.0000
     26 H8         0.6893   12.2971    4.1381 H         1 RES1    0.0000
     27 C14        0.4847   10.3797    4.8670 C.ar      1 RES1    0.0000
     28 C15        0.2922    9.7359    3.6177 C.ar      1 RES1    0.0000
     29 H9         0.2719   10.2540    2.8210 H         1 RES1    0.0000
     30 C16        0.1362    8.3835    3.5455 C.ar      1 RES1    0.0000
     31 H10        0.0047    7.9635    2.7027 H         1 RES1    0.0000
     32 C17        0.1702    7.6097    4.7220 C.ar      1 RES1    0.0000
     33 H11        0.0781    6.6664    4.6623 H         1 RES1    0.0000
@<TRIPOS>BOND
     1    1    4 2
     2    2    6 1
     3    3    6 2
     4    5    1 2
     5    6   17 1
     6    7    2 1
     7    8    7 ar
     8    9    8 1
     9   10    8 ar
    10   11   10 1
    11   12    1 1
    12   13   12 ar
    13   14   13 1
    14   15    7 ar
    15   16   15 1
    16   17   18 ar
    17   18   19 ar
    18   19   20 1
    19   21   19 ar
    20   22   21 1
    21   23   21 ar
    22   24   23 1
    23   25   23 ar
    24   26   25 1
    25   27   18 ar
    26   28   27 ar
    27   29   28 1
    28   30   28 ar
    29   31   30 1
    30   32   17 ar
    31   33   32 1
    32   10   12 ar
    33   13   15 ar
    34   25   27 ar
    35   30   32 ar
@<TRIPOS>SUBSTRUCTURE
     1 RES1 1

@<TRIPOS>CRYSIN
   7.2049   12.8175   14.7838  90.0000  99.0060  90.0000  14 1

