# MOL2 file generated by ConQuest
# Please check atom types

@<TRIPOS>MOLECULE
NUPPOD
    27    23     2
SMALL
NO_CHARGES
****
Generated from CSD

@<TRIPOS>ATOM
      1 O1         2.2976    5.9087    8.6990 O.3       1 RES1    0.0000
      2 O2         0.7845    6.9953    7.4458 O.2       1 RES1    0.0000
      3 O3         4.7109    5.4098    1.9635 O.2       1 RES1    0.0000
      4 O4         6.1104    4.4058    3.2758 O.2       1 RES1    0.0000
      5 N1         5.0831    5.0516    3.0730 N.pl3     1 RES1    0.0000
      6 C1         1.5017    6.1858    9.8887 C.3       1 RES1    0.0000
      7 C2         2.1919    5.5582   11.0085 C.3       1 RES1    0.0000
      8 C3         2.3677    6.1506   11.0420 Du        2 SUP2    0.0000
      9 C4         1.8086    6.3676    7.5518 C.2       1 RES1    0.0000
     10 C5         2.6899    6.0097    6.3984 C.ar      1 RES1    0.0000
     11 C6         3.9521    5.4497    6.5917 C.ar      1 RES1    0.0000
     12 C7         4.7471    5.1399    5.4989 C.ar      1 RES1    0.0000
     13 C8         4.2483    5.4028    4.2343 C.ar      1 RES1    0.0000
     14 C9         3.0051    5.9648    4.0129 C.ar      1 RES1    0.0000
     15 C10        2.2183    6.2723    5.1155 C.ar      1 RES1    0.0000
     16 H1         1.3492    7.2566    9.9783 H         1 RES1    0.0000
     17 H2         0.6283    5.8097    9.8595 H         1 RES1    0.0000
     18 H3         1.7012    5.7194   11.8174 H         1 RES1    0.0000
     19 H4         3.0717    5.9301   11.0906 H         1 RES1    0.0000
     20 H5         2.2575    4.6134   10.8541 H         1 RES1    0.0000
     21 H6         1.8524    6.3323   11.8325 Du        2 SUP2    0.0000
     22 H7         3.0524    6.8220   10.9459 Du        2 SUP2    0.0000
     23 H8         2.7689    5.2835   11.1154 Du        2 SUP2    0.0000
     24 H9         4.2657    5.2768    7.4513 H         1 RES1    0.0000
     25 H10        5.6119    4.7776    5.6371 H         1 RES1    0.0000
     26 H11        2.6892    6.1144    3.1857 H         1 RES1    0.0000
     27 H12        1.3907    6.6399    4.9567 H         1 RES1    0.0000
@<TRIPOS>BOND
     1    1    6 1
     2    2    9 2
     3    3    5 2
     4    4    5 2
     5    5   13 1
     6    6    7 1
     7    7   18 1
     8    9    1 1
     9   10    9 1
    10   11   10 ar
    11   12   11 ar
    12   13   12 ar
    13   14   13 ar
    14   15   10 ar
    15   16    6 1
    16   17    6 1
    17   19    7 1
    18   20    7 1
    19   24   11 1
    20   25   12 1
    21   26   14 1
    22   27   15 1
    23   14   15 ar
@<TRIPOS>SUBSTRUCTURE
     1 RES1 1
     2 SUP2 8

@<TRIPOS>CRYSIN
   6.1013    7.2031   10.8278  86.6810  87.3770  88.4800   2 1

