# MOL2 file generated by ConQuest
# Please check atom types

@<TRIPOS>MOLECULE
NUPQAS
    67    54     2
SMALL
NO_CHARGES
****
Generated from CSD

@<TRIPOS>ATOM
      1 C1         6.7782    7.5813    3.5625 C.2       1 RES1    0.0000
      2 H1         6.8271    8.5012    3.4404 H         1 RES1    0.0000
      3 C2         7.7871    6.7669    3.1624 C.2       1 RES1    0.0000
      4 H2         8.5413    7.1309    2.7589 H         1 RES1    0.0000
      5 C3         7.6989    5.3655    3.3546 C.2       1 RES1    0.0000
      6 C4         6.6252    4.7447    3.9107 C.2       1 RES1    0.0000
      7 H3         6.5915    3.8205    4.0089 H         1 RES1    0.0000
      8 C5         5.5685    5.5731    4.3297 C.2       1 RES1    0.0000
      9 C6         5.6475    6.9827    4.1730 C.2       1 RES1    0.0000
     10 C7         4.3329    5.3603    4.9319 C.2       1 RES1    0.0000
     11 H4         3.9640    4.5411    5.1746 H         1 RES1    0.0000
     12 C8         2.4849    6.9337    5.7028 C.3       1 RES1    0.0000
     13 C9         1.7210    7.8758    4.7687 C.3       1 RES1    0.0000
     14 H5         0.9250    8.1903    5.2241 H         1 RES1    0.0000
     15 H6         2.2770    8.6483    4.5798 H         1 RES1    0.0000
     16 C10        1.3154    7.2396    3.4660 C.2       1 RES1    0.0000
     17 C11       -0.2610    7.1718    1.7301 C.3       1 RES1    0.0000
     18 H7         0.3963    7.1030    1.0197 H         1 RES1    0.0000
     19 H8        -0.5258    6.2763    1.9925 H         1 RES1    0.0000
     20 C12       -1.4407    7.9389    1.2640 C.3       1 RES1    0.0000
     21 H9        -1.8024    7.5237    0.4777 H         1 RES1    0.0000
     22 H10       -1.1755    8.8382    1.0569 H         1 RES1    0.0000
     23 H11       -2.1064    7.9538    1.9545 H         1 RES1    0.0000
     24 C13        1.7028    5.6407    6.0063 C.3       1 RES1    0.0000
     25 H12        1.6048    5.1219    5.1920 H         1 RES1    0.0000
     26 H13        2.1976    5.1052    6.6457 H         1 RES1    0.0000
     27 C14        0.3447    5.9616    6.5648 C.2       1 RES1    0.0000
     28 C15       -2.0078    5.8369    5.9865 C.3       1 RES1    0.0000
     29 H14       -2.1406    5.6880    6.9353 H         1 RES1    0.0000
     30 H15       -2.5046    5.1629    5.4972 H         1 RES1    0.0000
     31 C16       -2.4787    7.1905    5.6094 C.3       1 RES1    0.0000
     32 H16       -3.4310    7.2389    5.7167 H         1 RES1    0.0000
     33 H17       -2.2497    7.3673    4.6945 H         1 RES1    0.0000
     34 H18       -2.0597    7.8440    6.1754 H         1 RES1    0.0000
     35 C17        2.8499    7.6012    7.0566 C.2       1 RES1    0.0000
     36 C18        2.5446    9.4766    8.4830 C.3       1 RES1    0.0000
     37 H19        3.4471    9.2888    8.7858 H         1 RES1    0.0000
     38 H20        2.4658   10.4357    8.3585 H         1 RES1    0.0000
     39 C19        1.5878    9.0404    9.5077 C.3       1 RES1    0.0000
     40 H21        1.7677    9.5010   10.3303 H         1 RES1    0.0000
     41 H22        1.6746    8.0935    9.6447 H         1 RES1    0.0000
     42 H23        0.6947    9.2404    9.2173 H         1 RES1    0.0000
     43 N1         8.8315    4.5377    2.9256 N.pl3     1 RES1    0.0000
     44 N2         4.5517    7.5943    4.6497 N.2       1 RES1    0.0000
     45 N3         3.7818    6.5684    5.0917 N.pl3     1 RES1    0.0000
     46 O1         8.7647    3.3346    3.0469 O.2       1 RES1    0.0000
     47 O2         9.7937    5.1026    2.4347 O.2       1 RES1    0.0000
     48 O3         1.8046    6.2666    2.9836 O.2       1 RES1    0.0000
     49 O4         0.3230    7.9099    2.9094 O.3       1 RES1    0.0000
     50 O5         0.1622    6.3510    7.6795 O.2       1 RES1    0.0000
     51 O6        -0.6069    5.7540    5.6631 O.3       1 RES1    0.0000
     52 O7         3.5464    7.0586    7.8567 O.2       1 RES1    0.0000
     53 O8         2.3110    8.7984    7.1993 O.3       1 RES1    0.0000
     54 C20        0.0129    7.7453    1.5049 Du        2 SUP2    0.0000
     55 H24        0.5045    7.0080    1.1105 Du        2 SUP2    0.0000
     56 H25        0.1835    8.5571    0.9999 Du        2 SUP2    0.0000
     57 C21       -1.4369    7.4530    1.6006 Du        2 SUP2    0.0000
     58 H26       -1.7908    7.2929    0.7227 Du        2 SUP2    0.0000
     59 H27       -1.8897    8.2014    1.9958 Du        2 SUP2    0.0000
     60 H28       -1.5709    6.6747    2.1459 Du        2 SUP2    0.0000
     61 C22       -1.8936    6.4755    6.3487 Du        2 SUP2    0.0000
     62 H29       -2.3210    5.9021    7.0029 Du        2 SUP2    0.0000
     63 H30       -1.6545    7.3189    6.7637 Du        2 SUP2    0.0000
     64 C23       -2.7454    6.6747    5.1507 Du        2 SUP2    0.0000
     65 H31       -3.6185    6.9652    5.4238 Du        2 SUP2    0.0000
     66 H32       -2.8194    5.8462    4.6705 Du        2 SUP2    0.0000
     67 H33       -2.3485    7.3394    4.5831 Du        2 SUP2    0.0000
@<TRIPOS>BOND
     1    1    2 1
     2    3    1 2
     3    4    3 1
     4    5    3 1
     5    6    5 2
     6    7    6 1
     7    8    6 1
     8    9    1 1
     9   10    8 2
    10   11   10 1
    11   12   13 1
    12   13   14 1
    13   15   13 1
    14   16   13 1
    15   17   18 1
    16   19   17 1
    17   20   17 1
    18   21   20 1
    19   22   20 1
    20   23   20 1
    21   24   12 1
    22   25   24 1
    23   26   24 1
    24   27   24 1
    25   28   29 1
    26   30   28 1
    27   31   28 1
    28   32   31 1
    29   33   31 1
    30   34   31 1
    31   35   12 1
    32   36   37 1
    33   38   36 1
    34   39   36 1
    35   40   39 1
    36   41   39 1
    37   42   39 1
    38   43    5 1
    39   44    9 2
    40   45   10 1
    41   46   43 2
    42   47   43 2
    43   48   16 2
    44   49   16 1
    45   50   27 2
    46   51   27 1
    47   52   35 2
    48   53   35 1
    49    8    9 1
    50   12   45 1
    51   17   49 1
    52   28   51 1
    53   36   53 1
    54   44   45 1
@<TRIPOS>SUBSTRUCTURE
     1 RES1 1
     2 SUP2 54

@<TRIPOS>CRYSIN
  13.4555   18.6185    8.5258  90.0000 104.6030  90.0000  14 1

