# MOL2 file generated by ConQuest
# Please check atom types

@<TRIPOS>MOLECULE
NUPQOF
    34    36     1
SMALL
NO_CHARGES
****
Generated from CSD

@<TRIPOS>ATOM
      1 O1        -2.1501   17.3110    7.1004 O.3       1 RES1    0.0000
      2 O2         0.0841   15.0573    3.3389 O.3       1 RES1    0.0000
      3 N1        -0.8866   16.1123    5.2420 N.2       1 RES1    0.0000
      4 N2         0.5237   15.4521    2.0446 N.2       1 RES1    0.0000
      5 C1        -2.1910   16.1251    7.7330 C.ar      1 RES1    0.0000
      6 C2        -2.8003   16.1223    9.0099 C.ar      1 RES1    0.0000
      7 C3        -2.8753   14.9660    9.7333 C.ar      1 RES1    0.0000
      8 C4        -2.3779   13.7386    9.2087 C.ar      1 RES1    0.0000
      9 C5        -2.4571   12.5436    9.9718 C.ar      1 RES1    0.0000
     10 C6        -2.0161   11.3506    9.4632 C.ar      1 RES1    0.0000
     11 C7        -1.4937   11.3033    8.1535 C.ar      1 RES1    0.0000
     12 C8        -1.3842   12.4528    7.4001 C.ar      1 RES1    0.0000
     13 C9        -1.8061   13.7106    7.9059 C.ar      1 RES1    0.0000
     14 C10       -1.6852   14.9459    7.1645 C.ar      1 RES1    0.0000
     15 C11       -1.0696   14.9789    5.8596 C.2       1 RES1    0.0000
     16 C12       -0.3402   16.1814    3.9833 C.2       1 RES1    0.0000
     17 C13       -0.1846   17.2834    3.2004 C.2       1 RES1    0.0000
     18 C14        0.3483   16.7528    1.9870 C.2       1 RES1    0.0000
     19 C15        0.6629   17.5161    0.7441 C.3       1 RES1    0.0000
     20 C16       -0.5150   18.7022    3.5187 C.3       1 RES1    0.0000
     21 H1        -3.1823   16.9783    9.3714 H         1 RES1    0.0000
     22 H2        -3.3183   14.9710   10.6221 H         1 RES1    0.0000
     23 H3        -2.8189   12.5756   10.8929 H         1 RES1    0.0000
     24 H4        -2.0452   10.5497    9.9945 H         1 RES1    0.0000
     25 H5        -1.1951   10.4771    7.7717 H         1 RES1    0.0000
     26 H6        -1.0431   12.3854    6.5045 H         1 RES1    0.0000
     27 H7        -0.7707   14.1344    5.4409 H         1 RES1    0.0000
     28 H8         0.6785   16.9643    0.0121 H         1 RES1    0.0000
     29 H9         1.4863   18.0035    0.8499 H         1 RES1    0.0000
     30 H10       -0.0389   18.1907    0.5692 H         1 RES1    0.0000
     31 H11       -0.7724   18.8618    4.4270 H         1 RES1    0.0000
     32 H12        0.2573   19.2670    3.3249 H         1 RES1    0.0000
     33 H13       -1.2080   19.0659    2.9286 H         1 RES1    0.0000
     34 H14       -1.6863   17.1515    6.2645 H         1 RES1    0.0000
@<TRIPOS>BOND
     1    1    5 1
     2    2    4 1
     3    3   15 2
     4    4   18 2
     5    5    6 ar
     6    6    7 ar
     7    7    8 ar
     8    8    9 ar
     9    9   10 ar
    10   10   11 ar
    11   11   12 ar
    12   12   13 ar
    13   13    8 ar
    14   14    5 ar
    15   15   14 1
    16   16    2 1
    17   17   16 2
    18   18   17 1
    19   19   18 1
    20   20   17 1
    21   21    6 1
    22   22    7 1
    23   23    9 1
    24   24   10 1
    25   25   11 1
    26   26   12 1
    27   27   15 1
    28   28   19 1
    29   29   19 1
    30   30   19 1
    31   31   20 1
    32   32   20 1
    33   33   20 1
    34   34    1 1
    35    3   16 1
    36   13   14 ar
@<TRIPOS>SUBSTRUCTURE
     1 RES1 1

@<TRIPOS>CRYSIN
   7.5250   15.4643   12.3982  90.0000 117.3770  90.0000  14 1

