# MOL2 file generated by ConQuest
# Please check atom types

@<TRIPOS>MOLECULE
NUPTIC
    13    12     1
SMALL
NO_CHARGES
****
Generated from CSD

@<TRIPOS>ATOM
      1 C1         3.2381    2.4644   10.7765 C.2       1 RES1    0.0000
      2 C2         3.1991    3.1322    9.4009 C.2       1 RES1    0.0000
      3 N1         2.1099    2.6338   11.4440 N.am      1 RES1    0.0000
      4 H1         1.4463    3.0837   11.0811 H         1 RES1    0.0000
      5 N2         4.3523    3.0257    8.7651 N.am      1 RES1    0.0000
      6 H2         5.0205    2.5842    9.1293 H         1 RES1    0.0000
      7 N3         4.5078    3.6291    7.4859 N.3       1 RES1    0.0000
      8 H3         5.3568    3.9284    7.4618 H         1 RES1    0.0000
      9 H4         4.5321    2.9797    6.8159 H         1 RES1    0.0000
     10 O1         1.9754    2.1027   12.7105 O.3       1 RES1    0.0000
     11 H5         2.5888    2.5596   13.2689 H         1 RES1    0.0000
     12 O2         4.2347    1.8485   11.1927 O.2       1 RES1    0.0000
     13 O3         2.2094    3.7073    8.9808 O.2       1 RES1    0.0000
@<TRIPOS>BOND
     1    1    2 1
     2    2    5 1
     3    3    1 1
     4    4    3 1
     5    5    6 1
     6    7    5 1
     7    8    7 1
     8    9    7 1
     9   10    3 1
    10   11   10 1
    11   12    1 2
    12   13    2 2
@<TRIPOS>SUBSTRUCTURE
     1 RES1 1

@<TRIPOS>CRYSIN
   9.3968    3.6728   12.7510  90.0000  95.5980  90.0000   9 1

