# MOL2 file generated by ConQuest
# Please check atom types

@<TRIPOS>MOLECULE
NUPYON
    40    41     1
SMALL
NO_CHARGES
****
Generated from CSD

@<TRIPOS>ATOM
      1 O1         6.7602   17.0595    2.6742 O.3       1 RES1    0.0000
      2 H1         6.4099   17.2867    1.9678 H         1 RES1    0.0000
      3 O2         7.7357   16.0295    4.8395 O.3       1 RES1    0.0000
      4 O3         5.0190   19.1658    0.0833 O.2       1 RES1    0.0000
      5 O4         4.1606   21.1790   -1.1643 O.3       1 RES1    0.0000
      6 H2         4.4937   20.7543   -0.5474 H         1 RES1    0.0000
      7 O5         7.7121   10.9703    1.7395 O.2       1 RES1    0.0000
      8 O6         8.3771   11.1642    3.7580 O.2       1 RES1    0.0000
      9 N1         7.9222   11.6414    2.7321 N.pl3     1 RES1    0.0000
     10 N2         5.8304   16.7061    0.2541 N.2       1 RES1    0.0000
     11 N3         5.2629   17.1714   -0.8984 N.am      1 RES1    0.0000
     12 C1         6.7796   14.9498    1.5133 C.ar      1 RES1    0.0000
     13 C2         7.0203   15.7456    2.6410 C.ar      1 RES1    0.0000
     14 C3         7.5592   15.1684    3.8081 C.ar      1 RES1    0.0000
     15 C4         7.8530   13.8251    3.8403 C.ar      1 RES1    0.0000
     16 H3         8.2015   13.4347    4.6092 H         1 RES1    0.0000
     17 C5         7.6182   13.0636    2.7007 C.ar      1 RES1    0.0000
     18 C6         7.0959   13.5910    1.5580 C.ar      1 RES1    0.0000
     19 H4         6.9517   13.0504    0.8143 H         1 RES1    0.0000
     20 C7         8.1793   15.4973    6.0819 C.3       1 RES1    0.0000
     21 H5         7.5459   14.8485    6.3970 H         1 RES1    0.0000
     22 H6         8.2567   16.2057    6.7240 H         1 RES1    0.0000
     23 H7         9.0347   15.0785    5.9635 H         1 RES1    0.0000
     24 C8         6.1942   15.4863    0.3061 C.2       1 RES1    0.0000
     25 H8         6.0821   14.9378   -0.4372 H         1 RES1    0.0000
     26 C9         4.8643   18.4682   -0.9238 C.2       1 RES1    0.0000
     27 C10        4.2790   18.9951   -2.1650 C.ar      1 RES1    0.0000
     28 C11        3.9661   20.3628   -2.2180 C.ar      1 RES1    0.0000
     29 C12        3.4365   20.9434   -3.3758 C.ar      1 RES1    0.0000
     30 C13        3.2004   20.1226   -4.4491 C.ar      1 RES1    0.0000
     31 H9         2.8392   20.4884   -5.2239 H         1 RES1    0.0000
     32 C14        3.4823   18.7686   -4.4168 C.ar      1 RES1    0.0000
     33 H10        3.3059   18.2372   -5.1602 H         1 RES1    0.0000
     34 C15        4.0217   18.2115   -3.2896 C.ar      1 RES1    0.0000
     35 H11        4.2187   17.3021   -3.2732 H         1 RES1    0.0000
     36 C16        3.1447   22.4214   -3.3947 C.3       1 RES1    0.0000
     37 H12        2.7819   22.6657   -4.2492 H         1 RES1    0.0000
     38 H13        3.9560   22.9094   -3.2401 H         1 RES1    0.0000
     39 H14        2.5093   22.6314   -2.7062 H         1 RES1    0.0000
     40 H15        5.1767   16.6278   -1.6139 H         1 RES1    0.0000
@<TRIPOS>BOND
     1    1    2 1
     2    3   14 1
     3    4   26 2
     4    5    6 1
     5    7    9 2
     6    8    9 2
     7    9   17 1
     8   10   11 1
     9   11   26 1
    10   12   13 ar
    11   13    1 1
    12   14   13 ar
    13   15   14 ar
    14   16   15 1
    15   17   15 ar
    16   18   12 ar
    17   19   18 1
    18   20    3 1
    19   21   20 1
    20   22   20 1
    21   23   20 1
    22   24   10 2
    23   25   24 1
    24   26   27 1
    25   27   28 ar
    26   28    5 1
    27   29   28 ar
    28   30   29 ar
    29   31   30 1
    30   32   30 ar
    31   33   32 1
    32   34   27 ar
    33   35   34 1
    34   36   29 1
    35   37   36 1
    36   38   36 1
    37   39   36 1
    38   40   11 1
    39   12   24 1
    40   17   18 ar
    41   32   34 ar
@<TRIPOS>SUBSTRUCTURE
     1 RES1 1

@<TRIPOS>CRYSIN
   7.4820   17.1580   12.2500  90.0000  91.5650  90.0000 231 1

