# MOL2 file generated by ConQuest
# Please check atom types

@<TRIPOS>MOLECULE
NUQCEJ
    48    50     2
SMALL
NO_CHARGES
****
Generated from CSD

@<TRIPOS>ATOM
      1 C1         8.8888    8.8503    6.1920 C.ar      1 RES1    0.0000
      2 C2         8.5822    9.8834    7.0405 C.ar      1 RES1    0.0000
      3 C3         9.6421   10.6278    7.5814 C.ar      1 RES1    0.0000
      4 H1         9.4668   11.3284    8.1662 H         1 RES1    0.0000
      5 C4        10.9269   10.3258    7.2509 C.ar      1 RES1    0.0000
      6 H2        11.6146   10.8392    7.6094 H         1 RES1    0.0000
      7 C5        11.2543    9.2659    6.3868 C.ar      1 RES1    0.0000
      8 C6        10.2040    8.4911    5.8290 C.ar      1 RES1    0.0000
      9 C7        10.5229    7.4253    4.9574 C.ar      1 RES1    0.0000
     10 H3         9.8426    6.9117    4.5857 H         1 RES1    0.0000
     11 C8        11.8179    7.1469    4.6601 C.ar      1 RES1    0.0000
     12 H4        12.0143    6.4410    4.0873 H         1 RES1    0.0000
     13 C9        12.8608    7.9027    5.1997 C.ar      1 RES1    0.0000
     14 H5        13.7430    7.6968    4.9850 H         1 RES1    0.0000
     15 C10       12.5889    8.9376    6.0385 C.ar      1 RES1    0.0000
     16 H6        13.2893    9.4381    6.3895 H         1 RES1    0.0000
     17 C11        6.9114   11.1485    8.1839 C.3       1 RES1    0.0000
     18 H7         5.9555   11.1982    8.2517 H         1 RES1    0.0000
     19 H8         7.2534   11.9874    7.8649 H         1 RES1    0.0000
     20 H9         7.2839   10.9597    9.0483 H         1 RES1    0.0000
     21 N1         7.7778    8.0876    5.6150 N.pl3     1 RES1    0.0000
     22 O1         7.3144    8.4497    4.5694 O.2       1 RES1    0.0000
     23 O2         7.3868    7.1128    6.1945 O.2       1 RES1    0.0000
     24 O3         7.2699   10.1126    7.2755 O.3       1 RES1    0.0000
     25 C12        2.5011    3.7001    9.4162 C.ar      2 RES2    0.0000
     26 C13        3.1476    4.6126    8.6232 C.ar      2 RES2    0.0000
     27 C14        2.3986    5.6874    8.0975 C.ar      2 RES2    0.0000
     28 H10        2.8102    6.3176    7.5510 H         2 RES2    0.0000
     29 C15        1.0793    5.8023    8.3889 C.ar      2 RES2    0.0000
     30 H11        0.6068    6.5288    8.0505 H         2 RES2    0.0000
     31 C16        0.3989    4.8611    9.1849 C.ar      2 RES2    0.0000
     32 C17        1.1238    3.7584    9.7179 C.ar      2 RES2    0.0000
     33 C18        0.4339    2.8236   10.5245 C.ar      2 RES2    0.0000
     34 H12        0.8928    2.1022   10.8917 H         2 RES2    0.0000
     35 C19       -0.8969    2.9730   10.7666 C.ar      2 RES2    0.0000
     36 H13       -1.3398    2.3436   11.2890 H         2 RES2    0.0000
     37 C20       -1.6127    4.0564   10.2411 C.ar      2 RES2    0.0000
     38 H14       -2.5217    4.1423   10.4163 H         2 RES2    0.0000
     39 C21       -0.9775    4.9806    9.4774 C.ar      2 RES2    0.0000
     40 H15       -1.4559    5.7035    9.1411 H         2 RES2    0.0000
     41 C22        5.1109    5.2581    7.4397 C.3       2 RES2    0.0000
     42 H16        6.0377    5.0174    7.3748 H         2 RES2    0.0000
     43 H17        5.0372    6.1735    7.7189 H         2 RES2    0.0000
     44 H18        4.6911    5.1499    6.5834 H         2 RES2    0.0000
     45 N2         3.3011    2.6094    9.9860 N.pl3     2 RES2    0.0000
     46 O4         4.1562    2.8913   10.7997 O.2       2 RES2    0.0000
     47 O5         3.0656    1.4725    9.6352 O.2       2 RES2    0.0000
     48 O6         4.4660    4.4161    8.3950 O.3       2 RES2    0.0000
@<TRIPOS>BOND
     1    1    2 ar
     2    2    3 ar
     3    3    4 1
     4    5    3 ar
     5    6    5 1
     6    7    5 ar
     7    8    1 ar
     8    9    8 ar
     9   10    9 1
    10   11    9 ar
    11   12   11 1
    12   13   11 ar
    13   14   13 1
    14   15    7 ar
    15   16   15 1
    16   17   18 1
    17   19   17 1
    18   20   17 1
    19   21    1 1
    20   22   21 2
    21   23   21 2
    22   24    2 1
    23   25   26 ar
    24   26   27 ar
    25   27   28 1
    26   29   27 ar
    27   30   29 1
    28   31   29 ar
    29   32   25 ar
    30   33   32 ar
    31   34   33 1
    32   35   33 ar
    33   36   35 1
    34   37   35 ar
    35   38   37 1
    36   39   31 ar
    37   40   39 1
    38   41   42 1
    39   43   41 1
    40   44   41 1
    41   45   25 1
    42   46   45 2
    43   47   45 2
    44   48   26 1
    45    7    8 ar
    46   13   15 ar
    47   17   24 1
    48   31   32 ar
    49   37   39 ar
    50   41   48 1
@<TRIPOS>SUBSTRUCTURE
     1 RES1 1
     2 RES2 25

@<TRIPOS>CRYSIN
   9.1291   10.2456   10.5215  86.3900  82.9640  85.8010   2 1

