# MOL2 file generated by ConQuest
# Please check atom types

@<TRIPOS>MOLECULE
NUQNUK
    29    30     1
SMALL
NO_CHARGES
****
Generated from CSD

@<TRIPOS>ATOM
      1 O1         6.5818    0.3623    2.4441 O.2       1 RES1    0.0000
      2 C1         8.3506    1.1016    3.7761 C.2       1 RES1    0.0000
      3 C2         8.2521   -1.6511    1.2568 C.ar      1 RES1    0.0000
      4 C3         7.7537    0.2349    2.7591 C.2       1 RES1    0.0000
      5 N1         9.6010    0.9008    4.2680 N.2       1 RES1    0.0000
      6 N2         8.7391    2.5191    5.2622 N.pl3     1 RES1    0.0000
      7 C4         7.7797    2.1716    4.4031 C.2       1 RES1    0.0000
      8 N3         8.5835   -0.6969    2.2339 N.am      1 RES1    0.0000
      9 N4         9.8424    1.7830    5.2029 N.2       1 RES1    0.0000
     10 O2         8.6072    3.4116    6.3087 O.3       1 RES1    0.0000
     11 C5         8.9077   -2.8634    1.2824 C.ar      1 RES1    0.0000
     12 H1         9.5430   -3.0377    1.9392 H         1 RES1    0.0000
     13 C6         7.3276   -1.3976    0.2630 C.ar      1 RES1    0.0000
     14 H2         6.8923   -0.5765    0.2303 H         1 RES1    0.0000
     15 C7         7.6888   -3.5518   -0.6397 C.ar      1 RES1    0.0000
     16 H3         7.4914   -4.1979   -1.2778 H         1 RES1    0.0000
     17 C8         8.6182   -3.8118    0.3331 C.ar      1 RES1    0.0000
     18 H4         9.0553   -4.6328    0.3502 H         1 RES1    0.0000
     19 C9         7.0557   -2.3492   -0.6692 C.ar      1 RES1    0.0000
     20 H5         6.4287   -2.1755   -1.3338 H         1 RES1    0.0000
     21 C10        9.2869    4.5331    6.0714 C.3       1 RES1    0.0000
     22 H6         9.0527    5.1946    6.7251 H         1 RES1    0.0000
     23 H7         9.0703    4.8587    5.1936 H         1 RES1    0.0000
     24 H8        10.2293    4.3529    6.1212 H         1 RES1    0.0000
     25 C11        6.4913    2.9032    4.2645 C.3       1 RES1    0.0000
     26 H9         6.2894    3.3549    5.0862 H         1 RES1    0.0000
     27 H10        5.7903    2.2797    4.0606 H         1 RES1    0.0000
     28 H11        6.5627    3.5461    3.5548 H         1 RES1    0.0000
     29 H12        9.3615   -0.7014    2.5929 H         1 RES1    0.0000
@<TRIPOS>BOND
     1    1    4 2
     2    2    4 1
     3    3    8 1
     4    4    8 1
     5    5    2 1
     6    6    7 1
     7    7    2 2
     8    8   29 1
     9    9    5 2
    10   10    6 1
    11   11    3 ar
    12   12   11 1
    13   13    3 ar
    14   14   13 1
    15   15   16 1
    16   17   11 ar
    17   18   17 1
    18   19   13 ar
    19   20   19 1
    20   21   10 1
    21   22   21 1
    22   23   21 1
    23   24   21 1
    24   25    7 1
    25   26   25 1
    26   27   25 1
    27   28   25 1
    28    6    9 1
    29   15   17 ar
    30   15   19 ar
@<TRIPOS>SUBSTRUCTURE
     1 RES1 1

@<TRIPOS>CRYSIN
  11.4637    6.4345   15.8220  90.0000 100.3670  90.0000  14 1

