# MOL2 file generated by ConQuest
# Please check atom types

@<TRIPOS>MOLECULE
NUQZIJ
    36    38     1
SMALL
USER_CHARGES
****
Generated from CSD

@<TRIPOS>ATOM
      1 O1         2.0605   -0.2735   26.8773 O.2       1 RES1   -1.0000
      2 O2         7.5637   -2.9277   21.1516 O.2       1 RES1    0.0000
      3 O3         6.3912   -1.1587   20.7526 O.2       1 RES1    0.0000
      4 N1         3.6214   -0.5462   24.9368 N.pl3     1 RES1    1.0000
      5 H1         3.2186   -0.7013   25.8444 H         1 RES1    0.0000
      6 N2         4.7932   -2.2719   26.7094 N.pl3     1 RES1    0.0000
      7 H2         4.5584   -1.4769   27.0402 H         1 RES1    0.0000
      8 H3         5.1879   -2.9258   27.2677 H         1 RES1    0.0000
      9 N3         6.7662   -2.0718   21.4981 N.pl3     1 RES1    0.0000
     10 C1         4.7044   -1.3241   24.4907 C.ar      1 RES1    0.0000
     11 C2         5.2739   -2.2074   25.4351 C.ar      1 RES1    0.0000
     12 C3         6.2981   -3.0633   25.0225 C.ar      1 RES1    0.0000
     13 H4         6.6638   -3.6638   25.6307 H         1 RES1    0.0000
     14 C4         6.7730   -3.0341   23.7363 C.ar      1 RES1    0.0000
     15 H5         7.4476   -3.6146   23.4666 H         1 RES1    0.0000
     16 C5         6.2301   -2.1270   22.8498 C.ar      1 RES1    0.0000
     17 C6         5.1950   -1.2804   23.1947 C.ar      1 RES1    0.0000
     18 H6         4.8339   -0.6929   22.5705 H         1 RES1    0.0000
     19 C7         2.9282    0.3553   24.2765 C.2       1 RES1    0.0000
     20 H7         3.1862    0.5893   23.4139 H         1 RES1    0.0000
     21 C8         1.8049    0.9716   24.8525 C.ar      1 RES1    0.0000
     22 C9         1.3918    0.5717   26.1704 C.ar      1 RES1    0.0000
     23 C10        0.1900    1.1388   26.7086 C.ar      1 RES1    0.0000
     24 H8        -0.1056    0.8694   27.5479 H         1 RES1    0.0000
     25 C11       -0.5188    2.0527   26.0225 C.ar      1 RES1    0.0000
     26 H9        -1.2887    2.4024   26.4076 H         1 RES1    0.0000
     27 C12       -0.1330    2.5060   24.7257 C.ar      1 RES1    0.0000
     28 C13       -0.8997    3.4618   24.0443 C.ar      1 RES1    0.0000
     29 H10       -1.6538    3.8185   24.4543 H         1 RES1    0.0000
     30 C14       -0.5570    3.8812   22.7813 C.ar      1 RES1    0.0000
     31 H11       -1.0801    4.5053   22.3318 H         1 RES1    0.0000
     32 C15        0.5863    3.3545   22.1892 C.ar      1 RES1    0.0000
     33 H12        0.8286    3.6383   21.3386 H         1 RES1    0.0000
     34 C16        1.3637    2.4257   22.8326 C.ar      1 RES1    0.0000
     35 H13        2.1252    2.0969   22.4123 H         1 RES1    0.0000
     36 C17        1.0277    1.9608   24.1228 C.ar      1 RES1    0.0000
@<TRIPOS>BOND
     1    1   22 1
     2    2    9 2
     3    3    9 2
     4    4    5 1
     5    6    7 1
     6    8    6 1
     7    9   16 1
     8   10    4 1
     9   11    6 1
    10   12   11 ar
    11   13   12 1
    12   14   12 ar
    13   15   14 1
    14   16   14 ar
    15   17   10 ar
    16   18   17 1
    17   19    4 2
    18   20   19 1
    19   21   19 1
    20   22   21 ar
    21   23   22 ar
    22   24   23 1
    23   25   23 ar
    24   26   25 1
    25   27   25 ar
    26   28   27 ar
    27   29   28 1
    28   30   28 ar
    29   31   30 1
    30   32   30 ar
    31   33   32 1
    32   34   32 ar
    33   35   34 1
    34   36   21 ar
    35   10   11 ar
    36   16   17 ar
    37   27   36 ar
    38   34   36 ar
@<TRIPOS>SUBSTRUCTURE
     1 RES1 1

@<TRIPOS>CRYSIN
  10.3690    4.6442   28.5390  90.0000 103.5480  90.0000  14 1

