# MOL2 file generated by ConQuest
# Please check atom types

@<TRIPOS>MOLECULE
NURWEC
    37    40     1
SMALL
NO_CHARGES
****
Generated from CSD

@<TRIPOS>ATOM
      1 C1        -0.1851    8.1211   19.7945 C.3       1 RES1    0.0000
      2 H1        -0.8569    8.7771   20.0771 H         1 RES1    0.0000
      3 O1         0.2230    7.3658   20.9301 O.3       1 RES1    0.0000
      4 C2        -0.8889    6.6275   21.4343 C.3       1 RES1    0.0000
      5 H2        -1.6372    7.2371   21.6037 H         1 RES1    0.0000
      6 C3        -0.4788    5.9581   22.7258 C.3       1 RES1    0.0000
      7 H3        -0.2106    6.6257   23.3611 H         1 RES1    0.0000
      8 H4         0.2551    5.3628   22.5586 H         1 RES1    0.0000
      9 H5        -1.2206    5.4611   23.0781 H         1 RES1    0.0000
     10 O2        -1.2801    5.6479   20.5084 O.3       1 RES1    0.0000
     11 C4        -1.7903    6.2646   19.3255 C.3       1 RES1    0.0000
     12 H6        -2.6053    6.7446   19.5419 H         1 RES1    0.0000
     13 H7        -2.0120    5.5782   18.6773 H         1 RES1    0.0000
     14 C5        -0.7980    7.2219   18.7155 C.3       1 RES1    0.0000
     15 H8        -1.2624    7.7841   18.0609 H         1 RES1    0.0000
     16 O3         0.2230    6.4729   18.0408 O.3       1 RES1    0.0000
     17 C6         1.1950    7.3381   17.4872 C.3       1 RES1    0.0000
     18 H9         0.7620    7.9977   16.9064 H         1 RES1    0.0000
     19 C7         2.1775    6.5283   16.6958 C.3       1 RES1    0.0000
     20 H10        2.8401    7.1102   16.3169 H         1 RES1    0.0000
     21 H11        1.7170    6.0653   15.9917 H         1 RES1    0.0000
     22 H12        2.6040    5.8901   17.2723 H         1 RES1    0.0000
     23 O4         1.9041    7.9986   18.5251 O.3       1 RES1    0.0000
     24 C8         1.0269    8.8692   19.2361 C.3       1 RES1    0.0000
     25 H13        0.7005    9.5485   18.6094 H         1 RES1    0.0000
     26 C9         1.7863    9.5654   20.3180 C.2       1 RES1    0.0000
     27 C10        1.1551   10.6443   21.1490 C.3       1 RES1    0.0000
     28 H14        0.4546   10.2912   21.7373 H         1 RES1    0.0000
     29 O5         0.6803   11.7311   20.3381 O.3       1 RES1    0.0000
     30 C11        1.5783   12.7286   20.5044 C.2       1 RES1    0.0000
     31 H15        1.5136   13.5321   20.0412 H         1 RES1    0.0000
     32 C12        2.5444   12.4953   21.3568 C.2       1 RES1    0.0000
     33 H16        3.2306   13.0861   21.5698 H         1 RES1    0.0000
     34 C13        2.3678   11.1305   21.9335 C.3       1 RES1    0.0000
     35 H17        2.1945   11.1591   22.8974 H         1 RES1    0.0000
     36 O6         3.4458   10.2126   21.6006 O.3       1 RES1    0.0000
     37 N1         3.0134    9.3572   20.5582 N.2       1 RES1    0.0000
@<TRIPOS>BOND
     1    1    2 1
     2    3    1 1
     3    4    3 1
     4    5    4 1
     5    6    4 1
     6    7    6 1
     7    8    6 1
     8    9    6 1
     9   10    4 1
    10   11   10 1
    11   12   11 1
    12   13   11 1
    13   14    1 1
    14   15   14 1
    15   16   14 1
    16   17   16 1
    17   18   17 1
    18   19   17 1
    19   20   19 1
    20   21   19 1
    21   22   19 1
    22   23   17 1
    23   24    1 1
    24   25   24 1
    25   26   24 1
    26   27   26 1
    27   28   27 1
    28   29   27 1
    29   30   29 1
    30   31   30 1
    31   32   30 2
    32   33   32 1
    33   34   27 1
    34   35   34 1
    35   36   34 1
    36   37   26 2
    37   11   14 1
    38   23   24 1
    39   32   34 1
    40   36   37 1
@<TRIPOS>SUBSTRUCTURE
     1 RES1 1

@<TRIPOS>CRYSIN
   6.5410    8.9380   23.1610  90.0000  90.0000  90.0000  19 1

