# MOL2 file generated by ConQuest
# Please check atom types

@<TRIPOS>MOLECULE
NUSLUI
    29    31     1
SMALL
NO_CHARGES
****
Generated from CSD

@<TRIPOS>ATOM
      1 O1        -0.6559    1.7635    1.2078 O.2       1 RES1    0.0000
      2 O2         2.3145    2.4029    2.3291 O.3       1 RES1    0.0000
      3 O3         3.7319    0.7526    2.8432 O.2       1 RES1    0.0000
      4 O4         6.2363    6.6771    6.0405 O.2       1 RES1    0.0000
      5 O5         6.8948    5.0337    7.1907 O.2       1 RES1    0.0000
      6 O6         4.3530    3.1970    0.3882 O.3       1 RES1    0.0000
      7 O7         1.2670    1.8789   -2.7055 O.3       1 RES1    0.0000
      8 O8        -0.8673    1.8975   -1.9068 O.2       1 RES1    0.0000
      9 N1         0.9322    1.9403   -0.5377 N.am      1 RES1    0.0000
     10 N2         6.2572    5.5033    6.2844 N.pl3     1 RES1    0.0000
     11 C1         0.4501    1.9265    0.7554 C.2       1 RES1    0.0000
     12 C2         1.7876    1.5674    1.3010 C.3       1 RES1    0.0000
     13 C3         2.3562    1.8436   -0.1429 C.3       1 RES1    0.0000
     14 C4         3.3835    1.8989    2.9770 C.2       1 RES1    0.0000
     15 C5         4.0801    2.8725    3.8242 C.ar      1 RES1    0.0000
     16 C6         3.7949    4.2328    3.8006 C.ar      1 RES1    0.0000
     17 C7         4.5049    5.0959    4.6032 C.ar      1 RES1    0.0000
     18 C8         5.4716    4.5849    5.4412 C.ar      1 RES1    0.0000
     19 C9         5.7782    3.2315    5.4740 C.ar      1 RES1    0.0000
     20 C10        5.0717    2.3960    4.6399 C.ar      1 RES1    0.0000
     21 C11        0.3462    1.8989   -1.7914 C.2       1 RES1    0.0000
     22 C12        0.9442    1.7953   -4.1271 C.3       1 RES1    0.0000
     23 C13        2.2731    1.8160   -4.7671 C.3       1 RES1    0.0000
     24 C14        0.0572    2.9761   -4.4786 C.3       1 RES1    0.0000
     25 C15        0.2372    0.4972   -4.4104 C.3       1 RES1    0.0000
     26 C16        3.0553    3.1280   -0.2466 C.3       1 RES1    0.0000
     27 C17        4.2949    3.4042   -1.0872 C.3       1 RES1    0.0000
     28 C18        4.5374    4.8335   -1.4898 C.3       1 RES1    0.0000
     29 C19        4.8964    2.3201   -1.8295 C.3       1 RES1    0.0000
@<TRIPOS>BOND
     1    1   11 2
     2    2   12 1
     3    3   14 2
     4    4   10 2
     5    5   10 2
     6    6   26 1
     7    7   21 1
     8    8   21 2
     9    9   11 1
    10   10   18 1
    11   11   12 1
    12   12   13 1
    13   13    9 1
    14   14    2 1
    15   15   14 1
    16   16   15 ar
    17   17   16 ar
    18   18   17 ar
    19   19   18 ar
    20   20   15 ar
    21   21    9 1
    22   22    7 1
    23   23   22 1
    24   24   22 1
    25   25   22 1
    26   26   13 1
    27   27    6 1
    28   28   27 1
    29   29   27 1
    30   19   20 ar
    31   26   27 1
@<TRIPOS>SUBSTRUCTURE
     1 RES1 1

@<TRIPOS>CRYSIN
  11.7570    6.9050   13.4360  90.0000 102.5600  90.0000   4 1

