# MOL2 file generated by ConQuest
# Please check atom types

@<TRIPOS>MOLECULE
NUSQIC
    56    60     1
SMALL
NO_CHARGES
****
Generated from CSD

@<TRIPOS>ATOM
      1 O1        11.3948   10.8351    1.5415 O.2       1 RES1    0.0000
      2 O2        11.7840   12.1662   -0.1040 O.2       1 RES1    0.0000
      3 O3         8.5355   13.3117   -3.3076 O.2       1 RES1    0.0000
      4 O4         6.4897   12.6333   -3.0972 O.2       1 RES1    0.0000
      5 O5         7.7809    7.5050    6.2074 O.3       1 RES1    0.0000
      6 N1        11.0296   11.4255    0.5171 N.pl3     1 RES1    0.0000
      7 N2         7.6682   12.6512   -2.7456 N.pl3     1 RES1    0.0000
      8 N3         9.0314    9.7149    1.8359 N.pl3     1 RES1    0.0000
      9 H1         9.7970    9.7750    2.1872 H         1 RES1    0.0000
     10 N4         8.0090    9.0002    2.4167 N.2       1 RES1    0.0000
     11 C1         7.4498   10.2866    0.1175 C.ar      1 RES1    0.0000
     12 H2         6.7922    9.7083    0.5199 H         1 RES1    0.0000
     13 C2         7.1068   11.0033   -0.9976 C.ar      1 RES1    0.0000
     14 H3         6.2286   10.9179   -1.3720 H         1 RES1    0.0000
     15 C3         8.0488   11.8540   -1.5880 C.ar      1 RES1    0.0000
     16 C4         9.3219   11.9669   -1.0918 C.ar      1 RES1    0.0000
     17 H4         9.9639   12.5628   -1.5074 H         1 RES1    0.0000
     18 C5         9.6771   11.2412    0.0409 C.ar      1 RES1    0.0000
     19 C6         8.7441   10.3899    0.7017 C.ar      1 RES1    0.0000
     20 C7         8.1600    8.3648    3.5245 C.2       1 RES1    0.0000
     21 C8         9.3376    8.2116    4.4797 C.3       1 RES1    0.0000
     22 H5         9.6010    7.2840    4.4576 H         1 RES1    0.0000
     23 C9         8.8040    8.4689    5.9265 C.3       1 RES1    0.0000
     24 C10        8.0754    9.8274    6.0145 C.3       1 RES1    0.0000
     25 H6         8.4141   10.4597    5.3681 H         1 RES1    0.0000
     26 H7         8.1675   10.2273    6.9032 H         1 RES1    0.0000
     27 C11        6.6023    9.4680    5.7281 C.3       1 RES1    0.0000
     28 H8         6.0494    9.6390    6.5402 H         1 RES1    0.0000
     29 H9         6.2424    9.9940    4.9621 H         1 RES1    0.0000
     30 C12        6.6378    7.9473    5.4638 C.3       1 RES1    0.0000
     31 C13        6.9014    7.6382    3.9755 C.3       1 RES1    0.0000
     32 H10        7.1475    6.6559    3.9530 H         1 RES1    0.0000
     33 C14       10.6183    9.0172    4.2047 C.3       1 RES1    0.0000
     34 H11       10.4096    9.9559    4.1345 H         1 RES1    0.0000
     35 H12       11.0253    8.7480    3.3286 H         1 RES1    0.0000
     36 C15       11.6677    8.8174    5.3020 C.3       1 RES1    0.0000
     37 H13       11.9334    7.8571    5.2789 H         1 RES1    0.0000
     38 H14       12.4833    9.3854    5.0790 H         1 RES1    0.0000
     39 C16       11.1006    9.1460    6.6768 C.3       1 RES1    0.0000
     40 H15       10.8461   10.0980    6.7094 H         1 RES1    0.0000
     41 H16       11.8155    9.0261    7.3800 H         1 RES1    0.0000
     42 C17        9.8906    8.2661    6.9672 C.3       1 RES1    0.0000
     43 H17       10.1462    7.3195    6.9463 H         1 RES1    0.0000
     44 H18        9.4984    8.4429    7.8815 H         1 RES1    0.0000
     45 C18        5.4287    7.1724    5.9566 C.3       1 RES1    0.0000
     46 H19        5.2883    7.3905    6.9094 H         1 RES1    0.0000
     47 H20        5.6497    6.2239    5.8942 H         1 RES1    0.0000
     48 C19        4.1916    7.4770    5.1196 C.3       1 RES1    0.0000
     49 H21        3.4260    6.9737    5.4789 H         1 RES1    0.0000
     50 H22        3.9559    8.4581    5.1989 H         1 RES1    0.0000
     51 C20        4.4536    7.1331    3.6531 C.3       1 RES1    0.0000
     52 H23        4.6037    6.1293    3.5870 H         1 RES1    0.0000
     53 H24        3.6741    7.3169    3.1347 H         1 RES1    0.0000
     54 C21        5.6649    7.8996    3.1132 C.3       1 RES1    0.0000
     55 H25        5.8626    7.6508    2.1811 H         1 RES1    0.0000
     56 H26        5.4475    8.8410    3.0978 H         1 RES1    0.0000
@<TRIPOS>BOND
     1    1    6 2
     2    2    6 2
     3    3    7 2
     4    4    7 2
     5    5   23 1
     6    6   18 1
     7    7   15 1
     8    8    9 1
     9   10    8 1
    10   11   12 1
    11   13   11 ar
    12   14   13 1
    13   15   13 ar
    14   16   15 ar
    15   17   16 1
    16   18   16 ar
    17   19    8 1
    18   20   10 2
    19   21   20 1
    20   22   21 1
    21   23   21 1
    22   24   23 1
    23   25   24 1
    24   26   24 1
    25   27   24 1
    26   28   27 1
    27   29   27 1
    28   30    5 1
    29   31   20 1
    30   32   31 1
    31   33   21 1
    32   34   33 1
    33   35   33 1
    34   36   33 1
    35   37   36 1
    36   38   36 1
    37   39   36 1
    38   40   39 1
    39   41   39 1
    40   42   23 1
    41   43   42 1
    42   44   42 1
    43   45   30 1
    44   46   45 1
    45   47   45 1
    46   48   45 1
    47   49   48 1
    48   50   48 1
    49   51   48 1
    50   52   51 1
    51   53   51 1
    52   54   31 1
    53   55   54 1
    54   56   54 1
    55   11   19 ar
    56   18   19 ar
    57   27   30 1
    58   30   31 1
    59   39   42 1
    60   51   54 1
@<TRIPOS>SUBSTRUCTURE
     1 RES1 1

@<TRIPOS>CRYSIN
  15.3150    8.4530   30.7630  90.0000  90.0000  90.0000  61 1

