# MOL2 file generated by ConQuest
# Please check atom types

@<TRIPOS>MOLECULE
NUSQEY
    53    57     1
SMALL
NO_CHARGES
****
Generated from CSD

@<TRIPOS>ATOM
      1 O1         8.8369   -3.3509   12.0811 O.2       1 RES1    0.0000
      2 O2         6.7405   -3.6673   12.4789 O.2       1 RES1    0.0000
      3 O3         3.5576   -0.4498   11.1993 O.2       1 RES1    0.0000
      4 O4         4.0527    1.2763   10.0228 O.2       1 RES1    0.0000
      5 O5         7.1888    6.2227    7.3807 O.3       1 RES1    0.0000
      6 N1         7.6554   -3.0266   11.9837 N.pl3     1 RES1    0.0000
      7 N2         4.3700    0.2331   10.5937 N.pl3     1 RES1    0.0000
      8 N3         6.5159    1.7229    9.2690 N.3       1 RES1    0.0000
      9 N4         7.5607    2.3667    8.6360 N.2       1 RES1    0.0000
     10 C1         4.9652    6.5003    8.2487 C.3       1 RES1    0.0000
     11 C2         4.0641    5.3641    7.7623 C.3       1 RES1    0.0000
     12 C3         4.9871    4.1966    7.4571 C.3       1 RES1    0.0000
     13 C4         6.1013    4.3714    8.5040 C.3       1 RES1    0.0000
     14 C5         6.3475    5.8953    8.4991 C.3       1 RES1    0.0000
     15 C6         7.1536    6.3791    9.6861 C.3       1 RES1    0.0000
     16 C7         8.5964    6.0637    9.2666 C.3       1 RES1    0.0000
     17 C8         8.4885    5.7372    7.7647 C.3       1 RES1    0.0000
     18 C9         8.4813    4.2294    7.4933 C.3       1 RES1    0.0000
     19 C10        7.3556    3.5727    8.2600 C.2       1 RES1    0.0000
     20 C11        9.5355    6.4167    6.9087 C.3       1 RES1    0.0000
     21 C12       10.9126    5.7975    7.1462 C.3       1 RES1    0.0000
     22 C13       10.9037    4.3114    6.8612 C.3       1 RES1    0.0000
     23 C14        9.8502    3.5888    7.7011 C.3       1 RES1    0.0000
     24 C15        6.7505    0.5473    9.8818 C.ar      1 RES1    0.0000
     25 C16        8.0677    0.0167    9.9084 C.ar      1 RES1    0.0000
     26 C17        8.3512   -1.1365   10.5688 C.ar      1 RES1    0.0000
     27 C18        7.3397   -1.8232   11.2412 C.ar      1 RES1    0.0000
     28 C19        6.0458   -1.3741   11.2259 C.ar      1 RES1    0.0000
     29 C20        5.7491   -0.1984   10.5494 C.ar      1 RES1    0.0000
     30 H1        10.1471    3.6370    8.6892 H         1 RES1    0.0000
     31 H2         8.2526    4.1512    6.5471 H         1 RES1    0.0000
     32 H3         5.7526    4.1701    9.3817 H         1 RES1    0.0000
     33 H4         9.1585    6.8419    9.3656 H         1 RES1    0.0000
     34 H5         9.5172    7.3908    7.1269 H         1 RES1    0.0000
     35 H6        11.1695    5.9839    8.1094 H         1 RES1    0.0000
     36 H7         9.3041    6.3056    5.9753 H         1 RES1    0.0000
     37 H8         8.9546    5.2552    9.8005 H         1 RES1    0.0000
     38 H9         7.0402    7.3340    9.8086 H         1 RES1    0.0000
     39 H10       11.7872    3.9146    7.0222 H         1 RES1    0.0000
     40 H11       11.5190    6.2173    6.5310 H         1 RES1    0.0000
     41 H12        9.8344    2.6497    7.5054 H         1 RES1    0.0000
     42 H13        5.3893   -1.8232   11.6688 H         1 RES1    0.0000
     43 H14        6.8884    5.9334   10.5253 H         1 RES1    0.0000
     44 H15        5.3449    4.2553    6.5793 H         1 RES1    0.0000
     45 H16        9.1784   -1.4826   10.5977 H         1 RES1    0.0000
     46 H17        8.7600    0.5173    9.4542 H         1 RES1    0.0000
     47 H18       10.6790    4.1638    5.8706 H         1 RES1    0.0000
     48 H19        4.5677    6.9018    9.1240 H         1 RES1    0.0000
     49 H20        5.7465    2.0441    9.2610 H         1 RES1    0.0000
     50 H21        4.5601    3.2648    7.4973 H         1 RES1    0.0000
     51 H22        3.5408    5.6180    7.0464 H         1 RES1    0.0000
     52 H23        5.0736    7.2173    7.6262 H         1 RES1    0.0000
     53 H24        3.3568    5.1921    8.5603 H         1 RES1    0.0000
@<TRIPOS>BOND
     1    1    6 2
     2    2    6 2
     3    3    7 2
     4    4    7 2
     5    5   14 1
     6    6   27 1
     7    7   29 1
     8    8    9 1
     9    9   19 2
    10   10   11 1
    11   11   12 1
    12   12   13 1
    13   13   14 1
    14   14   10 1
    15   15   14 1
    16   16   15 1
    17   17    5 1
    18   18   17 1
    19   19   13 1
    20   20   17 1
    21   21   20 1
    22   22   21 1
    23   23   18 1
    24   24    8 1
    25   25   24 ar
    26   26   25 ar
    27   27   26 ar
    28   28   27 ar
    29   29   24 ar
    30   30   23 1
    31   31   18 1
    32   32   13 1
    33   33   16 1
    34   34   20 1
    35   35   21 1
    36   36   20 1
    37   37   16 1
    38   38   15 1
    39   39   22 1
    40   40   21 1
    41   41   23 1
    42   42   28 1
    43   43   15 1
    44   44   12 1
    45   45   26 1
    46   46   25 1
    47   47   22 1
    48   48   10 1
    49   49    8 1
    50   50   12 1
    51   51   11 1
    52   52   10 1
    53   53   11 1
    54   16   17 1
    55   18   19 1
    56   22   23 1
    57   28   29 ar
@<TRIPOS>SUBSTRUCTURE
     1 RES1 1

@<TRIPOS>CRYSIN
  15.3280   31.5440    8.0530  90.0000  90.0000  90.0000  56 1

