# MOL2 file generated by ConQuest
# Please check atom types

@<TRIPOS>MOLECULE
NUSRAW
    27    28     1
SMALL
NO_CHARGES
****
Generated from CSD

@<TRIPOS>ATOM
      1 C1         5.9356    9.6793   20.7900 C.ar      1 RES1    0.0000
      2 H1         6.4031    9.9314   21.5653 H         1 RES1    0.0000
      3 O1         1.9159    9.5582   18.0236 O.2       1 RES1    0.0000
      4 N1         1.7444    6.7033   14.4385 N.2       1 RES1    0.0000
      5 O2         2.6824    6.0071   13.6187 O.3       1 RES1    0.0000
      6 N2         3.7956    7.3619   15.3474 N.am      1 RES1    0.0000
      7 O3         5.7275    7.6023   16.4927 O.2       1 RES1    0.0000
      8 N3         1.7861    8.1483   16.2492 N.am      1 RES1    0.0000
      9 N4         3.8342    8.5456   17.3360 N.am      1 RES1    0.0000
     10 C2         2.4173    7.3619   15.3015 C.2       1 RES1    0.0000
     11 C3         2.4559    8.8111   17.2506 C.2       1 RES1    0.0000
     12 C4         4.5296    7.8152   16.3944 C.2       1 RES1    0.0000
     13 C5         4.5529    8.9680   18.5261 C.ar      1 RES1    0.0000
     14 C6         4.1832    8.4346   19.7402 C.ar      1 RES1    0.0000
     15 H2         3.4636    7.8319   19.7955 H         1 RES1    0.0000
     16 C7         5.6081    9.8404   18.4204 C.ar      1 RES1    0.0000
     17 H3         5.8549   10.1935   17.5859 H         1 RES1    0.0000
     18 C8         4.8804    8.7952   20.8777 C.ar      1 RES1    0.0000
     19 H4         4.6346    8.4380   21.7119 H         1 RES1    0.0000
     20 C9         0.3221    8.2343   16.1979 C.3       1 RES1    0.0000
     21 H5        -0.0574    7.3452   16.2755 H         1 RES1    0.0000
     22 H6         0.0502    8.6283   15.3539 H         1 RES1    0.0000
     23 H7         0.0045    8.7869   16.9293 H         1 RES1    0.0000
     24 C10        6.3026   10.1902   19.5663 C.ar      1 RES1    0.0000
     25 H8         7.0303   10.7820   19.5080 H         1 RES1    0.0000
     26 H9         2.2343    5.6431   13.0457 H         1 RES1    0.0000
     27 H10        4.1455    6.8953   14.7902 H         1 RES1    0.0000
@<TRIPOS>BOND
     1    1    2 1
     2    3   11 2
     3    4    5 1
     4    5   26 1
     5    6   10 1
     6    7   12 2
     7    8   10 1
     8    9   11 1
     9   10    4 2
    10   11    8 1
    11   12    6 1
    12   13    9 1
    13   14   13 ar
    14   15   14 1
    15   16   13 ar
    16   17   16 1
    17   18    1 ar
    18   19   18 1
    19   20    8 1
    20   21   20 1
    21   22   20 1
    22   23   20 1
    23   24    1 ar
    24   25   24 1
    25   27    6 1
    26    9   12 1
    27   14   18 ar
    28   16   24 ar
@<TRIPOS>SUBSTRUCTURE
     1 RES1 1

@<TRIPOS>CRYSIN
   8.9730    8.3478   28.1826  90.0000  90.0000  90.0000  61 1

