# MOL2 file generated by ConQuest
# Please check atom types

@<TRIPOS>MOLECULE
NUTPEX
    38    40     1
SMALL
NO_CHARGES
****
Generated from CSD

@<TRIPOS>ATOM
      1 O1        -2.5513   -0.5950    1.6138 O.2       1 RES1    0.0000
      2 O2        -2.8967   -3.7869    1.3537 O.3       1 RES1    0.0000
      3 O3        -1.4594    1.0801    3.1953 O.3       1 RES1    0.0000
      4 H1        -2.0908    0.7190    2.7755 H         1 RES1    0.0000
      5 O4         3.2733    1.1381    3.3976 O.3       1 RES1    0.0000
      6 H2         3.1040    1.6961    4.0018 H         1 RES1    0.0000
      7 N1        -4.1520   -4.4057    1.2149 N.2       1 RES1    0.0000
      8 C1        -1.4508   -1.0525    1.3053 C.2       1 RES1    0.0000
      9 C2        -1.4102   -2.2233    0.3323 C.3       1 RES1    0.0000
     10 H3        -1.2020   -1.8898   -0.5756 H         1 RES1    0.0000
     11 H4        -0.6916   -2.8489    0.6007 H         1 RES1    0.0000
     12 C3        -0.2202   -0.5001    1.8414 C.ar      1 RES1    0.0000
     13 C4        -0.2837    0.5512    2.7831 C.ar      1 RES1    0.0000
     14 C5         0.8779    1.0969    3.3157 C.ar      1 RES1    0.0000
     15 H5         0.8226    1.8057    3.9452 H         1 RES1    0.0000
     16 C6         2.1139    0.6108    2.9323 C.ar      1 RES1    0.0000
     17 C7         2.2072   -0.4395    2.0046 C.ar      1 RES1    0.0000
     18 H6         3.0559   -0.7760    1.7414 H         1 RES1    0.0000
     19 C8         1.0588   -0.9714    1.4853 C.ar      1 RES1    0.0000
     20 H7         1.1263   -1.6841    0.8615 H         1 RES1    0.0000
     21 C9        -4.6747   -3.9212    0.1087 C.2       1 RES1    0.0000
     22 C10       -3.7882   -2.9867   -0.4938 C.2       1 RES1    0.0000
     23 H8        -3.9274   -2.4947   -1.2935 H         1 RES1    0.0000
     24 C11       -2.7150   -2.9487    0.3073 C.2       1 RES1    0.0000
     25 C12       -5.9922   -4.3952   -0.3487 C.ar      1 RES1    0.0000
     26 C13       -6.7898   -5.2052    0.4634 C.ar      1 RES1    0.0000
     27 H9        -6.4899   -5.4366    1.3344 H         1 RES1    0.0000
     28 C14       -8.0073   -5.6729    0.0153 C.ar      1 RES1    0.0000
     29 H10       -8.5265   -6.2322    0.5809 H         1 RES1    0.0000
     30 C15       -8.4907   -5.3454   -1.2406 C.ar      1 RES1    0.0000
     31 C16       -7.7069   -4.5309   -2.0394 C.ar      1 RES1    0.0000
     32 H11       -8.0221   -4.2869   -2.9019 H         1 RES1    0.0000
     33 C17       -6.4736   -4.0625   -1.6119 C.ar      1 RES1    0.0000
     34 H12       -5.9537   -3.5108   -2.1853 H         1 RES1    0.0000
     35 C18       -9.8351   -5.8634   -1.7090 C.3       1 RES1    0.0000
     36 H13      -10.1184   -5.3646   -2.5041 H         1 RES1    0.0000
     37 H14      -10.4972   -5.7443   -0.9958 H         1 RES1    0.0000
     38 H15       -9.7595   -6.8145   -1.9298 H         1 RES1    0.0000
@<TRIPOS>BOND
     1    1    8 2
     2    2    7 1
     3    3    4 1
     4    5    6 1
     5    7   21 2
     6    8    9 1
     7    9   10 1
     8   11    9 1
     9   12    8 1
    10   13    3 1
    11   14   13 ar
    12   15   14 1
    13   16    5 1
    14   17   16 ar
    15   18   17 1
    16   19   12 ar
    17   20   19 1
    18   21   22 1
    19   22   23 1
    20   24    2 1
    21   25   21 1
    22   26   25 ar
    23   27   26 1
    24   28   26 ar
    25   29   28 1
    26   30   28 ar
    27   31   30 ar
    28   32   31 1
    29   33   25 ar
    30   34   33 1
    31   35   30 1
    32   36   35 1
    33   37   35 1
    34   38   35 1
    35    9   24 1
    36   12   13 ar
    37   14   16 ar
    38   17   19 ar
    39   22   24 2
    40   31   33 ar
@<TRIPOS>SUBSTRUCTURE
     1 RES1 1

@<TRIPOS>CRYSIN
   7.9188   15.0100   13.4220  90.0000 101.0640  90.0000  14 1

