# MOL2 file generated by ConQuest
# Please check atom types

@<TRIPOS>MOLECULE
NUTPIC
    19    19     1
SMALL
NO_CHARGES
****
Generated from CSD

@<TRIPOS>ATOM
      1 O1         1.8324    1.0224    4.9241 O.3       1 RES1    0.0000
      2 O2         0.3961    0.2663    6.6174 O.3       1 RES1    0.0000
      3 N1         1.4172    0.4285    7.6457 N.3       1 RES1    0.0000
      4 H1         1.8572   -0.3589    7.6205 H         1 RES1    0.0000
      5 H2         0.9193    0.4256    8.4326 H         1 RES1    0.0000
      6 C1         0.6032    1.2258    5.6022 C.3       1 RES1    0.0000
      7 H3         0.6072    2.1372    6.0141 H         1 RES1    0.0000
      8 C2        -0.5886    1.1137    4.6661 C.3       1 RES1    0.0000
      9 H4        -0.5658    1.8578    4.0140 H         1 RES1    0.0000
     10 H5        -1.4266    1.1901    5.1890 H         1 RES1    0.0000
     11 C3        -0.5768   -0.2190    3.9171 C.3       1 RES1    0.0000
     12 H6        -0.7313   -0.9630    4.5524 H         1 RES1    0.0000
     13 H7        -1.3014   -0.2318    3.2425 H         1 RES1    0.0000
     14 C4         0.7757   -0.3959    3.2294 C.3       1 RES1    0.0000
     15 H8         0.8221   -1.2917    2.8112 H         1 RES1    0.0000
     16 H9         0.8774    0.2830    2.5157 H         1 RES1    0.0000
     17 C5         1.8975   -0.2461    4.2379 C.3       1 RES1    0.0000
     18 H10        1.8414   -0.9794    4.9005 H         1 RES1    0.0000
     19 H11        2.7682   -0.3220    3.7720 H         1 RES1    0.0000
@<TRIPOS>BOND
     1    1    6 1
     2    2    3 1
     3    3    4 1
     4    5    3 1
     5    6    2 1
     6    7    6 1
     7    8    6 1
     8    9    8 1
     9   10    8 1
    10   11    8 1
    11   12   11 1
    12   13   11 1
    13   14   11 1
    14   15   14 1
    15   16   14 1
    16   17    1 1
    17   18   17 1
    18   19   17 1
    19   14   17 1
@<TRIPOS>SUBSTRUCTURE
     1 RES1 1

@<TRIPOS>CRYSIN
  11.7328    5.1277   10.9693  90.0000 115.3140  90.0000  14 1

