# MOL2 file generated by ConQuest
# Please check atom types

@<TRIPOS>MOLECULE
NUVKIY
    62    66     2
SMALL
NO_CHARGES
****
Generated from CSD

@<TRIPOS>ATOM
      1 N1         7.5913    3.7308    6.5998 N.3       1 RES1    0.0000
      2 O1         6.5919    3.0949    5.7534 O.3       1 RES1    0.0000
      3 C1         7.2491    1.8966    5.2831 C.3       1 RES1    0.0000
      4 C2         7.2496    0.8699    6.4058 C.3       1 RES1    0.0000
      5 O2         5.8882    0.6328    6.7549 O.3       1 RES1    0.0000
      6 C3         8.0463    1.4343    7.5741 C.3       1 RES1    0.0000
      7 O3         7.7639    0.6973    8.7624 O.3       1 RES1    0.0000
      8 C4         7.6684    2.8914    7.8190 C.3       1 RES1    0.0000
      9 C5         8.8181    3.6637    5.7526 C.3       1 RES1    0.0000
     10 C6         8.9735    4.9219    4.9217 C.ar      1 RES1    0.0000
     11 C7        10.1172    5.6927    5.0190 C.ar      1 RES1    0.0000
     12 C8        10.2848    6.8139    4.2157 C.ar      1 RES1    0.0000
     13 C9         9.3167    7.1751    3.3079 C.ar      1 RES1    0.0000
     14 C10        8.1679    6.4349    3.2263 C.ar      1 RES1    0.0000
     15 C11        7.9944    5.3132    4.0224 C.ar      1 RES1    0.0000
     16 C12        8.6357    2.3893    4.8929 C.3       1 RES1    0.0000
     17 H1         6.7823    1.5404    4.4978 H         1 RES1    0.0000
     18 H2         7.6620    0.0379    6.0936 H         1 RES1    0.0000
     19 H3         5.8072   -0.1354    7.0301 H         1 RES1    0.0000
     20 H4         9.0037    1.3750    7.3735 H         1 RES1    0.0000
     21 H5         8.4630    0.4042    9.0749 H         1 RES1    0.0000
     22 H6         6.8074    2.9160    8.2645 H         1 RES1    0.0000
     23 H7         8.3204    3.2821    8.4206 H         1 RES1    0.0000
     24 H8         9.6042    3.5564    6.3277 H         1 RES1    0.0000
     25 H9        10.7801    5.4588    5.6289 H         1 RES1    0.0000
     26 H10       11.0582    7.3238    4.2925 H         1 RES1    0.0000
     27 H11        9.4412    7.9133    2.7556 H         1 RES1    0.0000
     28 H12        7.4983    6.6871    2.6320 H         1 RES1    0.0000
     29 H13        7.2111    4.8160    3.9515 H         1 RES1    0.0000
     30 H14        8.6790    2.5979    3.9467 H         1 RES1    0.0000
     31 H15        9.3128    1.7275    5.1018 H         1 RES1    0.0000
     32 N2         4.2474    5.3158   10.2569 N.3       2 RES2    0.0000
     33 O4         4.3348    6.6091   10.9123 O.3       2 RES2    0.0000
     34 C13        5.7262    6.7177   11.2770 C.3       2 RES2    0.0000
     35 C14        6.5468    7.0420   10.0427 C.3       2 RES2    0.0000
     36 O5         6.0617    8.2743    9.5088 O.3       2 RES2    0.0000
     37 C15        6.3797    5.8917    9.0489 C.3       2 RES2    0.0000
     38 O6         6.8898    6.2626    7.7695 O.3       2 RES2    0.0000
     39 C16        4.9196    5.4819    8.9537 C.3       2 RES2    0.0000
     40 C17        5.0126    4.4216   11.1822 C.3       2 RES2    0.0000
     41 C18        4.0446    3.7068   12.1007 C.ar      2 RES2    0.0000
     42 C19        3.5793    2.4547   11.7525 C.ar      2 RES2    0.0000
     43 C20        2.6284    1.8094   12.5282 C.ar      2 RES2    0.0000
     44 C21        2.1442    2.4115   13.6665 C.ar      2 RES2    0.0000
     45 C22        2.6012    3.6373   14.0231 C.ar      2 RES2    0.0000
     46 C23        3.5411    4.2934   13.2486 C.ar      2 RES2    0.0000
     47 C24        6.0410    5.3447   11.8666 C.3       2 RES2    0.0000
     48 H16        5.8448    7.4145   11.9554 H         2 RES2    0.0000
     49 H17        7.4914    7.1349   10.2877 H         2 RES2    0.0000
     50 H18        6.6491    8.6265    9.0569 H         2 RES2    0.0000
     51 H19        6.8945    5.1242    9.3756 H         2 RES2    0.0000
     52 H20        7.0722    5.5871    7.3411 H         2 RES2    0.0000
     53 H21        4.4414    6.1528    8.4410 H         2 RES2    0.0000
     54 H22        4.8626    4.6456    8.4650 H         2 RES2    0.0000
     55 H23        5.4936    3.7546   10.6503 H         2 RES2    0.0000
     56 H24        3.9074    2.0394   10.9877 H         2 RES2    0.0000
     57 H25        2.3174    0.9697   12.2784 H         2 RES2    0.0000
     58 H26        1.5068    1.9795   14.1876 H         2 RES2    0.0000
     59 H27        2.2799    4.0402   14.7975 H         2 RES2    0.0000
     60 H28        3.8373    5.1382   13.5020 H         2 RES2    0.0000
     61 H29        5.9249    5.3437   12.8308 H         2 RES2    0.0000
     62 H30        6.9482    5.0735   11.6565 H         2 RES2    0.0000
@<TRIPOS>BOND
     1    1    2 1
     2    2    3 1
     3    3    4 1
     4    4    5 1
     5    5   19 1
     6    6    4 1
     7    7    6 1
     8    8    1 1
     9    9    1 1
    10   10    9 1
    11   11   10 ar
    12   12   11 ar
    13   13   12 ar
    14   14   13 ar
    15   15   10 ar
    16   16    3 1
    17   17    3 1
    18   18    4 1
    19   20    6 1
    20   21    7 1
    21   22    8 1
    22   23    8 1
    23   24    9 1
    24   25   11 1
    25   26   12 1
    26   27   13 1
    27   28   14 1
    28   29   15 1
    29   30   16 1
    30   31   16 1
    31   32   33 1
    32   33   34 1
    33   34   35 1
    34   35   36 1
    35   36   50 1
    36   37   35 1
    37   38   37 1
    38   39   32 1
    39   40   32 1
    40   41   40 1
    41   42   41 ar
    42   43   42 ar
    43   44   43 ar
    44   45   44 ar
    45   46   41 ar
    46   47   34 1
    47   48   34 1
    48   49   35 1
    49   51   37 1
    50   52   38 1
    51   53   39 1
    52   54   39 1
    53   55   40 1
    54   56   42 1
    55   57   43 1
    56   58   44 1
    57   59   45 1
    58   60   46 1
    59   61   47 1
    60   62   47 1
    61    6    8 1
    62    9   16 1
    63   14   15 ar
    64   37   39 1
    65   40   47 1
    66   45   46 ar
@<TRIPOS>SUBSTRUCTURE
     1 RES1 1
     2 RES2 32

@<TRIPOS>CRYSIN
   5.5513    8.2622   12.2663  84.2990  79.0050  82.0880   1 1

