# MOL2 file generated by ConQuest
# Please check atom types

@<TRIPOS>MOLECULE
NUVKOG
    45    46     1
SMALL
NO_CHARGES
****
Generated from CSD

@<TRIPOS>ATOM
      1 O1         6.3797   11.5032    5.8503 O.2       1 RES1    0.0000
      2 O2         4.1555   11.1779    6.0345 O.3       1 RES1    0.0000
      3 O3         6.1797    5.4213    8.0739 O.2       1 RES1    0.0000
      4 O4         3.9816    5.9033    7.9731 O.3       1 RES1    0.0000
      5 O5         2.1213    3.4651    3.2963 O.2       1 RES1    0.0000
      6 O6         0.7219    4.0652    1.7538 O.2       1 RES1    0.0000
      7 O7         0.8554    8.5817    0.0787 O.2       1 RES1    0.0000
      8 O8         2.2939    9.9829    0.9075 O.2       1 RES1    0.0000
      9 N1         6.4087    9.4376    9.6497 N.ar      1 RES1    0.0000
     10 N2         1.5900    4.3036    2.5776 N.pl3     1 RES1    0.0000
     11 N3         1.7271    8.8971    0.8828 N.pl3     1 RES1    0.0000
     12 C1         6.1870   10.3205    8.6639 C.ar      1 RES1    0.0000
     13 C2         5.5673    9.9459    7.4625 C.ar      1 RES1    0.0000
     14 C3         5.1715    8.6101    7.2909 C.ar      1 RES1    0.0000
     15 C4         5.4906    7.6943    8.2960 C.ar      1 RES1    0.0000
     16 C5         6.0919    8.1410    9.4673 C.ar      1 RES1    0.0000
     17 C6         6.6129   11.7281    8.9353 C.3       1 RES1    0.0000
     18 H1         7.0550   11.7725    9.8095 H         1 RES1    0.0000
     19 H2         5.8258   12.3125    8.9374 H         1 RES1    0.0000
     20 H3         7.2359   12.0221    8.2391 H         1 RES1    0.0000
     21 C7         5.4381   10.9392    6.3716 C.2       1 RES1    0.0000
     22 C8         3.9579   12.1565    4.9847 C.3       1 RES1    0.0000
     23 H4         4.4270   12.9852    5.2185 H         1 RES1    0.0000
     24 H5         3.0010   12.3402    4.8860 H         1 RES1    0.0000
     25 H6         4.3130   11.8061    4.1416 H         1 RES1    0.0000
     26 C9         5.2735    6.2247    8.0954 C.2       1 RES1    0.0000
     27 C10        3.7010    4.4847    7.7843 C.3       1 RES1    0.0000
     28 H7         4.1740    4.1619    6.9895 H         1 RES1    0.0000
     29 H8         2.7365    4.3556    7.6663 H         1 RES1    0.0000
     30 H9         4.0045    3.9845    8.5706 H         1 RES1    0.0000
     31 C11        6.4000    7.2179   10.6011 C.3       1 RES1    0.0000
     32 H10        6.7920    7.7268   11.3402 H         1 RES1    0.0000
     33 H11        7.0353    6.5338   10.3019 H         1 RES1    0.0000
     34 H12        5.5744    6.7854   10.9036 H         1 RES1    0.0000
     35 C12        4.5041    8.1861    6.0970 C.1       1 RES1    0.0000
     36 C13        3.9245    7.8054    5.1145 C.1       1 RES1    0.0000
     37 C14        3.1991    7.3898    3.9581 C.ar      1 RES1    0.0000
     38 C15        2.8664    8.3154    2.9713 C.ar      1 RES1    0.0000
     39 H13        3.1642    9.2156    3.0346 H         1 RES1    0.0000
     40 C16        2.0972    7.9070    1.8997 C.ar      1 RES1    0.0000
     41 C17        1.6585    6.6119    1.7474 C.ar      1 RES1    0.0000
     42 H14        1.1202    6.3547    1.0083 H         1 RES1    0.0000
     43 C18        2.0336    5.7051    2.7128 C.ar      1 RES1    0.0000
     44 C19        2.7923    6.0517    3.8155 C.ar      1 RES1    0.0000
     45 H15        3.0328    5.3996    4.4634 H         1 RES1    0.0000
@<TRIPOS>BOND
     1    1   21 2
     2    2   21 1
     3    3   26 2
     4    4   26 1
     5    5   10 2
     6    6   10 2
     7    7   11 2
     8    8   11 2
     9    9   12 ar
    10   10   43 1
    11   11   40 1
    12   12   13 ar
    13   13   14 ar
    14   14   15 ar
    15   15   16 ar
    16   16    9 ar
    17   17   12 1
    18   18   17 1
    19   19   17 1
    20   20   17 1
    21   21   13 1
    22   22    2 1
    23   23   22 1
    24   24   22 1
    25   25   22 1
    26   26   15 1
    27   27    4 1
    28   28   27 1
    29   29   27 1
    30   30   27 1
    31   31   16 1
    32   32   31 1
    33   33   31 1
    34   34   31 1
    35   35   14 1
    36   36   35 3
    37   37   36 1
    38   38   37 ar
    39   39   38 1
    40   40   38 ar
    41   41   40 ar
    42   42   41 1
    43   43   41 ar
    44   44   37 ar
    45   45   44 1
    46   43   44 ar
@<TRIPOS>SUBSTRUCTURE
     1 RES1 1

@<TRIPOS>CRYSIN
   7.9580   10.8060   12.4660  65.2050  72.7080  88.9130   2 1

