# MOL2 file generated by ConQuest
# Please check atom types

@<TRIPOS>MOLECULE
NUWKOH
    44    46     2
SMALL
NO_CHARGES
****
Generated from CSD

@<TRIPOS>ATOM
      1 O1         2.5303    1.8073    0.7130 O.2       1 RES1    0.0000
      2 O2         3.3047   -0.0689   -0.1247 O.2       1 RES1    0.0000
      3 N1         3.0157    1.1413   -0.2115 N.pl3     1 RES1    0.0000
      4 O3         3.2412    0.2494   -5.6761 O.3       1 RES1    0.0000
      5 H1         3.1821   -0.4504   -5.2138 H         1 RES1    0.0000
      6 C1         3.2810    1.8000   -1.5073 C.ar      1 RES1    0.0000
      7 C2         3.1461    3.2039   -1.5619 C.ar      1 RES1    0.0000
      8 H2         2.9141    3.6968   -0.7831 H         1 RES1    0.0000
      9 C3         3.7052    3.1071   -3.9167 C.ar      1 RES1    0.0000
     10 C4         3.3578    3.8611   -2.7820 C.ar      1 RES1    0.0000
     11 H3         3.2706    4.8044   -2.8423 H         1 RES1    0.0000
     12 C5         3.8632    1.7105   -3.8018 C.ar      1 RES1    0.0000
     13 C6         3.6499    1.0401   -2.6013 C.ar      1 RES1    0.0000
     14 H4         3.7520    0.0968   -2.5355 H         1 RES1    0.0000
     15 C7         4.2801    1.0944   -5.1382 C.3       1 RES1    0.0000
     16 H5         5.1280    0.5765   -5.0303 H         1 RES1    0.0000
     17 C8         3.9355    3.5736   -5.3231 C.3       1 RES1    0.0000
     18 H6         4.5824    4.3232   -5.3469 H         1 RES1    0.0000
     19 H7         3.0891    3.8655   -5.7447 H         1 RES1    0.0000
     20 C9         4.5122    2.3179   -6.0403 C.3       1 RES1    0.0000
     21 H8         4.0604    2.1858   -6.9116 H         1 RES1    0.0000
     22 H9         5.4818    2.4367   -6.2070 H         1 RES1    0.0000
     23 O4         6.0574    1.3496    0.4567 O.2       2 RES2    0.0000
     24 O5         6.5410   -0.6557   -0.2830 O.2       2 RES2    0.0000
     25 N2         6.5086    0.5941   -0.4118 N.pl3     2 RES2    0.0000
     26 C10        7.0174    1.1751   -1.6908 C.ar      2 RES2    0.0000
     27 O6         8.5843    5.2123   -2.8170 O.3       2 RES2    0.0000
     28 H10        8.3064    5.9076   -2.4374 H         2 RES2    0.0000
     29 C11        6.9277    2.5687   -1.8561 C.ar      2 RES2    0.0000
     30 H11        6.5514    3.1335   -1.1907 H         2 RES2    0.0000
     31 C12        7.9399    2.2328   -4.0540 C.ar      2 RES2    0.0000
     32 C13        7.9943    0.8479   -3.8466 C.ar      2 RES2    0.0000
     33 H12        8.3502    0.2787   -4.5162 H         2 RES2    0.0000
     34 C14        7.4239    3.0704   -3.0580 C.ar      2 RES2    0.0000
     35 C15        7.5236    0.3139   -2.6573 C.ar      2 RES2    0.0000
     36 H13        7.5449   -0.6235   -2.5061 H         2 RES2    0.0000
     37 C16        8.3935    3.0440   -5.2475 C.3       2 RES2    0.0000
     38 H14        8.0814    2.6362   -6.0936 H         2 RES2    0.0000
     39 H15        9.3804    3.1188   -5.2713 H         2 RES2    0.0000
     40 C17        7.4723    4.5477   -3.4922 C.3       2 RES2    0.0000
     41 H16        6.6055    5.0098   -3.3031 H         2 RES2    0.0000
     42 C18        7.7309    4.4377   -5.0205 C.3       2 RES2    0.0000
     43 H17        8.3347    5.1624   -5.3231 H         2 RES2    0.0000
     44 H18        6.8815    4.5052   -5.5234 H         2 RES2    0.0000
@<TRIPOS>BOND
     1    1    3 2
     2    2    3 2
     3    3    6 1
     4    4    5 1
     5    6    7 ar
     6    7    8 1
     7    9   10 ar
     8   10    7 ar
     9   11   10 1
    10   12    9 ar
    11   13    6 ar
    12   14   13 1
    13   15    4 1
    14   16   15 1
    15   17    9 1
    16   18   17 1
    17   19   17 1
    18   20   15 1
    19   21   20 1
    20   22   20 1
    21   23   25 2
    22   24   25 2
    23   25   26 1
    24   26   29 ar
    25   27   28 1
    26   29   30 1
    27   31   32 ar
    28   32   33 1
    29   34   29 ar
    30   35   26 ar
    31   36   35 1
    32   37   31 1
    33   38   37 1
    34   39   37 1
    35   40   27 1
    36   41   40 1
    37   42   37 1
    38   43   42 1
    39   44   42 1
    40   12   13 ar
    41   12   15 1
    42   17   20 1
    43   31   34 ar
    44   32   35 ar
    45   34   40 1
    46   40   42 1
@<TRIPOS>SUBSTRUCTURE
     1 RES1 1
     2 RES2 23

@<TRIPOS>CRYSIN
  16.0380   14.6700   15.6340  90.0000 116.3620  90.0000  15 1

