# MOL2 file generated by ConQuest
# Please check atom types

@<TRIPOS>MOLECULE
NUXYAI
    31    27     2
SMALL
USER_CHARGES
****
Generated from CSD

@<TRIPOS>ATOM
      1 O1         1.1505    4.7339   13.0881 O.3       1 RES1    0.0000
      2 H1         0.6911    4.2655   13.6861 H         1 RES1    0.0000
      3 O2        -0.5286    4.9378    9.8428 O.3       1 RES1    0.0000
      4 H2        -1.1671    4.3608    9.6017 H         1 RES1    0.0000
      5 O3         3.3843    3.0622    9.0932 O.2       1 RES1   -1.0000
      6 N1         1.9995    3.2502    9.1838 N.4       1 RES1    1.0000
      7 C1         0.2821    5.1987   12.0675 C.3       1 RES1    0.0000
      8 H3         0.5478    6.1176   11.8136 H         1 RES1    0.0000
      9 H4        -0.6411    5.2386   12.4242 H         1 RES1    0.0000
     10 C2         0.2944    4.3137   10.8189 C.3       1 RES1    0.0000
     11 H5        -0.0786    3.4132   11.0440 H         1 RES1    0.0000
     12 C3         1.7351    4.1652   10.3559 C.3       1 RES1    0.0000
     13 H6         2.0746    5.0658   10.1227 H         1 RES1    0.0000
     14 H7         2.2697    3.8400   11.1229 H         1 RES1    0.0000
     15 C4         1.3435    1.9026    9.3619 C.3       1 RES1    0.0000
     16 H8         1.5499    1.3350    8.5776 H         1 RES1    0.0000
     17 H9         0.3614    2.0223    9.3997 H         1 RES1    0.0000
     18 C5         1.8050    1.2005   10.6166 C.3       1 RES1    0.0000
     19 H10        1.5000    0.2693   10.6007 H         1 RES1    0.0000
     20 H11        1.4302    1.6539   11.4013 H         1 RES1    0.0000
     21 H12        2.7832    1.2233   10.6628 H         1 RES1    0.0000
     22 C6         1.5064    3.8321    7.8775 C.3       1 RES1    0.0000
     23 H13        1.6367    3.1655    7.1567 H         1 RES1    0.0000
     24 H14        0.5362    4.0140    7.9502 H         1 RES1    0.0000
     25 C7         2.2203    5.1092    7.5020 C.3       1 RES1    0.0000
     26 H15        1.9645    5.3707    6.5927 H         1 RES1    0.0000
     27 H16        3.1885    4.9654    7.5403 H         1 RES1    0.0000
     28 H17        1.9697    5.8203    8.1282 H         1 RES1    0.0000
     29 H18       -0.1783    4.8295   10.1047 Du        2 SUP2    0.0000
     30 O4        -0.4965    3.1795   11.0763 Du        2 SUP2    0.0000
     31 H19       -1.0659    3.0905   10.4644 Du        2 SUP2    0.0000
@<TRIPOS>BOND
     1    1    2 1
     2    3    4 1
     3    5    6 1
     4    6   12 1
     5    7    1 1
     6    8    7 1
     7    9    7 1
     8   10    3 1
     9   11   10 1
    10   12   10 1
    11   13   12 1
    12   14   12 1
    13   15    6 1
    14   16   15 1
    15   17   15 1
    16   18   15 1
    17   19   18 1
    18   20   18 1
    19   21   18 1
    20   22    6 1
    21   23   22 1
    22   24   22 1
    23   25   22 1
    24   26   25 1
    25   27   25 1
    26   28   25 1
    27    7   10 1
@<TRIPOS>SUBSTRUCTURE
     1 RES1 1
     2 SUP2 29

@<TRIPOS>CRYSIN
   5.6142   12.7026   12.0019  90.0000  95.3410  90.0000 231 1

