# MOL2 file generated by ConQuest
# Please check atom types

@<TRIPOS>MOLECULE
NUYQEE
    24    23     1
SMALL
NO_CHARGES
****
Generated from CSD

@<TRIPOS>ATOM
      1 O1        13.5785    1.0639    4.8800 O.3       1 RES1    0.0000
      2 O2         9.3822   -0.3580    3.8235 O.3       1 RES1    0.0000
      3 O3        12.2478    2.8515    4.7038 O.2       1 RES1    0.0000
      4 O4        11.5170   -1.5193    2.1566 O.2       1 RES1    0.0000
      5 O5         9.2834    0.6475    5.8326 O.2       1 RES1    0.0000
      6 N1        11.7401   -0.0626    3.8133 N.3       1 RES1    0.0000
      7 C1        10.4794    0.4884    3.4377 C.3       1 RES1    0.0000
      8 H1        10.4605    0.6187    2.4564 H         1 RES1    0.0000
      9 H2        10.3718    1.3754    3.8638 H         1 RES1    0.0000
     10 O6        13.3379   -1.5261    3.3503 O.2       1 RES1    0.0000
     11 C2        13.3544    2.3894    4.7864 C.2       1 RES1    0.0000
     12 N2        12.2229   -1.1054    3.0594 N.pl3     1 RES1    0.0000
     13 C3        12.4189    0.2277    5.0514 C.3       1 RES1    0.0000
     14 H3        11.7867    0.6763    5.6667 H         1 RES1    0.0000
     15 H4        12.6973   -0.6246    5.4727 H         1 RES1    0.0000
     16 C4         8.8888   -0.2014    5.0862 C.2       1 RES1    0.0000
     17 C5        14.6180    3.1799    4.8151 C.3       1 RES1    0.0000
     18 H5        15.3817    2.5714    4.8868 H         1 RES1    0.0000
     19 H6        14.6076    3.7843    5.5875 H         1 RES1    0.0000
     20 H7        14.6943    3.7047    3.9909 H         1 RES1    0.0000
     21 C6         7.8466   -1.2053    5.3662 C.3       1 RES1    0.0000
     22 H8         7.7167   -1.7707    4.5768 H         1 RES1    0.0000
     23 H9         7.0066   -0.7508    5.5847 H         1 RES1    0.0000
     24 H10        8.1230   -1.7614    6.1242 H         1 RES1    0.0000
@<TRIPOS>BOND
     1    1   11 1
     2    2    7 1
     3    3   11 2
     4    4   12 2
     5    5   16 2
     6    6    7 1
     7    7    8 1
     8    9    7 1
     9   10   12 2
    10   11   17 1
    11   12    6 1
    12   13    1 1
    13   14   13 1
    14   15   13 1
    15   16    2 1
    16   17   18 1
    17   19   17 1
    18   20   17 1
    19   21   16 1
    20   22   21 1
    21   23   21 1
    22   24   21 1
    23    6   13 1
@<TRIPOS>SUBSTRUCTURE
     1 RES1 1

@<TRIPOS>CRYSIN
  15.8890    8.4640    6.8680  90.0000  96.1110  90.0000  14 1

