# MOL2 file generated by ConQuest
# Please check atom types

@<TRIPOS>MOLECULE
NUZCIW
    98    98     2
SMALL
NO_CHARGES
****
Generated from CSD

@<TRIPOS>ATOM
      1 C1        -2.1258  -17.4804  -14.0357 C.ar      1 RES1    0.0000
      2 C2        -2.9814  -16.5056  -13.5441 C.ar      1 RES1    0.0000
      3 C3        -2.8618  -15.2064  -14.0209 C.ar      1 RES1    0.0000
      4 H1        -3.4291  -14.5498  -13.6875 H         1 RES1    0.0000
      5 C4        -1.9240  -14.8589  -14.9786 C.ar      1 RES1    0.0000
      6 C5        -1.0972  -15.8398  -15.4543 C.ar      1 RES1    0.0000
      7 H2        -0.4598  -15.6325  -16.0987 H         1 RES1    0.0000
      8 C6        -1.2037  -17.1592  -14.9747 C.ar      1 RES1    0.0000
      9 H3        -0.6354  -17.8160  -15.3062 H         1 RES1    0.0000
     10 C7        -1.8280  -13.4364  -15.4967 C.3       1 RES1    0.0000
     11 H4        -1.9690  -12.8200  -14.7606 H         1 RES1    0.0000
     12 H5        -0.9358  -13.2840  -15.8441 H         1 RES1    0.0000
     13 C8        -2.8361  -13.1513  -16.5799 C.3       1 RES1    0.0000
     14 H6        -2.7344  -13.8228  -17.2705 H         1 RES1    0.0000
     15 H7        -3.7232  -13.2582  -16.2026 H         1 RES1    0.0000
     16 C9        -2.7659  -11.7989  -17.2294 C.2       1 RES1    0.0000
     17 C10       -3.7798  -11.4192  -18.2602 C.3       1 RES1    0.0000
     18 H8        -4.0325  -10.4921  -18.1279 H         1 RES1    0.0000
     19 H9        -4.5735  -11.9641  -18.1357 H         1 RES1    0.0000
     20 C11       -3.2775  -11.5945  -19.6871 C.3       1 RES1    0.0000
     21 H10       -2.4356  -11.1005  -19.7726 H         1 RES1    0.0000
     22 C12       -4.2553  -11.0340  -20.7160 C.3       1 RES1    0.0000
     23 H11       -3.9208  -11.2372  -21.6044 H         1 RES1    0.0000
     24 H12       -5.1066  -11.4872  -20.6144 H         1 RES1    0.0000
     25 C13       -4.4901   -9.5326  -20.6176 C.3       1 RES1    0.0000
     26 H13       -4.8796   -9.3321  -19.7518 H         1 RES1    0.0000
     27 H14       -3.6346   -9.0794  -20.6664 H         1 RES1    0.0000
     28 C14       -5.3960   -8.9853  -21.6969 C.3       1 RES1    0.0000
     29 H15       -6.2416   -9.4584  -21.6641 H         1 RES1    0.0000
     30 H16       -4.9934   -9.1619  -22.5605 H         1 RES1    0.0000
     31 C15       -5.6686   -7.4914  -21.5828 C.3       1 RES1    0.0000
     32 H17       -6.0870   -7.3110  -20.7262 H         1 RES1    0.0000
     33 H18       -4.8256   -7.0119  -21.6096 H         1 RES1    0.0000
     34 C16       -6.5540   -6.9846  -22.6761 C.3       1 RES1    0.0000
     35 H19       -6.6385   -6.0323  -22.6021 H         1 RES1    0.0000
     36 H20       -7.4206   -7.3909  -22.5995 H         1 RES1    0.0000
     37 H21       -6.1703   -7.2079  -23.5271 H         1 RES1    0.0000
     38 C17       -4.7554  -16.0117  -12.0135 C.3       1 RES1    0.0000
     39 H22       -5.3467  -16.4652  -11.4089 H         1 RES1    0.0000
     40 H23       -5.2676  -15.5938  -12.7080 H         1 RES1    0.0000
     41 H24       -4.2605  -15.3438  -11.5336 H         1 RES1    0.0000
     42 N1        -1.8112  -11.0260  -16.8631 N.2       1 RES1    0.0000
     43 O1        -2.1992  -18.7740  -13.5561 O.3       1 RES1    0.0000
     44 H25       -2.9861  -18.9941  -13.4823 H         1 RES1    0.0000
     45 O2        -3.8574  -16.9442  -12.5846 O.3       1 RES1    0.0000
     46 O3        -1.8202   -9.7873  -17.5477 O.3       1 RES1    0.0000
     47 H26       -1.2157   -9.3114  -17.2627 H         1 RES1    0.0000
     48 O4        -3.0039  -12.9793  -19.9495 O.3       1 RES1    0.0000
     49 H27       -3.7022  -13.4078  -19.9129 H         1 RES1    0.0000
     50 C18        0.5295   -2.6274  -18.4428 C.ar      2 RES2    0.0000
     51 C19        1.4359   -3.5550  -18.9557 C.ar      2 RES2    0.0000
     52 C20        1.3793   -4.8741  -18.5426 C.ar      2 RES2    0.0000
     53 H28        1.9874   -5.4910  -18.8814 H         2 RES2    0.0000
     54 C21        0.4141   -5.2904  -17.6166 C.ar      2 RES2    0.0000
     55 C22       -0.4765   -4.3634  -17.1398 C.ar      2 RES2    0.0000
     56 H29       -1.1318   -4.6274  -16.5352 H         2 RES2    0.0000
     57 C23       -0.4178   -3.0363  -17.5438 C.ar      2 RES2    0.0000
     58 H30       -1.0259   -2.4207  -17.2003 H         2 RES2    0.0000
     59 C24        0.3670   -6.7400  -17.1551 C.3       2 RES2    0.0000
     60 H31       -0.5373   -6.9552  -16.8782 H         2 RES2    0.0000
     61 H32        0.5945   -7.3161  -17.9019 H         2 RES2    0.0000
     62 C25        1.3085   -7.0171  -16.0143 C.3       2 RES2    0.0000
     63 H33        1.1481   -6.3572  -15.3218 H         2 RES2    0.0000
     64 H34        2.2154   -6.8882  -16.3325 H         2 RES2    0.0000
     65 C26        1.2220   -8.3883  -15.3842 C.2       2 RES2    0.0000
     66 C27        2.2160   -8.7528  -14.3145 C.3       2 RES2    0.0000
     67 H35        3.0626   -8.3267  -14.5216 H         2 RES2    0.0000
     68 H36        2.3575   -9.7110  -14.3371 H         2 RES2    0.0000
     69 C28        1.8023   -8.3545  -12.8935 C.3       2 RES2    0.0000
     70 H37        2.5331   -8.5974  -12.2871 H         2 RES2    0.0000
     71 C29        0.5421   -9.0170  -12.3894 C.3       2 RES2    0.0000
     72 H38       -0.1421   -8.9454  -13.0743 H         2 RES2    0.0000
     73 H39        0.2280   -8.5355  -11.6089 H         2 RES2    0.0000
     74 C30        0.7145  -10.4782  -12.0234 C.3       2 RES2    0.0000
     75 H40        1.0207  -10.9639  -12.8041 H         2 RES2    0.0000
     76 H41        1.3987  -10.5540  -11.3387 H         2 RES2    0.0000
     77 C31       -0.5599  -11.1137  -11.5159 C.3       2 RES2    0.0000
     78 H42       -0.8676  -10.6236  -10.7385 H         2 RES2    0.0000
     79 H43       -1.2424  -11.0387  -12.2013 H         2 RES2    0.0000
     80 C32       -0.3958  -12.5658  -11.1446 C.3       2 RES2    0.0000
     81 H44       -0.0765  -13.0494  -11.9233 H         2 RES2    0.0000
     82 H45        0.2852  -12.6344  -10.4579 H         2 RES2    0.0000
     83 C33       -1.6461  -13.2301  -10.6473 C.3       2 RES2    0.0000
     84 H46       -1.9622  -12.7736   -9.8655 H         2 RES2    0.0000
     85 H47       -1.4569  -14.1450  -10.4293 H         2 RES2    0.0000
     86 H48       -2.3192  -13.1964  -11.3309 H         2 RES2    0.0000
     87 C34        3.1491   -3.9558  -20.5542 C.3       2 RES2    0.0000
     88 H49        3.7006   -4.4263  -19.9233 H         2 RES2    0.0000
     89 H50        3.7064   -3.4802  -21.1731 H         2 RES2    0.0000
     90 H51        2.6029   -4.5835  -21.0328 H         2 RES2    0.0000
     91 N2         0.3083   -9.1666  -15.8347 N.2       2 RES2    0.0000
     92 O5         0.5195   -1.3207  -18.8786 O.3       2 RES2    0.0000
     93 H52        1.2791   -1.0982  -19.0919 H         2 RES2    0.0000
     94 O6         2.3219   -3.0409  -19.8648 O.3       2 RES2    0.0000
     95 O7         0.3014  -10.4341  -15.2062 O.3       2 RES2    0.0000
     96 H53       -0.3166  -10.8840  -15.5037 H         2 RES2    0.0000
     97 O8         1.6052   -6.9356  -12.7992 O.3       2 RES2    0.0000
     98 H54        2.3103   -6.5505  -12.9626 H         2 RES2    0.0000
@<TRIPOS>BOND
     1    1    2 ar
     2    2    3 ar
     3    3    4 1
     4    5    3 ar
     5    6    5 ar
     6    7    6 1
     7    8    1 ar
     8    9    8 1
     9   10    5 1
    10   11   10 1
    11   12   10 1
    12   13   10 1
    13   14   13 1
    14   15   13 1
    15   16   13 1
    16   17   16 1
    17   18   17 1
    18   19   17 1
    19   20   17 1
    20   21   20 1
    21   22   20 1
    22   23   22 1
    23   24   22 1
    24   25   22 1
    25   26   25 1
    26   27   25 1
    27   28   25 1
    28   29   28 1
    29   30   28 1
    30   31   28 1
    31   32   31 1
    32   33   31 1
    33   34   31 1
    34   35   34 1
    35   36   34 1
    36   37   34 1
    37   38   39 1
    38   40   38 1
    39   41   38 1
    40   42   16 2
    41   43    1 1
    42   44   43 1
    43   45    2 1
    44   46   42 1
    45   47   46 1
    46   48   20 1
    47   49   48 1
    48   50   51 ar
    49   51   52 ar
    50   52   53 1
    51   54   52 ar
    52   55   54 ar
    53   56   55 1
    54   57   50 ar
    55   58   57 1
    56   59   54 1
    57   60   59 1
    58   61   59 1
    59   62   59 1
    60   63   62 1
    61   64   62 1
    62   65   62 1
    63   66   65 1
    64   67   66 1
    65   68   66 1
    66   69   66 1
    67   70   69 1
    68   71   69 1
    69   72   71 1
    70   73   71 1
    71   74   71 1
    72   75   74 1
    73   76   74 1
    74   77   74 1
    75   78   77 1
    76   79   77 1
    77   80   77 1
    78   81   80 1
    79   82   80 1
    80   83   80 1
    81   84   83 1
    82   85   83 1
    83   86   83 1
    84   87   88 1
    85   89   87 1
    86   90   87 1
    87   91   65 2
    88   92   50 1
    89   93   92 1
    90   94   51 1
    91   95   91 1
    92   96   95 1
    93   97   69 1
    94   98   97 1
    95    6    8 ar
    96   38   45 1
    97   55   57 ar
    98   87   94 1
@<TRIPOS>SUBSTRUCTURE
     1 RES1 1
     2 RES2 50

@<TRIPOS>CRYSIN
   5.2424   25.7792   25.9824  90.0000  90.0000  90.0000  19 1

