# MOL2 file generated by ConQuest
# Please check atom types

@<TRIPOS>MOLECULE
NXENAM
    16    15     1
SMALL
NO_CHARGES
****
Generated from CSD

@<TRIPOS>ATOM
      1 C1         9.9620    3.9262    4.0380 C.3       1 RES1    0.0000
      2 C2         8.6837    3.4773    3.3525 C.3       1 RES1    0.0000
      3 C3         8.3615    1.3114    2.0352 C.3       1 RES1    0.0000
      4 C4         9.6443    1.3170    1.2346 C.3       1 RES1    0.0000
      5 N1        12.3021    3.6498    3.7069 N.pl3     1 RES1    0.0000
      6 N2         8.5195    2.0163    3.3102 N.pl3     1 RES1    0.0000
      7 N3         8.0745    1.4165    4.4428 N.pl3     1 RES1    0.0000
      8 N4        11.8555    0.4520    1.3810 N.pl3     1 RES1    0.0000
      9 O1        13.1645    3.1416    3.0295 O.2       1 RES1    0.0000
     10 O2        12.4049    4.2780    4.7194 O.2       1 RES1    0.0000
     11 O3        11.0269    3.4149    3.1971 O.3       1 RES1    0.0000
     12 O4         7.9917    2.1158    5.4473 O.2       1 RES1    0.0000
     13 O5         7.8167    0.2146    4.3984 O.2       1 RES1    0.0000
     14 O6        10.5804    0.4897    1.9685 O.3       1 RES1    0.0000
     15 O7        12.6305   -0.2022    2.0140 O.2       1 RES1    0.0000
     16 O8        12.0121    1.0567    0.3543 O.2       1 RES1    0.0000
@<TRIPOS>BOND
     1    1    2 1
     2    2    6 1
     3    3    4 1
     4    4   14 1
     5    5    9 2
     6    6    3 1
     7    7    6 1
     8    8   14 1
     9   10    5 2
    10   11    1 1
    11   12    7 2
    12   13    7 2
    13   15    8 2
    14   16    8 2
    15    5   11 1
@<TRIPOS>SUBSTRUCTURE
     1 RES1 1

@<TRIPOS>CRYSIN
  15.3450    6.1830   10.0950  90.0000  90.0000  90.0000  29 1

