# MOL2 file generated by ConQuest
# Please check atom types

@<TRIPOS>MOLECULE
OAZCBM
    25    28     1
SMALL
NO_CHARGES
****
Generated from CSD

@<TRIPOS>ATOM
      1 C1         6.5801   -0.5254    9.5531 C.2       1 RES1    0.0000
      2 N1         5.7225    0.3477    9.1925 N.2       1 RES1    0.0000
      3 O1         5.0116    0.7484   10.3337 O.3       1 RES1    0.0000
      4 C2         5.6888    0.1984   11.4977 C.3       1 RES1    0.0000
      5 C3         4.7038   -0.6765   12.3063 C.3       1 RES1    0.0000
      6 C4         4.8226   -2.0325   11.6605 C.3       1 RES1    0.0000
      7 O2         6.2413   -2.1137   11.2736 O.3       1 RES1    0.0000
      8 N2         6.6853   -0.7512   10.9428 N.3       1 RES1    0.0000
      9 N3         3.9524   -2.2394   10.5193 N.am      1 RES1    0.0000
     10 C5         3.5094   -3.4999   10.2602 C.2       1 RES1    0.0000
     11 O3         3.7937   -4.4892   10.8868 O.2       1 RES1    0.0000
     12 O4         2.6890   -3.4820    9.1890 O.3       1 RES1    0.0000
     13 C6         2.1394   -4.7585    8.7987 C.3       1 RES1    0.0000
     14 C7         6.3478    1.3153   12.2678 C.ar      1 RES1    0.0000
     15 C8         6.0718    2.6325   12.0315 C.ar      1 RES1    0.0000
     16 C9         6.6998    3.6256   12.7842 C.ar      1 RES1    0.0000
     17 C10        7.6229    3.2835   13.7626 C.ar      1 RES1    0.0000
     18 C11        7.9064    1.9635   13.9936 C.ar      1 RES1    0.0000
     19 C12        7.2847    0.9666   13.2620 C.ar      1 RES1    0.0000
     20 C13        7.4795   -1.2010    8.5922 C.ar      1 RES1    0.0000
     21 C14        8.7536   -1.5865    9.0035 C.ar      1 RES1    0.0000
     22 C15        9.6255   -2.1629    8.0829 C.ar      1 RES1    0.0000
     23 C16        9.2233   -2.3708    6.7981 C.ar      1 RES1    0.0000
     24 C17        7.9330   -2.0013    6.3851 C.ar      1 RES1    0.0000
     25 C18        7.0856   -1.4126    7.2795 C.ar      1 RES1    0.0000
@<TRIPOS>BOND
     1    1    2 2
     2    2    3 1
     3    3    4 1
     4    4    5 1
     5    5    6 1
     6    6    7 1
     7    7    8 1
     8    8    1 1
     9    9    6 1
    10   10    9 1
    11   11   10 2
    12   12   10 1
    13   13   12 1
    14   14    4 1
    15   15   14 ar
    16   16   15 ar
    17   17   16 ar
    18   18   17 ar
    19   19   14 ar
    20   20    1 1
    21   21   20 ar
    22   22   21 ar
    23   23   22 ar
    24   24   23 ar
    25   25   20 ar
    26    4    8 1
    27   18   19 ar
    28   24   25 ar
@<TRIPOS>SUBSTRUCTURE
     1 RES1 1

@<TRIPOS>CRYSIN
  10.1160    9.4490   17.5620  90.0000  94.7000  90.0000  14 1

