# MOL2 file generated by ConQuest
# Please check atom types

@<TRIPOS>MOLECULE
OBABOL
    40    46     1
SMALL
NO_CHARGES
****
Generated from CSD

@<TRIPOS>ATOM
      1 N1        13.9624    2.7400   10.2454 N.pl3     1 RES1    0.0000
      2 N2        12.4660    5.3521    5.1644 N.pl3     1 RES1    0.0000
      3 N3        10.1628   10.3128   10.8480 N.pl3     1 RES1    0.0000
      4 O1         9.2669   10.8999   10.2882 O.2       1 RES1    0.0000
      5 O2        10.8361   10.8199   11.7223 O.2       1 RES1    0.0000
      6 C1        12.4516    6.8604    6.8211 C.ar      1 RES1    0.0000
      7 C2        12.0148    5.5981    7.3452 C.2       1 RES1    0.0000
      8 C3        11.6505    5.2204    8.7804 C.3       1 RES1    0.0000
      9 C4        11.1675    6.4605    9.5093 C.ar      1 RES1    0.0000
     10 C5        12.7828    4.4674    9.4343 C.2       1 RES1    0.0000
     11 C6        12.0300    4.7240    6.3066 C.2       1 RES1    0.0000
     12 C7        11.6036    2.2112    9.9214 C.ar      1 RES1    0.0000
     13 C8        12.7010    6.6617    5.4466 C.ar      1 RES1    0.0000
     14 C9        14.1501    4.8684    9.5665 C.ar      1 RES1    0.0000
     15 C10       10.0570    7.1253    8.9876 C.ar      1 RES1    0.0000
     16 C11       11.6716    3.3006    6.2220 C.ar      1 RES1    0.0000
     17 C12       10.4576    8.9422   10.4478 C.ar      1 RES1    0.0000
     18 C13        9.6987    8.3728    9.4426 C.ar      1 RES1    0.0000
     19 C14       12.7102    3.1628    9.8559 C.2       1 RES1    0.0000
     20 C15       11.8339    7.0150   10.5908 C.ar      1 RES1    0.0000
     21 C16       14.8568    3.7683   10.0786 C.ar      1 RES1    0.0000
     22 C17       11.4913    8.2787   11.0636 C.ar      1 RES1    0.0000
     23 C18       14.8616    6.0413    9.3068 C.ar      1 RES1    0.0000
     24 C19       12.6371    8.1495    7.3392 C.ar      1 RES1    0.0000
     25 C20       11.7613    0.9460    9.3711 C.ar      1 RES1    0.0000
     26 C21       10.4186    2.5246   10.5824 C.ar      1 RES1    0.0000
     27 C22       16.2185    3.7932   10.3383 C.ar      1 RES1    0.0000
     28 C23       10.3893    2.8677    6.5174 C.ar      1 RES1    0.0000
     29 C24       16.2204    6.0833    9.5712 C.ar      1 RES1    0.0000
     30 C25       13.0266    9.1697    6.4971 C.ar      1 RES1    0.0000
     31 C26       12.6132    2.3931    5.7444 C.ar      1 RES1    0.0000
     32 C27       13.0874    7.6913    4.5939 C.ar      1 RES1    0.0000
     33 C28       16.8857    4.9671   10.0870 C.ar      1 RES1    0.0000
     34 C29       13.2363    8.9463    5.1310 C.ar      1 RES1    0.0000
     35 C30       10.7445    0.0034    9.4795 C.ar      1 RES1    0.0000
     36 C31       10.0460    1.5362    6.3495 C.ar      1 RES1    0.0000
     37 C32        9.4198    1.5752   10.6991 C.ar      1 RES1    0.0000
     38 C33       10.9761    0.6410    5.8492 C.ar      1 RES1    0.0000
     39 C34       12.2557    1.0660    5.5550 C.ar      1 RES1    0.0000
     40 C35        9.5794    0.3139   10.1453 C.ar      1 RES1    0.0000
@<TRIPOS>BOND
     1    1   19 1
     2    2   11 1
     3    3    4 2
     4    5    3 2
     5    6    7 1
     6    7    8 1
     7    8    9 1
     8    9   15 ar
     9   10    8 1
    10   11    7 2
    11   12   19 1
    12   13    2 1
    13   14   10 1
    14   15   18 ar
    15   16   11 1
    16   17    3 1
    17   18   17 ar
    18   19   10 2
    19   20    9 ar
    20   21    1 1
    21   22   17 ar
    22   23   14 ar
    23   24    6 ar
    24   25   12 ar
    25   26   12 ar
    26   27   21 ar
    27   28   16 ar
    28   29   23 ar
    29   30   24 ar
    30   31   16 ar
    31   32   13 ar
    32   33   27 ar
    33   34   30 ar
    34   35   25 ar
    35   36   28 ar
    36   37   26 ar
    37   38   36 ar
    38   39   31 ar
    39   40   35 ar
    40    6   13 ar
    41   14   21 ar
    42   20   22 ar
    43   29   33 ar
    44   32   34 ar
    45   37   40 ar
    46   38   39 ar
@<TRIPOS>SUBSTRUCTURE
     1 RES1 1

@<TRIPOS>CRYSIN
   9.8997   12.0050   12.9633  89.6050  68.3510  68.1510   2 1

