# MOL2 file generated by ConQuest
# Please check atom types

@<TRIPOS>MOLECULE
OBADUT
    30    32     1
SMALL
NO_CHARGES
****
Generated from CSD

@<TRIPOS>ATOM
      1 O1        11.3274    0.3678   17.4072 O.3       1 RES1    0.0000
      2 O2         8.3359    3.2169   18.3810 O.3       1 RES1    0.0000
      3 N1        10.8927    0.2561   16.1020 N.pl3     1 RES1    0.0000
      4 O3         7.8150    3.1191   16.2043 O.2       1 RES1    0.0000
      5 C1         9.8596    1.0799   15.8539 C.2       1 RES1    0.0000
      6 C2        11.5088   -0.6106   15.2226 C.ar      1 RES1    0.0000
      7 C3         9.5615    1.7821   17.0216 C.2       1 RES1    0.0000
      8 O4        10.6726    1.5846   19.1868 O.2       1 RES1    0.0000
      9 C4         9.8783    0.2228   13.6264 C.2       1 RES1    0.0000
     10 H1         9.5258    0.2075   12.7660 H         1 RES1    0.0000
     11 C5         8.5030    2.7552   17.1390 C.2       1 RES1    0.0000
     12 C6        10.9696   -0.6292   13.9352 C.ar      1 RES1    0.0000
     13 C7         9.3303    1.0623   14.5454 C.2       1 RES1    0.0000
     14 H2         8.6187    1.6151   14.3152 H         1 RES1    0.0000
     15 C8        10.4539    1.3552   18.0317 C.2       1 RES1    0.0000
     16 C9        11.5522   -1.5025   12.9994 C.ar      1 RES1    0.0000
     17 H3        11.2266   -1.5374   12.1295 H         1 RES1    0.0000
     18 C10       12.5902   -1.4057   15.5915 C.ar      1 RES1    0.0000
     19 H4        12.9427   -1.3647   16.4514 H         1 RES1    0.0000
     20 C11       13.1222   -2.2514   14.6513 C.ar      1 RES1    0.0000
     21 H5        13.8397   -2.7976   14.8749 H         1 RES1    0.0000
     22 C12        7.2286    4.1485   18.5721 C.3       1 RES1    0.0000
     23 H6         7.3525    4.9293   18.0092 H         1 RES1    0.0000
     24 H7         6.3927    3.7239   18.3248 H         1 RES1    0.0000
     25 C13       12.5971   -2.2991   13.3717 C.ar      1 RES1    0.0000
     26 H8        12.9641   -2.8863   12.7506 H         1 RES1    0.0000
     27 C14        7.1898    4.5463   19.9713 C.3       1 RES1    0.0000
     28 H9         6.4671    5.1635   20.1078 H         1 RES1    0.0000
     29 H10        8.0191    4.9670   20.2085 H         1 RES1    0.0000
     30 H11        7.0565    3.7707   20.5207 H         1 RES1    0.0000
@<TRIPOS>BOND
     1    1    3 1
     2    2   11 1
     3    3    5 1
     4    4   11 2
     5    5    7 2
     6    6    3 1
     7    7   11 1
     8    8   15 2
     9    9   10 1
    10   12    6 ar
    11   13    5 1
    12   14   13 1
    13   15    1 1
    14   16   12 ar
    15   17   16 1
    16   18    6 ar
    17   19   18 1
    18   20   18 ar
    19   21   20 1
    20   22    2 1
    21   23   22 1
    22   24   22 1
    23   25   16 ar
    24   26   25 1
    25   27   22 1
    26   28   27 1
    27   29   27 1
    28   30   27 1
    29    7   15 1
    30    9   12 1
    31    9   13 2
    32   20   25 ar
@<TRIPOS>SUBSTRUCTURE
     1 RES1 1

@<TRIPOS>CRYSIN
  14.6150    4.7700   17.0920  90.0000  93.3820  90.0000  14 1

