# MOL2 file generated by ConQuest
# Please check atom types

@<TRIPOS>MOLECULE
OBAFUU
    82    84     2
SMALL
NO_CHARGES
****
Generated from CSD

@<TRIPOS>ATOM
      1 C1        -6.5006    5.3575    5.5429 C.ar      1 RES1    0.0000
      2 C2        -7.6514    5.4888    6.2807 C.ar      1 RES1    0.0000
      3 H1        -8.3912    4.9580    6.0941 H         1 RES1    0.0000
      4 C3        -7.7003    6.4220    7.3074 C.ar      1 RES1    0.0000
      5 H2        -8.4786    6.5212    7.8064 H         1 RES1    0.0000
      6 C4        -6.5938    7.2057    7.5900 C.ar      1 RES1    0.0000
      7 C5        -5.4509    7.0716    6.7999 C.ar      1 RES1    0.0000
      8 H3        -4.7149    7.6178    6.9577 H         1 RES1    0.0000
      9 C6        -5.4026    6.1482    5.7988 C.ar      1 RES1    0.0000
     10 H4        -4.6302    6.0518    5.2892 H         1 RES1    0.0000
     11 C7        -7.5831    8.6558    9.3214 C.2       1 RES1    0.0000
     12 C8        -7.1998    9.5722   10.4696 C.3       1 RES1    0.0000
     13 C9        -8.4920   10.2582   10.9462 C.2       1 RES1    0.0000
     14 C10       -8.5394   11.6482   10.3822 C.3       1 RES1    0.0000
     15 H5        -9.0147   11.6636    9.5368 H         1 RES1    0.0000
     16 H6        -8.9720   12.2587   10.9995 H         1 RES1    0.0000
     17 C11       -7.1144   12.0016   10.1956 C.3       1 RES1    0.0000
     18 H7        -6.7889   12.4794   10.9750 H         1 RES1    0.0000
     19 H8        -7.0166   12.5786    9.4216 H         1 RES1    0.0000
     20 C12       -6.3329   10.7597   10.0016 C.3       1 RES1    0.0000
     21 H9        -5.5128   10.7974   10.5187 H         1 RES1    0.0000
     22 H10       -6.1013   10.6549    9.0666 H         1 RES1    0.0000
     23 C13       -6.5826    8.6838   11.5657 C.3       1 RES1    0.0000
     24 H11       -7.1806    7.9392   11.7341 H         1 RES1    0.0000
     25 H12       -5.7465    8.3205   11.2351 H         1 RES1    0.0000
     26 C14       -6.3182    9.3878   12.8600 C.3       1 RES1    0.0000
     27 H13       -5.9132   10.2484   12.6670 H         1 RES1    0.0000
     28 H14       -7.1668    9.5555   13.2992 H         1 RES1    0.0000
     29 C15       -5.4374    8.6502   13.7971 C.2       1 RES1    0.0000
     30 C16       -5.2012    9.2942   15.1000 C.3       1 RES1    0.0000
     31 H15       -6.0240    9.3348   15.5915 H         1 RES1    0.0000
     32 H16       -4.8676   10.1841   14.9614 H         1 RES1    0.0000
     33 H17       -4.5561    8.7857   15.5968 H         1 RES1    0.0000
     34 C17       -1.3415   11.9932    6.2839 C.ar      2 RES2    0.0000
     35 C18       -0.2205   11.1760    6.3628 C.ar      2 RES2    0.0000
     36 H18        0.5405   11.3716    5.8660 H         2 RES2    0.0000
     37 C19       -0.2530   10.0794    7.1816 C.ar      2 RES2    0.0000
     38 H19        0.4956    9.5317    7.2531 H         2 RES2    0.0000
     39 C20       -1.4071    9.7818    7.9109 C.ar      2 RES2    0.0000
     40 C21       -2.5182   10.5976    7.8075 C.ar      2 RES2    0.0000
     41 H20       -3.2899   10.3965    8.2872 H         2 RES2    0.0000
     42 C22       -2.4849   11.7124    6.9897 C.ar      2 RES2    0.0000
     43 H21       -3.2277   12.2671    6.9204 H         2 RES2    0.0000
     44 C23       -2.3683    7.9992    9.3704 C.2       2 RES2    0.0000
     45 C24       -1.9775    6.6902   10.0677 C.3       2 RES2    0.0000
     46 C25       -1.3731    5.7040    9.0474 C.2       2 RES2    0.0000
     47 C26       -2.2721    4.5221    8.8992 C.3       2 RES2    0.0000
     48 H22       -2.5442    4.4103    7.9748 H         2 RES2    0.0000
     49 H23       -1.8292    3.7118    9.1977 H         2 RES2    0.0000
     50 C27       -3.4007    4.8252    9.7319 C.3       2 RES2    0.0000
     51 H24       -4.1711    4.9789    9.1636 H         2 RES2    0.0000
     52 H25       -3.5933    4.0513   10.2841 H         2 RES2    0.0000
     53 C28       -3.2284    5.9498   10.5741 C.3       2 RES2    0.0000
     54 H26       -3.1045    5.6676   11.4942 H         2 RES2    0.0000
     55 H27       -4.0051    6.5282   10.5294 H         2 RES2    0.0000
     56 C29       -0.9192    6.9124   11.1690 C.3       2 RES2    0.0000
     57 H28       -0.6887    6.0504   11.5497 H         2 RES2    0.0000
     58 H29       -0.1183    7.2700   10.7543 H         2 RES2    0.0000
     59 C30       -1.3216    7.8330   12.2928 C.3       2 RES2    0.0000
     60 H30       -1.3799    8.7410   11.9537 H         2 RES2    0.0000
     61 H31       -2.2022    7.5787   12.6116 H         2 RES2    0.0000
     62 C31       -0.3505    7.7981   13.4442 C.2       2 RES2    0.0000
     63 C32       -0.4313    8.9198   14.4635 C.3       2 RES2    0.0000
     64 H32        0.0987    8.6935   15.2311 H         2 RES2    0.0000
     65 H33       -1.3456    9.0442   14.7321 H         2 RES2    0.0000
     66 H34       -0.1006    9.7315   14.0733 H         2 RES2    0.0000
     67 N1        -6.4427    4.3307    4.5184 N.pl3     1 RES1    0.0000
     68 N2        -6.5405    8.1166    8.6519 N.am      1 RES1    0.0000
     69 H35       -5.7565    8.3610    8.9067 H         1 RES1    0.0000
     70 N3        -1.3084   13.1402    5.3852 N.pl3     2 RES2    0.0000
     71 N4        -1.3413    8.6265    8.7276 N.am      2 RES2    0.0000
     72 H36       -0.5612    8.2786    8.8310 H         2 RES2    0.0000
     73 O1        -5.4039    4.1700    3.9064 O.2       1 RES1    0.0000
     74 O2        -7.4384    3.6853    4.2657 O.2       1 RES1    0.0000
     75 O3        -8.7420    8.4141    9.0474 O.2       1 RES1    0.0000
     76 O4        -9.2817    9.7399   11.6808 O.2       1 RES1    0.0000
     77 O5        -4.8890    7.6137   13.4837 O.2       1 RES1    0.0000
     78 O6        -2.2929   13.8778    5.3617 O.2       2 RES2    0.0000
     79 O7        -0.3101   13.3176    4.6890 O.2       2 RES2    0.0000
     80 O8        -3.5080    8.4323    9.3864 O.2       2 RES2    0.0000
     81 O9        -0.3012    5.8381    8.5058 O.2       2 RES2    0.0000
     82 O10        0.4224    6.8802   13.5743 O.2       2 RES2    0.0000
@<TRIPOS>BOND
     1    1    2 ar
     2    2    3 1
     3    4    2 ar
     4    5    4 1
     5    6    4 ar
     6    7    6 ar
     7    8    7 1
     8    9    1 ar
     9   10    9 1
    10   11   12 1
    11   12   13 1
    12   13   14 1
    13   14   15 1
    14   16   14 1
    15   17   14 1
    16   18   17 1
    17   19   17 1
    18   20   12 1
    19   21   20 1
    20   22   20 1
    21   23   12 1
    22   24   23 1
    23   25   23 1
    24   26   23 1
    25   27   26 1
    26   28   26 1
    27   29   26 1
    28   30   29 1
    29   31   30 1
    30   32   30 1
    31   33   30 1
    32   34   35 ar
    33   35   36 1
    34   37   35 ar
    35   38   37 1
    36   39   37 ar
    37   40   39 ar
    38   41   40 1
    39   42   34 ar
    40   43   42 1
    41   44   45 1
    42   45   46 1
    43   46   47 1
    44   47   48 1
    45   49   47 1
    46   50   47 1
    47   51   50 1
    48   52   50 1
    49   53   45 1
    50   54   53 1
    51   55   53 1
    52   56   45 1
    53   57   56 1
    54   58   56 1
    55   59   56 1
    56   60   59 1
    57   61   59 1
    58   62   59 1
    59   63   62 1
    60   64   63 1
    61   65   63 1
    62   66   63 1
    63   67    1 1
    64   68    6 1
    65   69   68 1
    66   70   34 1
    67   71   39 1
    68   72   71 1
    69   73   67 2
    70   74   67 2
    71   75   11 2
    72   76   13 2
    73   77   29 2
    74   78   70 2
    75   79   70 2
    76   80   44 2
    77   81   46 2
    78   82   62 2
    79    7    9 ar
    80   11   68 1
    81   17   20 1
    82   40   42 ar
    83   44   71 1
    84   50   53 1
@<TRIPOS>SUBSTRUCTURE
     1 RES1 1
     2 RES2 34

@<TRIPOS>CRYSIN
  10.5090   13.9700   10.9420  90.0000 103.0000  90.0000   4 1

