# MOL2 file generated by ConQuest
# Please check atom types

@<TRIPOS>MOLECULE
OBAJUY
    33    35     1
SMALL
NO_CHARGES
****
Generated from CSD

@<TRIPOS>ATOM
      1 O1         2.6351    5.5044    2.6265 O.3       1 RES1    0.0000
      2 O2         4.5735    6.0361    4.1350 O.3       1 RES1    0.0000
      3 O3         2.6490    3.2943    3.1261 O.2       1 RES1    0.0000
      4 N1         4.3113    4.6437    3.8867 N.am      1 RES1    0.0000
      5 C1         5.0082    6.2162    5.5265 C.3       1 RES1    0.0000
      6 H1         5.0974    7.1764    5.6064 H         1 RES1    0.0000
      7 C2         3.1228    4.4073    3.2243 C.2       1 RES1    0.0000
      8 C3         1.4305    5.2577    1.8376 C.3       1 RES1    0.0000
      9 H2         1.5886    4.4741    1.2735 H         1 RES1    0.0000
     10 H3         0.6974    5.0757    2.4703 H         1 RES1    0.0000
     11 C4         4.5928    3.7971    5.0781 C.3       1 RES1    0.0000
     12 H4         4.3796    2.8876    4.8144 H         1 RES1    0.0000
     13 C5         3.7516    4.3181    6.2164 C.2       1 RES1    0.0000
     14 H5         3.0879    3.7930    6.6226 H         1 RES1    0.0000
     15 C6         3.9705    5.6440    6.4416 C.2       1 RES1    0.0000
     16 H6         3.5160    6.2029    7.0565 H         1 RES1    0.0000
     17 C7         6.3165    5.4557    5.6942 C.3       1 RES1    0.0000
     18 H7         7.0122    5.8478    5.1638 H         1 RES1    0.0000
     19 H8         6.6589    5.5998    6.5751 H         1 RES1    0.0000
     20 C8         6.0688    3.9901    5.3952 C.3       1 RES1    0.0000
     21 H9         6.5922    3.6456    4.6649 H         1 RES1    0.0000
     22 H10        6.3252    3.3642    6.1325 H         1 RES1    0.0000
     23 C9         1.1793    6.4815    1.0074 C.ar      1 RES1    0.0000
     24 C10        2.1087    6.8888    0.0513 C.ar      1 RES1    0.0000
     25 H11        2.9605    6.3869   -0.0330 H         1 RES1    0.0000
     26 C11        1.8556    8.0008   -0.7452 C.ar      1 RES1    0.0000
     27 H12        2.5314    8.2563   -1.4006 H         1 RES1    0.0000
     28 C12        0.6708    8.7065   -0.5946 C.ar      1 RES1    0.0000
     29 H13        0.4783    9.4936   -1.1560 H         1 RES1    0.0000
     30 C13       -0.2643    8.3002    0.3436 C.ar      1 RES1    0.0000
     31 H14       -1.1319    8.8123    0.4348 H         1 RES1    0.0000
     32 C14       -0.0071    7.1881    1.1484 C.ar      1 RES1    0.0000
     33 H15       -0.6761    6.9134    1.8559 H         1 RES1    0.0000
@<TRIPOS>BOND
     1    1    7 1
     2    2    4 1
     3    3    7 2
     4    4    7 1
     5    5    2 1
     6    6    5 1
     7    8    1 1
     8    9    8 1
     9   10    8 1
    10   11    4 1
    11   12   11 1
    12   13   11 1
    13   14   13 1
    14   15    5 1
    15   16   15 1
    16   17    5 1
    17   18   17 1
    18   19   17 1
    19   20   11 1
    20   21   20 1
    21   22   20 1
    22   23    8 1
    23   24   23 ar
    24   25   24 1
    25   26   24 ar
    26   27   26 1
    27   28   26 ar
    28   29   28 1
    29   30   28 ar
    30   31   30 1
    31   32   23 ar
    32   33   32 1
    33   13   15 2
    34   17   20 1
    35   30   32 ar
@<TRIPOS>SUBSTRUCTURE
     1 RES1 1

@<TRIPOS>CRYSIN
   6.0126   10.4102   10.6716  65.4530  88.4540  84.7120   2 1

