# MOL2 file generated by ConQuest
# Please check atom types

@<TRIPOS>MOLECULE
OBERAQ
   156   168     1
SMALL
NO_CHARGES
****
Generated from CSD

@<TRIPOS>ATOM
      1 C1         2.9811   14.2753    4.5816 C.3       1 RES1    0.0000
      2 H1         3.1567   15.1161    5.0739 H         1 RES1    0.0000
      3 H2         2.1658   14.4114    4.0377 H         1 RES1    0.0000
      4 C2         2.7106   13.1757    5.5881 C.ar      1 RES1    0.0000
      5 C3         2.6129   11.8313    5.2140 C.ar      1 RES1    0.0000
      6 C4         2.4458   10.8074    6.1606 C.ar      1 RES1    0.0000
      7 C5         2.2894   11.1699    7.4930 C.ar      1 RES1    0.0000
      8 H3         2.1557   10.5010    8.1544 H         1 RES1    0.0000
      9 C6         2.3295   12.4976    7.8526 C.ar      1 RES1    0.0000
     10 C7         2.5560   13.5012    6.9285 C.ar      1 RES1    0.0000
     11 H4         2.6054   14.4074    7.2094 H         1 RES1    0.0000
     12 N1         2.1778   12.8636    9.2729 N.pl3     1 RES1    0.0000
     13 O1         1.9945   11.9686   10.0873 O.2       1 RES1    0.0000
     14 O2         2.2348   14.0428    9.5724 O.2       1 RES1    0.0000
     15 O3         2.7169   11.4749    3.8813 O.3       1 RES1    0.0000
     16 C8         1.4749   11.6329    3.1511 C.3       1 RES1    0.0000
     17 H5         1.2142   12.5874    3.1313 H         1 RES1    0.0000
     18 H6         0.7531   11.1222    3.5959 H         1 RES1    0.0000
     19 C9         1.6758   11.1223    1.7415 C.3       1 RES1    0.0000
     20 H7         1.8942   10.1575    1.7638 H         1 RES1    0.0000
     21 H8         2.4326   11.6010    1.3184 H         1 RES1    0.0000
     22 C10        0.4071   11.3434    0.9282 C.3       1 RES1    0.0000
     23 H9        -0.3747   11.0419    1.4552 H         1 RES1    0.0000
     24 H10        0.2984   12.3102    0.7486 H         1 RES1    0.0000
     25 N2         0.4437   10.6207   -0.3379 N.am      1 RES1    0.0000
     26 C11        0.6946   11.2009   -1.5786 C.2       1 RES1    0.0000
     27 O4         0.9011   12.3683   -1.7783 O.2       1 RES1    0.0000
     28 C12        0.5950   10.0773   -2.5654 C.ar      1 RES1    0.0000
     29 C13        0.7647   10.0829   -3.9373 C.ar      1 RES1    0.0000
     30 H11        1.0163   10.8728   -4.4007 H         1 RES1    0.0000
     31 C14        0.5509    8.8827   -4.6117 C.ar      1 RES1    0.0000
     32 H12        0.6470    8.8541   -5.5560 H         1 RES1    0.0000
     33 C15        0.2024    7.7366   -3.9292 C.ar      1 RES1    0.0000
     34 H13        0.0475    6.9368   -4.4182 H         1 RES1    0.0000
     35 C16        0.0711    7.7199   -2.5385 C.ar      1 RES1    0.0000
     36 H14       -0.1375    6.9213   -2.0671 H         1 RES1    0.0000
     37 C17        0.2580    8.9185   -1.8823 C.ar      1 RES1    0.0000
     38 C18        0.1475    9.2578   -0.4308 C.2       1 RES1    0.0000
     39 O5        -0.1427    8.5546    0.5111 O.2       1 RES1    0.0000
     40 C19        2.3879    9.3566    5.7421 C.3       1 RES1    0.0000
     41 H15        1.5649    9.2186    5.2089 H         1 RES1    0.0000
     42 H16        2.3087    8.8010    6.5572 H         1 RES1    0.0000
     43 C20        3.5740    8.8513    4.9301 C.ar      1 RES1    0.0000
     44 C21        4.8700    8.8196    5.4654 C.ar      1 RES1    0.0000
     45 C22        5.9790    8.4434    4.6929 C.ar      1 RES1    0.0000
     46 C23        5.7583    7.9845    3.4057 C.ar      1 RES1    0.0000
     47 H17        6.4857    7.6851    2.8736 H         1 RES1    0.0000
     48 C24        4.4751    7.9649    2.8992 C.ar      1 RES1    0.0000
     49 C25        3.3879    8.4094    3.6299 C.ar      1 RES1    0.0000
     50 H18        2.5207    8.4121    3.2435 H         1 RES1    0.0000
     51 N3         4.2619    7.4809    1.5273 N.pl3     1 RES1    0.0000
     52 O6         3.1673    7.6657    1.0055 O.2       1 RES1    0.0000
     53 O7         5.1909    6.9039    0.9627 O.2       1 RES1    0.0000
     54 O8         5.0663    9.2098    6.7821 O.3       1 RES1    0.0000
     55 C26        5.0424    8.0933    7.7139 C.3       1 RES1    0.0000
     56 H19        5.6352    7.3689    7.3917 H         1 RES1    0.0000
     57 H20        4.1233    7.7355    7.7932 H         1 RES1    0.0000
     58 C27        5.5198    8.5963    9.0557 C.3       1 RES1    0.0000
     59 H21        6.4307    8.9713    8.9556 H         1 RES1    0.0000
     60 H22        5.5724    7.8361    9.6867 H         1 RES1    0.0000
     61 C28        4.6088    9.6567    9.6323 C.3       1 RES1    0.0000
     62 H23        4.4813   10.3746    8.9626 H         1 RES1    0.0000
     63 H24        3.7223    9.2558    9.8199 H         1 RES1    0.0000
     64 N4         5.1419   10.2393   10.8631 N.am      1 RES1    0.0000
     65 C29        5.0512    9.6417   12.1155 C.2       1 RES1    0.0000
     66 O9         4.5365    8.5658   12.3320 O.2       1 RES1    0.0000
     67 C30        5.6635   10.5938   13.0703 C.ar      1 RES1    0.0000
     68 C31        5.7437   10.5374   14.4476 C.ar      1 RES1    0.0000
     69 H25        5.4202    9.7908   14.9377 H         1 RES1    0.0000
     70 C32        6.3322   11.6485   15.0879 C.ar      1 RES1    0.0000
     71 H26        6.4023   11.6589   16.0352 H         1 RES1    0.0000
     72 C33        6.8089   12.7234   14.3549 C.ar      1 RES1    0.0000
     73 H27        7.2229   13.4462   14.8114 H         1 RES1    0.0000
     74 C34        6.6984   12.7720   12.9837 C.ar      1 RES1    0.0000
     75 H28        7.0146   13.5189   12.4901 H         1 RES1    0.0000
     76 C35        6.1119   11.6962   12.3534 C.ar      1 RES1    0.0000
     77 C36        5.7378   11.5033   10.9220 C.2       1 RES1    0.0000
     78 O10        5.8452   12.2520    9.9823 O.2       1 RES1    0.0000
     79 C37        7.3911    8.5529    5.2349 C.3       1 RES1    0.0000
     80 H29        7.4603    8.0146    6.0627 H         1 RES1    0.0000
     81 H30        8.0203    8.1697    4.5725 H         1 RES1    0.0000
     82 C38        7.8061    9.9789    5.5387 C.ar      1 RES1    0.0000
     83 C39        7.8311   10.9717    4.5500 C.ar      1 RES1    0.0000
     84 C40        8.0892   12.3047    4.8483 C.ar      1 RES1    0.0000
     85 C41        8.4563   12.6414    6.1509 C.ar      1 RES1    0.0000
     86 H31        8.6815   13.5373    6.3731 H         1 RES1    0.0000
     87 C42        8.4863   11.6495    7.1115 C.ar      1 RES1    0.0000
     88 C43        8.1474   10.3422    6.8384 C.ar      1 RES1    0.0000
     89 H32        8.1474    9.6936    7.5320 H         1 RES1    0.0000
     90 N5         8.8989   12.0061    8.4785 N.pl3     1 RES1    0.0000
     91 O11        8.7148   11.1824    9.3736 O.2       1 RES1    0.0000
     92 O12        9.4273   13.0928    8.6598 O.2       1 RES1    0.0000
     93 O13        7.5855   10.6274    3.2297 O.3       1 RES1    0.0000
     94 C44        8.7926   10.1457    2.5883 C.3       1 RES1    0.0000
     95 H33        9.2065    9.4425    3.1506 H         1 RES1    0.0000
     96 H34        9.4391   10.8900    2.5019 H         1 RES1    0.0000
     97 C45        8.4910    9.5825    1.2243 C.3       1 RES1    0.0000
     98 H35        7.7424    8.9400    1.3009 H         1 RES1    0.0000
     99 H36        9.2833    9.0854    0.8994 H         1 RES1    0.0000
    100 C46        8.1285   10.6385    0.2107 C.3       1 RES1    0.0000
    101 H37        7.1732   10.8779    0.3138 H         1 RES1    0.0000
    102 H38        8.6671   11.4523    0.3769 H         1 RES1    0.0000
    103 N6         8.3681   10.1663   -1.1587 N.am      1 RES1    0.0000
    104 C47        7.3682    9.8852   -2.0846 C.2       1 RES1    0.0000
    105 O14        6.1778   10.0402   -1.9039 O.2       1 RES1    0.0000
    106 C48        8.0764    9.3911   -3.3017 C.ar      1 RES1    0.0000
    107 C49        7.5615    8.9420   -4.5160 C.ar      1 RES1    0.0000
    108 H39        6.6270    8.9296   -4.6864 H         1 RES1    0.0000
    109 C50        8.4805    8.5134   -5.4642 C.ar      1 RES1    0.0000
    110 H40        8.1651    8.1943   -6.3012 H         1 RES1    0.0000
    111 C51        9.8429    8.5373   -5.2245 C.ar      1 RES1    0.0000
    112 H41       10.4410    8.2283   -5.8944 H         1 RES1    0.0000
    113 C52       10.3510    9.0092   -4.0114 C.ar      1 RES1    0.0000
    114 H42       11.2857    9.0443   -3.8466 H         1 RES1    0.0000
    115 C53        9.4337    9.4239   -3.0598 C.ar      1 RES1    0.0000
    116 C54        9.6475    9.9464   -1.6786 C.2       1 RES1    0.0000
    117 O15       10.6769   10.1654   -1.0902 O.2       1 RES1    0.0000
    118 C55        7.9578   13.3868    3.7972 C.3       1 RES1    0.0000
    119 H43        8.5434   13.1609    3.0314 H         1 RES1    0.0000
    120 H44        8.2784   14.2416    4.1780 H         1 RES1    0.0000
    121 C56        6.5364   13.5802    3.2877 C.ar      1 RES1    0.0000
    122 C57        5.4477   13.8456    4.1357 C.ar      1 RES1    0.0000
    123 C58        4.1463   14.0114    3.6469 C.ar      1 RES1    0.0000
    124 C59        3.9278   13.9282    2.2820 C.ar      1 RES1    0.0000
    125 H45        3.0577   14.0546    1.9233 H         1 RES1    0.0000
    126 C60        5.0016   13.6579    1.4496 C.ar      1 RES1    0.0000
    127 C61        6.2884   13.4879    1.9245 C.ar      1 RES1    0.0000
    128 H46        7.0000   13.3088    1.3219 H         1 RES1    0.0000
    129 N7         4.7516   13.5461    0.0081 N.pl3     1 RES1    0.0000
    130 O16        5.7020   13.2925   -0.7269 O.2       1 RES1    0.0000
    131 O17        3.6196   13.7177   -0.4045 O.2       1 RES1    0.0000
    132 O18        5.6202   13.8903    5.5038 O.3       1 RES1    0.0000
    133 C62        6.1071   15.1414    6.0010 C.3       1 RES1    0.0000
    134 H47        5.5890   15.8870    5.6051 H         1 RES1    0.0000
    135 H48        7.0577   15.2562    5.7524 H         1 RES1    0.0000
    136 C63        5.9624   15.1574    7.5218 C.3       1 RES1    0.0000
    137 H49        5.0232   15.3505    7.7686 H         1 RES1    0.0000
    138 H50        6.2058   14.2719    7.8931 H         1 RES1    0.0000
    139 C64        6.8559   16.2015    8.0770 C.3       1 RES1    0.0000
    140 H51        7.7896   15.8751    8.0316 H         1 RES1    0.0000
    141 H52        6.7923   17.0067    7.5057 H         1 RES1    0.0000
    142 N8         6.5602   16.5836    9.4618 N.am      1 RES1    0.0000
    143 C65        5.8622   17.7519    9.8045 C.2       1 RES1    0.0000
    144 O19        5.3101   18.4916    9.0168 O.2       1 RES1    0.0000
    145 C66        5.9928   17.8656   11.2808 C.ar      1 RES1    0.0000
    146 C67        5.5725   18.8506   12.1434 C.ar      1 RES1    0.0000
    147 H53        5.0703   19.5996   11.8414 H         1 RES1    0.0000
    148 C68        5.9235   18.6930   13.4891 C.ar      1 RES1    0.0000
    149 H54        5.6734   19.3655   14.1101 H         1 RES1    0.0000
    150 C69        6.6144   17.6013   13.9397 C.ar      1 RES1    0.0000
    151 H55        6.7898   17.5131   14.8693 H         1 RES1    0.0000
    152 C70        7.0640   16.6195   13.0682 C.ar      1 RES1    0.0000
    153 H56        7.5634   15.8710   13.3720 H         1 RES1    0.0000
    154 C71        6.7472   16.7902   11.7385 C.ar      1 RES1    0.0000
    155 C72        7.1612   15.9791   10.5630 C.2       1 RES1    0.0000
    156 O20        7.8948   15.0149   10.5291 O.2       1 RES1    0.0000
@<TRIPOS>BOND
     1    1    2 1
     2    3    1 1
     3    4    1 1
     4    5    4 ar
     5    6    5 ar
     6    7    6 ar
     7    8    7 1
     8    9    7 ar
     9   10    4 ar
    10   11   10 1
    11   12    9 1
    12   13   12 2
    13   14   12 2
    14   15    5 1
    15   16   15 1
    16   17   16 1
    17   18   16 1
    18   19   16 1
    19   20   19 1
    20   21   19 1
    21   22   19 1
    22   23   22 1
    23   24   22 1
    24   25   22 1
    25   26   25 1
    26   27   26 2
    27   28   26 1
    28   29   28 ar
    29   30   29 1
    30   31   29 ar
    31   32   31 1
    32   33   31 ar
    33   34   33 1
    34   35   33 ar
    35   36   35 1
    36   37   28 ar
    37   38   25 1
    38   39   38 2
    39   40    6 1
    40   41   40 1
    41   42   40 1
    42   43   40 1
    43   44   43 ar
    44   45   44 ar
    45   46   45 ar
    46   47   46 1
    47   48   46 ar
    48   49   43 ar
    49   50   49 1
    50   51   48 1
    51   52   51 2
    52   53   51 2
    53   54   44 1
    54   55   54 1
    55   56   55 1
    56   57   55 1
    57   58   55 1
    58   59   58 1
    59   60   58 1
    60   61   58 1
    61   62   61 1
    62   63   61 1
    63   64   61 1
    64   65   64 1
    65   66   65 2
    66   67   65 1
    67   68   67 ar
    68   69   68 1
    69   70   68 ar
    70   71   70 1
    71   72   70 ar
    72   73   72 1
    73   74   72 ar
    74   75   74 1
    75   76   67 ar
    76   77   64 1
    77   78   77 2
    78   79   45 1
    79   80   79 1
    80   81   79 1
    81   82   79 1
    82   83   82 ar
    83   84   83 ar
    84   85   84 ar
    85   86   85 1
    86   87   85 ar
    87   88   82 ar
    88   89   88 1
    89   90   87 1
    90   91   90 2
    91   92   90 2
    92   93   83 1
    93   94   93 1
    94   95   94 1
    95   96   94 1
    96   97   94 1
    97   98   97 1
    98   99   97 1
    99  100   97 1
   100  101  100 1
   101  102  100 1
   102  103  100 1
   103  104  103 1
   104  105  104 2
   105  106  104 1
   106  107  106 ar
   107  108  107 1
   108  109  107 ar
   109  110  109 1
   110  111  109 ar
   111  112  111 1
   112  113  111 ar
   113  114  113 1
   114  115  106 ar
   115  116  103 1
   116  117  116 2
   117  118   84 1
   118  119  118 1
   119  120  118 1
   120  121  118 1
   121  122  121 ar
   122  123    1 1
   123  124  123 ar
   124  125  124 1
   125  126  124 ar
   126  127  121 ar
   127  128  127 1
   128  129  126 1
   129  130  129 2
   130  131  129 2
   131  132  122 1
   132  133  132 1
   133  134  133 1
   134  135  133 1
   135  136  133 1
   136  137  136 1
   137  138  136 1
   138  139  136 1
   139  140  139 1
   140  141  139 1
   141  142  139 1
   142  143  142 1
   143  144  143 2
   144  145  143 1
   145  146  145 ar
   146  147  146 1
   147  148  146 ar
   148  149  148 1
   149  150  148 ar
   150  151  150 1
   151  152  150 ar
   152  153  152 1
   153  154  145 ar
   154  155  142 1
   155  156  155 2
   156    9   10 ar
   157   35   37 ar
   158   37   38 1
   159   48   49 ar
   160   74   76 ar
   161   76   77 1
   162   87   88 ar
   163  113  115 ar
   164  115  116 1
   165  122  123 ar
   166  126  127 ar
   167  152  154 ar
   168  154  155 1
@<TRIPOS>SUBSTRUCTURE
     1 RES1 1

@<TRIPOS>CRYSIN
  13.5443   13.6010   18.4301  74.0290  81.1160  86.7420   2 1

