# MOL2 file generated by ConQuest
# Please check atom types

@<TRIPOS>MOLECULE
OBEZIH
    75    79     1
SMALL
NO_CHARGES
****
Generated from CSD

@<TRIPOS>ATOM
      1 O1         5.7114    4.5132    8.7870 O.3       1 RES1    0.0000
      2 O2         7.4551    5.8738    9.2309 O.2       1 RES1    0.0000
      3 O3         6.6312    2.5682    6.9962 O.3       1 RES1    0.0000
      4 O4         6.8598    4.6406    6.1084 O.2       1 RES1    0.0000
      5 O5         5.0733    3.6532   11.6276 O.3       1 RES1    0.0000
      6 H1         5.5867    3.2139   12.1268 H         1 RES1    0.0000
      7 O6         2.7914    0.7888    1.5690 O.2       1 RES1    0.0000
      8 O7         2.4001    9.6561    5.7232 O.2       1 RES1    0.0000
      9 O8         2.3042    2.8697    1.2734 O.2       1 RES1    0.0000
     10 N1         3.3199    9.9426    6.4805 N.pl3     1 RES1    0.0000
     11 N2         2.8826    1.9670    1.8709 N.pl3     1 RES1    0.0000
     12 O9         3.6271   11.0973    6.7856 O.2       1 RES1    0.0000
     13 C1         6.3457    5.6953    8.7992 C.2       1 RES1    0.0000
     14 C2         4.4410    2.7677   10.6928 C.3       1 RES1    0.0000
     15 C3         5.5045    6.7761    8.2019 C.ar      1 RES1    0.0000
     16 C4         6.4787    3.3761    9.2724 C.3       1 RES1    0.0000
     17 H2         7.0159    3.6646   10.0645 H         1 RES1    0.0000
     18 C5         6.3839    3.5277    6.0932 C.2       1 RES1    0.0000
     19 C6         5.4394    3.0635    5.0338 C.ar      1 RES1    0.0000
     20 C7         3.3347    3.5607    9.9285 C.3       1 RES1    0.0000
     21 H3         3.2833    4.4947   10.2528 H         1 RES1    0.0000
     22 H4         3.5165    3.5698    8.9551 H         1 RES1    0.0000
     23 C8         4.3491    6.5035    7.4782 C.ar      1 RES1    0.0000
     24 H5         4.0510    5.6070    7.3803 H         1 RES1    0.0000
     25 C9         3.7655    2.3442    2.9916 C.ar      1 RES1    0.0000
     26 C10        5.5286    2.2519    9.7037 C.3       1 RES1    0.0000
     27 H6         5.0624    1.9143    8.8861 H         1 RES1    0.0000
     28 C11        5.2110    1.7136    4.7714 C.ar      1 RES1    0.0000
     29 H7         5.6271    1.0479    5.3056 H         1 RES1    0.0000
     30 C12        6.4431    1.1235   10.2260 C.3       1 RES1    0.0000
     31 H8         6.9773    1.4600   10.9891 H         1 RES1    0.0000
     32 H9         5.8850    0.3723   10.5508 H         1 RES1    0.0000
     33 C13        3.6281    7.5419    6.8970 C.ar      1 RES1    0.0000
     34 H10        2.8479    7.3679    6.3842 H         1 RES1    0.0000
     35 C14        3.5915    1.6685   11.4357 C.3       1 RES1    0.0000
     36 C15        3.9498    3.6929    3.2495 C.ar      1 RES1    0.0000
     37 H11        3.5020    4.3542    2.7347 H         1 RES1    0.0000
     38 C16        2.2237    2.4119   11.7099 C.3       1 RES1    0.0000
     39 C17        4.8034    4.0477    4.2762 C.ar      1 RES1    0.0000
     40 H12        4.9583    4.9654    4.4671 H         1 RES1    0.0000
     41 C18        4.3761    1.3457    3.7298 C.ar      1 RES1    0.0000
     42 H13        4.2262    0.4297    3.5264 H         1 RES1    0.0000
     43 C19        3.1367    0.6505   10.3616 C.3       1 RES1    0.0000
     44 H14        2.7110   -0.1393   10.7798 H         1 RES1    0.0000
     45 H15        3.9022    0.3501    9.8108 H         1 RES1    0.0000
     46 C20        5.9359    8.0957    8.3734 C.ar      1 RES1    0.0000
     47 H16        6.7282    8.2753    8.8664 H         1 RES1    0.0000
     48 C21        7.4340    2.9476    8.1594 C.3       1 RES1    0.0000
     49 H17        8.0397    3.7068    7.9208 H         1 RES1    0.0000
     50 C22        4.0812    8.8370    7.0869 C.ar      1 RES1    0.0000
     51 C23        4.2206    1.0554   12.6740 C.3       1 RES1    0.0000
     52 H18        3.6101    0.3899   13.0552 H         1 RES1    0.0000
     53 H19        4.3911    1.7574   13.3360 H         1 RES1    0.0000
     54 H20        5.0656    0.6229   12.4310 H         1 RES1    0.0000
     55 C24        5.2105    9.1433    7.8260 C.ar      1 RES1    0.0000
     56 H21        5.4802   10.0444    7.9553 H         1 RES1    0.0000
     57 C25        2.2793    3.6130   12.6632 C.3       1 RES1    0.0000
     58 H22        1.4154    4.0756   12.6575 H         1 RES1    0.0000
     59 H23        2.9813    4.2301   12.3706 H         1 RES1    0.0000
     60 H24        2.4765    3.3005   13.5711 H         1 RES1    0.0000
     61 C26        2.0366    2.8044   10.2341 C.3       1 RES1    0.0000
     62 H25        1.2028    3.3251   10.0484 H         1 RES1    0.0000
     63 C27        7.3858    0.6192    9.1292 C.3       1 RES1    0.0000
     64 H26        7.9648   -0.0937    9.4981 H         1 RES1    0.0000
     65 H27        6.8518    0.2283    8.3936 H         1 RES1    0.0000
     66 C28        2.1129    1.4458    9.5051 C.3       1 RES1    0.0000
     67 H28        2.4338    1.5560    8.5746 H         1 RES1    0.0000
     68 H29        1.2317    0.9964    9.4919 H         1 RES1    0.0000
     69 C29        8.2577    1.7413    8.5773 C.3       1 RES1    0.0000
     70 H30        8.9117    2.0161    9.2678 H         1 RES1    0.0000
     71 H31        8.7645    1.4061    7.7952 H         1 RES1    0.0000
     72 C30        1.1086    1.4947   12.2418 C.3       1 RES1    0.0000
     73 H32        1.3152    1.2294   13.1623 H         1 RES1    0.0000
     74 H33        1.0463    0.6955   11.6774 H         1 RES1    0.0000
     75 H34        0.2541    1.9752   12.2241 H         1 RES1    0.0000
@<TRIPOS>BOND
     1    1   13 1
     2    2   13 2
     3    3   18 1
     4    4   18 2
     5    5    6 1
     6    7   11 2
     7    8   10 2
     8    9   11 2
     9   10   12 2
    10   11   25 1
    11   13   15 1
    12   14    5 1
    13   15   23 ar
    14   16    1 1
    15   17   16 1
    16   18   19 1
    17   19   28 ar
    18   20   14 1
    19   21   20 1
    20   22   20 1
    21   23   24 1
    22   25   36 ar
    23   26   14 1
    24   27   26 1
    25   28   29 1
    26   30   26 1
    27   31   30 1
    28   32   30 1
    29   33   23 ar
    30   34   33 1
    31   35   14 1
    32   36   37 1
    33   38   35 1
    34   39   19 ar
    35   40   39 1
    36   41   25 ar
    37   42   41 1
    38   43   35 1
    39   44   43 1
    40   45   43 1
    41   46   15 ar
    42   47   46 1
    43   48    3 1
    44   49   48 1
    45   50   10 1
    46   51   35 1
    47   52   51 1
    48   53   51 1
    49   54   51 1
    50   55   46 ar
    51   56   55 1
    52   57   38 1
    53   58   57 1
    54   59   57 1
    55   60   57 1
    56   61   20 1
    57   62   61 1
    58   63   30 1
    59   64   63 1
    60   65   63 1
    61   66   43 1
    62   67   66 1
    63   68   66 1
    64   69   48 1
    65   70   69 1
    66   71   69 1
    67   72   38 1
    68   73   72 1
    69   74   72 1
    70   75   72 1
    71   16   26 1
    72   16   48 1
    73   28   41 ar
    74   33   50 ar
    75   36   39 ar
    76   38   61 1
    77   50   55 ar
    78   61   66 1
    79   63   69 1
@<TRIPOS>SUBSTRUCTURE
     1 RES1 1

@<TRIPOS>CRYSIN
   9.7362   11.7081   13.2219  90.0000 111.3710  90.0000   4 1

