# MOL2 file generated by ConQuest
# Please check atom types

@<TRIPOS>MOLECULE
OBICUX
    66    70     2
SMALL
NO_CHARGES
****
Generated from CSD

@<TRIPOS>ATOM
      1 O1         9.9007   -4.1586   -8.3036 O.2       1 RES1    0.0000
      2 O2         7.3280   -2.9415   -4.7069 O.3       1 RES1    0.0000
      3 N1        12.0768   -4.4347   -7.7277 N.am      1 RES1    0.0000
      4 N2        13.1564   -4.1802   -6.9544 N.2       1 RES1    0.0000
      5 N3        11.6372   -2.3262   -4.2577 N.3       1 RES1    0.0000
      6 N4         8.4322   -3.7985   -5.1577 N.3       1 RES1    0.0000
      7 C1        12.3332   -5.1253   -8.9902 C.3       1 RES1    0.0000
      8 H1        13.2503   -5.4110   -9.0191 H         1 RES1    0.0000
      9 H2        12.1622   -4.5283   -9.7234 H         1 RES1    0.0000
     10 H3        11.7577   -5.8911   -9.0592 H         1 RES1    0.0000
     11 C2        10.8052   -3.9410   -7.4646 C.2       1 RES1    0.0000
     12 C3        10.6257   -3.3152   -6.2021 C.2       1 RES1    0.0000
     13 C4        11.7135   -2.9967   -5.4176 C.2       1 RES1    0.0000
     14 C5        12.9814   -3.4817   -5.8876 C.2       1 RES1    0.0000
     15 H4        13.7336   -3.2744   -5.3807 H         1 RES1    0.0000
     16 C6        12.7723   -2.1405   -3.3497 C.3       1 RES1    0.0000
     17 H5        12.4910   -1.6292   -2.5861 H         1 RES1    0.0000
     18 H6        13.4755   -1.6724   -3.8069 H         1 RES1    0.0000
     19 H7        13.0931   -2.9975   -3.0593 H         1 RES1    0.0000
     20 C7        10.3283   -2.0141   -3.7235 C.3       1 RES1    0.0000
     21 H8        10.3960   -1.2467   -3.1331 H         1 RES1    0.0000
     22 H9        10.0060   -2.7655   -3.2021 H         1 RES1    0.0000
     23 C8         9.3366   -1.7084   -4.8384 C.3       1 RES1    0.0000
     24 H10        9.5435   -0.8506   -5.2636 H         1 RES1    0.0000
     25 C9         7.9316   -1.7092   -4.2866 C.3       1 RES1    0.0000
     26 H11        7.9484   -1.6540   -3.3176 H         1 RES1    0.0000
     27 H12        7.4317   -0.9522   -4.6315 H         1 RES1    0.0000
     28 C10        7.7863   -4.7324   -6.0769 C.3       1 RES1    0.0000
     29 H13        7.2648   -5.3621   -5.5780 H         1 RES1    0.0000
     30 H14        8.4597   -5.2013   -6.5791 H         1 RES1    0.0000
     31 H15        7.2193   -4.2475   -6.6785 H         1 RES1    0.0000
     32 C11        9.2567   -2.8031   -5.8587 C.3       1 RES1    0.0000
     33 H16        8.7985   -2.4862   -6.6641 H         1 RES1    0.0000
     34 O3         8.7075   -0.1064    2.1625 O.2       2 RES2    0.0000
     35 O4        11.2517    0.9978   -1.5994 O.3       2 RES2    0.0000
     36 N5         6.5573   -0.3489    1.5706 N.am      2 RES2    0.0000
     37 N6         5.4830   -0.1304    0.7829 N.2       2 RES2    0.0000
     38 N7         6.9857    1.7508   -1.8946 N.3       2 RES2    0.0000
     39 N8        10.1262    0.2385   -1.0171 N.3       2 RES2    0.0000
     40 C12        6.3105   -1.1499    2.7673 C.3       2 RES2    0.0000
     41 H17        5.3769   -1.3659    2.8219 H         2 RES2    0.0000
     42 H18        6.5692   -0.6506    3.5454 H         2 RES2    0.0000
     43 H19        6.8235   -1.9597    2.7224 H         2 RES2    0.0000
     44 C13        7.8468    0.0808    1.3043 C.2       2 RES2    0.0000
     45 C14        7.9827    0.7634    0.0594 C.2       2 RES2    0.0000
     46 C15        6.9060    1.0035   -0.7556 C.2       2 RES2    0.0000
     47 C16        5.6300    0.5377   -0.3032 C.2       2 RES2    0.0000
     48 H20        4.8785    0.7274   -0.8150 H         2 RES2    0.0000
     49 C17        5.8499    1.8957   -2.8171 C.3       2 RES2    0.0000
     50 H21        6.1058    2.4550   -3.5550 H         2 RES2    0.0000
     51 H22        5.1101    2.2950   -2.3550 H         2 RES2    0.0000
     52 H23        5.5929    1.0307   -3.1459 H         2 RES2    0.0000
     53 C18        8.3145    1.9949   -2.4337 C.3       2 RES2    0.0000
     54 H24        8.2651    2.7215   -3.0754 H         2 RES2    0.0000
     55 H25        8.6128    1.2027   -2.9069 H         2 RES2    0.0000
     56 C19        9.3280    2.3438   -1.3765 C.3       2 RES2    0.0000
     57 H26        9.1320    3.2160   -0.9738 H         2 RES2    0.0000
     58 C20       10.7453    2.2902   -1.8898 C.3       2 RES2    0.0000
     59 H27       10.7627    2.4510   -2.8459 H         2 RES2    0.0000
     60 H28       11.2854    2.9679   -1.4535 H         2 RES2    0.0000
     61 C21       10.7667   -0.7242   -0.1219 C.3       2 RES2    0.0000
     62 H29       11.2715   -1.3563   -0.6401 H         2 RES2    0.0000
     63 H30       10.0946   -1.1883    0.3834 H         2 RES2    0.0000
     64 H31       11.3548   -0.2609    0.4781 H         2 RES2    0.0000
     65 C22        9.3429    1.2459   -0.3225 C.3       2 RES2    0.0000
     66 H32        9.8251    1.5540    0.4733 H         2 RES2    0.0000
@<TRIPOS>BOND
     1    1   11 2
     2    2    6 1
     3    3    4 1
     4    4   14 2
     5    5   13 1
     6    6   28 1
     7    7    3 1
     8    8    7 1
     9    9    7 1
    10   10    7 1
    11   11    3 1
    12   12   11 1
    13   13   12 2
    14   14   13 1
    15   15   14 1
    16   16    5 1
    17   17   16 1
    18   18   16 1
    19   19   16 1
    20   20    5 1
    21   21   20 1
    22   22   20 1
    23   23   20 1
    24   24   23 1
    25   25    2 1
    26   26   25 1
    27   27   25 1
    28   28   29 1
    29   30   28 1
    30   31   28 1
    31   32    6 1
    32   33   32 1
    33   34   44 2
    34   35   39 1
    35   36   37 1
    36   37   47 2
    37   38   46 1
    38   39   61 1
    39   40   36 1
    40   41   40 1
    41   42   40 1
    42   43   40 1
    43   44   36 1
    44   45   44 1
    45   46   45 2
    46   47   46 1
    47   48   47 1
    48   49   38 1
    49   50   49 1
    50   51   49 1
    51   52   49 1
    52   53   38 1
    53   54   53 1
    54   55   53 1
    55   56   53 1
    56   57   56 1
    57   58   35 1
    58   59   58 1
    59   60   58 1
    60   61   62 1
    61   63   61 1
    62   64   61 1
    63   65   39 1
    64   66   65 1
    65   12   32 1
    66   23   25 1
    67   23   32 1
    68   45   65 1
    69   56   58 1
    70   56   65 1
@<TRIPOS>SUBSTRUCTURE
     1 RES1 1
     2 RES2 34

