# MOL2 file generated by ConQuest
# Please check atom types

@<TRIPOS>MOLECULE
OBOBOW
    22    23     1
SMALL
NO_CHARGES
****
Generated from CSD

@<TRIPOS>ATOM
      1 O1         1.5288    3.7610    6.8876 O.3       1 RES1    0.0000
      2 O2         2.9881    5.8615    7.1442 O.3       1 RES1    0.0000
      3 H1         3.6275    6.4971    7.0388 H         1 RES1    0.0000
      4 O3         3.9252    4.0121    3.6342 O.3       1 RES1    0.0000
      5 H2         4.2973    3.8620    2.8505 H         1 RES1    0.0000
      6 N1         0.8532    2.5560    6.4853 N.2       1 RES1    0.0000
      7 N2         3.1925    5.1125    5.9774 N.2       1 RES1    0.0000
      8 N3         3.0034    2.9940    3.7593 N.2       1 RES1    0.0000
      9 C1         2.4297    4.0900    5.9284 C.2       1 RES1    0.0000
     10 C2         2.3565    3.1012    4.8672 C.2       1 RES1    0.0000
     11 C3         1.3207    2.1796    5.3386 C.2       1 RES1    0.0000
     12 C4         0.7934    0.9583    4.7066 C.ar      1 RES1    0.0000
     13 C5         1.2676    0.5172    3.4836 C.ar      1 RES1    0.0000
     14 H3         1.9254    1.0032    3.0381 H         1 RES1    0.0000
     15 C6         0.7683   -0.6449    2.9196 C.ar      1 RES1    0.0000
     16 H4         1.0969   -0.9415    2.1012 H         1 RES1    0.0000
     17 C7        -0.2078   -1.3602    3.5622 C.ar      1 RES1    0.0000
     18 H5        -0.5491   -2.1341    3.1752 H         1 RES1    0.0000
     19 C8        -0.6814   -0.9322    4.7769 C.ar      1 RES1    0.0000
     20 H6        -1.3405   -1.4225    5.2131 H         1 RES1    0.0000
     21 C9        -0.1908    0.2168    5.3573 C.ar      1 RES1    0.0000
     22 H7        -0.5159    0.4972    6.1828 H         1 RES1    0.0000
@<TRIPOS>BOND
     1    1    6 1
     2    2    3 1
     3    4    5 1
     4    6   11 2
     5    7    2 1
     6    8    4 1
     7    9    1 1
     8   10    8 2
     9   11   10 1
    10   12   11 1
    11   13   12 ar
    12   14   13 1
    13   15   13 ar
    14   16   15 1
    15   17   15 ar
    16   18   17 1
    17   19   17 ar
    18   20   19 1
    19   21   12 ar
    20   22   21 1
    21    7    9 2
    22    9   10 1
    23   19   21 ar
@<TRIPOS>SUBSTRUCTURE
     1 RES1 1

@<TRIPOS>CRYSIN
  12.5670    6.2310   12.5630  90.0000 111.0400  90.0000  14 1

