# MOL2 file generated by ConQuest
# Please check atom types

@<TRIPOS>MOLECULE
OBOHOF
    56    57     1
SMALL
NO_CHARGES
****
Generated from CSD

@<TRIPOS>ATOM
      1 O1         6.2169    1.7298    8.8038 O.2       1 RES1    0.0000
      2 O2         5.3668    1.7298    6.8725 O.2       1 RES1    0.0000
      3 O3         7.9733    1.7298    2.9634 O.2       1 RES1    0.0000
      4 O4        10.1294    1.7298    3.0738 O.2       1 RES1    0.0000
      5 O5        14.0006    1.7298   14.8082 O.3       1 RES1    0.0000
      6 H1        13.8486    1.7298   15.6108 H         1 RES1    0.0000
      7 N1         9.9474    1.7298    9.9153 N.2       1 RES1    0.0000
      8 N2         8.7708    1.7298    9.1801 N.pl3     1 RES1    0.0000
      9 H2         8.0110    1.7298    9.5819 H         1 RES1    0.0000
     10 N3         6.3445    1.7298    7.6009 N.pl3     1 RES1    0.0000
     11 N4         9.0091    1.7298    3.5881 N.pl3     1 RES1    0.0000
     12 C1         8.8290    1.7298    7.8304 C.ar      1 RES1    0.0000
     13 C2         7.6505    1.7298    7.0313 C.ar      1 RES1    0.0000
     14 C3         7.7293    1.7298    5.6489 C.ar      1 RES1    0.0000
     15 H3         6.9577    1.7298    5.1305 H         1 RES1    0.0000
     16 C4         8.9697    1.7298    5.0534 C.ar      1 RES1    0.0000
     17 C5        10.1256    1.7298    5.8007 C.ar      1 RES1    0.0000
     18 H4        10.9525    1.7298    5.3760 H         1 RES1    0.0000
     19 C6        10.0581    1.7298    7.1504 C.ar      1 RES1    0.0000
     20 H5        10.8477    1.7298    7.6436 H         1 RES1    0.0000
     21 C7         9.7710    1.7298   11.1804 C.2       1 RES1    0.0000
     22 H6         8.9017    1.7298   11.5106 H         1 RES1    0.0000
     23 C8        10.8800    1.7298   12.1279 C.ar      1 RES1    0.0000
     24 C9        12.1936    1.7298   11.6947 C.ar      1 RES1    0.0000
     25 H7        12.3676    1.7298   10.7817 H         1 RES1    0.0000
     26 C10       13.2594    1.7298   12.5870 C.ar      1 RES1    0.0000
     27 C11       12.9235    1.7298   13.9608 C.ar      1 RES1    0.0000
     28 C12       11.6100    1.7298   14.4510 C.ar      1 RES1    0.0000
     29 C13       10.6135    1.7298   13.4827 C.ar      1 RES1    0.0000
     30 H8         9.7258    1.7298   13.7602 H         1 RES1    0.0000
     31 C14       14.7137    1.7298   12.0934 C.3       1 RES1    0.0000
     32 C15       14.7888    1.7298   10.5573 C.3       1 RES1    0.0000
     33 H9        14.3535    0.9463   10.2192 H         1 RES1    0.0000
     34 H10       15.7100    1.7298   10.2868 H         1 RES1    0.0000
     35 C16       15.4493    2.9988   12.5939 C.3       1 RES1    0.0000
     36 H11       14.9620    3.7794   12.3198 H         1 RES1    0.0000
     37 H12       16.3327    3.0251   12.2214 H         1 RES1    0.0000
     38 H13       15.5062    2.9785   13.5526 H         1 RES1    0.0000
     39 C17       11.2835    1.7298   15.9508 C.3       1 RES1    0.0000
     40 C18       11.8445    2.9912   16.6377 C.3       1 RES1    0.0000
     41 H14       12.7443    2.8237   16.9285 H         1 RES1    0.0000
     42 H15       11.2992    3.2134   17.3946 H         1 RES1    0.0000
     43 H16       11.8415    3.7222   16.0145 H         1 RES1    0.0000
     44 C19        9.7710    1.7298   16.1803 C.3       1 RES1    0.0000
     45 H17        9.3888    2.5144   15.7797 H         1 RES1    0.0000
     46 H18        9.5911    1.7298   17.1209 H         1 RES1    0.0000
     47 H9G       14.3535    2.5134   10.2192 H         1 RES1    0.0000
     48 C16G      15.4493    0.4608   12.5939 C.3       1 RES1    0.0000
     49 H11G      14.9620   -0.3198   12.3198 H         1 RES1    0.0000
     50 H12G      16.3327    0.4345   12.2214 H         1 RES1    0.0000
     51 H13G      15.5062    0.4812   13.5526 H         1 RES1    0.0000
     52 C18G      11.8445    0.4684   16.6377 C.3       1 RES1    0.0000
     53 H14G      12.7443    0.6359   16.9285 H         1 RES1    0.0000
     54 H15G      11.2992    0.2462   17.3946 H         1 RES1    0.0000
     55 H16G      11.8415   -0.2625   16.0145 H         1 RES1    0.0000
     56 H17G       9.3888    0.9453   15.7797 H         1 RES1    0.0000
@<TRIPOS>BOND
     1    1   10 2
     2    2   10 2
     3    3   11 2
     4    4   11 2
     5    5    6 1
     6    7    8 1
     7    8    9 1
     8   10   13 1
     9   11   16 1
    10   12    8 1
    11   13   12 ar
    12   14   13 ar
    13   15   14 1
    14   16   14 ar
    15   17   16 ar
    16   18   17 1
    17   19   12 ar
    18   20   19 1
    19   21    7 2
    20   22   21 1
    21   23   21 1
    22   24   23 ar
    23   25   24 1
    24   26   24 ar
    25   27    5 1
    26   28   27 ar
    27   29   23 ar
    28   30   29 1
    29   31   26 1
    30   32   31 1
    31   33   32 1
    32   34   32 1
    33   35   31 1
    34   36   35 1
    35   37   35 1
    36   38   35 1
    37   39   28 1
    38   40   39 1
    39   41   40 1
    40   42   40 1
    41   43   40 1
    42   44   39 1
    43   45   44 1
    44   46   44 1
    45   47   32 1
    46   48   31 1
    47   49   48 1
    48   50   48 1
    49   51   48 1
    50   52   39 1
    51   53   52 1
    52   54   52 1
    53   55   52 1
    54   56   44 1
    55   17   19 ar
    56   26   27 ar
    57   28   29 ar
@<TRIPOS>SUBSTRUCTURE
     1 RES1 1

@<TRIPOS>CRYSIN
  18.7651    6.9193   17.2590  90.0000  90.0000  90.0000  62 1

