# MOL2 file generated by ConQuest
# Please check atom types

@<TRIPOS>MOLECULE
OBOKIC
    40    42     1
SMALL
NO_CHARGES
****
Generated from CSD

@<TRIPOS>ATOM
      1 O1         3.0605    0.5705    8.1862 O.3       1 RES1    0.0000
      2 H1         2.7982    1.1964    7.5029 H         1 RES1    0.0000
      3 O2         8.5430    1.8696   10.8426 O.2       1 RES1    0.0000
      4 O3         8.3850    3.5760    9.5144 O.2       1 RES1    0.0000
      5 N1         7.9592    2.5044    9.9539 N.pl3     1 RES1    0.0000
      6 N2         2.8957    2.6205    6.6397 N.2       1 RES1    0.0000
      7 N3        -0.5787    5.2080    3.0621 N.pl3     1 RES1    0.0000
      8 H2        -1.3474    4.8586    3.1080 H         1 RES1    0.0000
      9 C1         4.2625    1.0538    8.5692 C.ar      1 RES1    0.0000
     10 C2         4.9728    0.3589    9.5430 C.ar      1 RES1    0.0000
     11 H3         4.6174   -0.4232    9.9027 H         1 RES1    0.0000
     12 C3         6.1841    0.8104    9.9750 C.ar      1 RES1    0.0000
     13 H4         6.6575    0.3405   10.6221 H         1 RES1    0.0000
     14 C4         6.6996    1.9724    9.4414 C.ar      1 RES1    0.0000
     15 C5         6.0259    2.6851    8.4781 C.ar      1 RES1    0.0000
     16 H5         6.3980    3.4618    8.1282 H         1 RES1    0.0000
     17 C6         4.7862    2.2419    8.0266 C.ar      1 RES1    0.0000
     18 C7         4.0433    3.0202    7.0619 C.2       1 RES1    0.0000
     19 H6         4.3986    3.8182    6.7435 H         1 RES1    0.0000
     20 C8         2.0914    3.3571    5.7449 C.ar      1 RES1    0.0000
     21 C9         2.3878    4.6037    5.2219 C.ar      1 RES1    0.0000
     22 H7         3.1815    5.0241    5.4642 H         1 RES1    0.0000
     23 C10        1.5252    5.2366    4.3467 C.ar      1 RES1    0.0000
     24 H8         1.7329    6.0836    4.0238 H         1 RES1    0.0000
     25 C11        0.3361    4.6047    3.9433 C.ar      1 RES1    0.0000
     26 C12        0.0270    3.3651    4.4859 C.ar      1 RES1    0.0000
     27 H9        -0.7698    2.9432    4.2564 H         1 RES1    0.0000
     28 C13        0.9002    2.7573    5.3664 C.ar      1 RES1    0.0000
     29 H10        0.6839    1.9218    5.7141 H         1 RES1    0.0000
     30 C14       -0.2903    5.8825    1.8633 C.ar      1 RES1    0.0000
     31 C15        0.9838    6.0101    1.3305 C.ar      1 RES1    0.0000
     32 H11        1.7180    5.6859    1.8016 H         1 RES1    0.0000
     33 C16        1.1643    6.6150    0.1039 C.ar      1 RES1    0.0000
     34 H12        2.0226    6.6913   -0.2453 H         1 RES1    0.0000
     35 C17        0.0932    7.1075   -0.6133 C.ar      1 RES1    0.0000
     36 H13        0.2227    7.4995   -1.4456 H         1 RES1    0.0000
     37 C18       -1.1737    7.0076   -0.0745 C.ar      1 RES1    0.0000
     38 H14       -1.8998    7.3500   -0.5448 H         1 RES1    0.0000
     39 C19       -1.3769    6.4075    1.1529 C.ar      1 RES1    0.0000
     40 H15       -2.2349    6.3541    1.5073 H         1 RES1    0.0000
@<TRIPOS>BOND
     1    1    2 1
     2    3    5 2
     3    4    5 2
     4    5   14 1
     5    6   18 2
     6    7    8 1
     7    9    1 1
     8   10    9 ar
     9   11   10 1
    10   12   10 ar
    11   13   12 1
    12   14   12 ar
    13   15   14 ar
    14   16   15 1
    15   17    9 ar
    16   18   17 1
    17   19   18 1
    18   20    6 1
    19   21   20 ar
    20   22   21 1
    21   23   21 ar
    22   24   23 1
    23   25    7 1
    24   26   25 ar
    25   27   26 1
    26   28   20 ar
    27   29   28 1
    28   30    7 1
    29   31   30 ar
    30   32   31 1
    31   33   31 ar
    32   34   33 1
    33   35   33 ar
    34   36   35 1
    35   37   35 ar
    36   38   37 1
    37   39   30 ar
    38   40   39 1
    39   15   17 ar
    40   23   25 ar
    41   26   28 ar
    42   37   39 ar
@<TRIPOS>SUBSTRUCTURE
     1 RES1 1

@<TRIPOS>CRYSIN
   6.4243   31.8180    7.6595  90.0000 100.7360  90.0000 231 1

