# MOL2 file generated by ConQuest
# Please check atom types

@<TRIPOS>MOLECULE
OBUDAS
    28    29     1
SMALL
NO_CHARGES
****
Generated from CSD

@<TRIPOS>ATOM
      1 O1         2.6682    1.6265    2.5157 O.3       1 RES1    0.0000
      2 O2         5.2668    0.9739    2.5238 O.3       1 RES1    0.0000
      3 O3         1.5164    1.2161    0.2213 O.2       1 RES1    0.0000
      4 O4         0.9347    2.9061   -0.9834 O.2       1 RES1    0.0000
      5 N1         3.4814    3.7397    2.8567 N.ar      1 RES1    0.0000
      6 N2         1.5016    2.4151   -0.0091 N.pl3     1 RES1    0.0000
      7 C1         2.8035    2.9026    2.0906 C.ar      1 RES1    0.0000
      8 C2         2.2090    3.3219    0.8908 C.ar      1 RES1    0.0000
      9 C3         2.3047    4.6560    0.5241 C.ar      1 RES1    0.0000
     10 H1         1.8988    4.9643   -0.2784 H         1 RES1    0.0000
     11 C4         2.9959    5.5295    1.3359 C.ar      1 RES1    0.0000
     12 H2         3.0691    6.4509    1.1159 H         1 RES1    0.0000
     13 C5         3.5788    5.0187    2.4809 C.ar      1 RES1    0.0000
     14 H3         4.0775    5.6103    3.0320 H         1 RES1    0.0000
     15 C6         3.2888    1.2986    3.7355 C.ar      1 RES1    0.0000
     16 C7         2.5358    1.2760    4.8842 C.ar      1 RES1    0.0000
     17 H4         1.6273    1.5525    4.8677 H         1 RES1    0.0000
     18 C8         3.1204    0.8426    6.0724 C.ar      1 RES1    0.0000
     19 H5         2.6154    0.8313    6.8766 H         1 RES1    0.0000
     20 C9         4.4362    0.4305    6.0737 C.ar      1 RES1    0.0000
     21 H6         4.8275    0.1209    6.8828 H         1 RES1    0.0000
     22 C10        5.1979    0.4606    4.9162 C.ar      1 RES1    0.0000
     23 H7         6.1051    0.1789    4.9337 H         1 RES1    0.0000
     24 C11        4.6272    0.9063    3.7256 C.ar      1 RES1    0.0000
     25 C12        6.6441    0.5795    2.5064 C.3       1 RES1    0.0000
     26 H8         6.9875    0.6310    1.5903 H         1 RES1    0.0000
     27 H9         6.7246   -0.3413    2.8340 H         1 RES1    0.0000
     28 H10        7.1628    1.1776    3.0836 H         1 RES1    0.0000
@<TRIPOS>BOND
     1    1    7 1
     2    2   24 1
     3    3    6 2
     4    4    6 2
     5    5    7 ar
     6    6    8 1
     7    7    8 ar
     8    8    9 ar
     9    9   10 1
    10   11    9 ar
    11   12   11 1
    12   13    5 ar
    13   14   13 1
    14   15    1 1
    15   16   15 ar
    16   17   16 1
    17   18   16 ar
    18   19   18 1
    19   20   18 ar
    20   21   20 1
    21   22   20 ar
    22   23   22 1
    23   24   15 ar
    24   25    2 1
    25   26   25 1
    26   27   25 1
    27   28   25 1
    28   11   13 ar
    29   22   24 ar
@<TRIPOS>SUBSTRUCTURE
     1 RES1 1

@<TRIPOS>CRYSIN
   7.5017    7.1542   20.6369  90.0000  91.8780  90.0000 231 1

