# MOL2 file generated by ConQuest
# Please check atom types

@<TRIPOS>MOLECULE
OBUWUF01
    38    40     1
SMALL
NO_CHARGES
****
Generated from CSD

@<TRIPOS>ATOM
      1 O1         5.8991    1.8455    6.9242 O.3       1 RES1    0.0000
      2 O2         8.1069    5.0979    6.1448 O.2       1 RES1    0.0000
      3 O3        10.2420   10.4068    2.3540 O.2       1 RES1    0.0000
      4 O4        11.1936    9.0436    0.9640 O.2       1 RES1    0.0000
      5 N1         7.5081    2.7337    5.0856 N.2       1 RES1    0.0000
      6 N2         8.0858    3.7376    4.3291 N.am      1 RES1    0.0000
      7 N3        10.4977    9.2771    1.9492 N.pl3     1 RES1    0.0000
      8 C1         6.1076    0.6302    6.3748 C.ar      1 RES1    0.0000
      9 C2         5.4283   -0.4531    6.9723 C.ar      1 RES1    0.0000
     10 H1         4.8727   -0.3035    7.7031 H         1 RES1    0.0000
     11 C3         5.5806   -1.7199    6.4850 C.ar      1 RES1    0.0000
     12 H2         5.1151   -2.4205    6.8820 H         1 RES1    0.0000
     13 C4         6.4393   -1.9881    5.3811 C.ar      1 RES1    0.0000
     14 C5         6.6155   -3.3052    4.8890 C.ar      1 RES1    0.0000
     15 H3         6.1484   -4.0090    5.2797 H         1 RES1    0.0000
     16 C6         7.4659   -3.5543    3.8445 C.ar      1 RES1    0.0000
     17 H4         7.5707   -4.4219    3.5263 H         1 RES1    0.0000
     18 C7         8.1802   -2.4987    3.2544 C.ar      1 RES1    0.0000
     19 H5         8.7671   -2.6747    2.5550 H         1 RES1    0.0000
     20 C8         8.0190   -1.2085    3.7016 C.ar      1 RES1    0.0000
     21 H6         8.4996   -0.5223    3.2988 H         1 RES1    0.0000
     22 C9         7.1307   -0.9069    4.7674 C.ar      1 RES1    0.0000
     23 C10        6.9251    0.4296    5.2571 C.ar      1 RES1    0.0000
     24 C11        7.5350    1.5514    4.5701 C.2       1 RES1    0.0000
     25 H7         7.9500    1.4175    3.7485 H         1 RES1    0.0000
     26 C12        8.3441    4.9075    4.9447 C.2       1 RES1    0.0000
     27 C13        8.9248    6.0031    4.1053 C.ar      1 RES1    0.0000
     28 C14        9.6973    5.7735    2.9639 C.ar      1 RES1    0.0000
     29 H8         9.8680    4.9026    2.6847 H         1 RES1    0.0000
     30 C15       10.2109    6.8477    2.2456 C.ar      1 RES1    0.0000
     31 H9        10.7204    6.7068    1.4805 H         1 RES1    0.0000
     32 C16        9.9484    8.1328    2.6947 C.ar      1 RES1    0.0000
     33 C17        9.2002    8.3912    3.8360 C.ar      1 RES1    0.0000
     34 H10        9.0461    9.2628    4.1208 H         1 RES1    0.0000
     35 C18        8.6896    7.3107    4.5382 C.ar      1 RES1    0.0000
     36 H11        8.1845    7.4571    5.3054 H         1 RES1    0.0000
     37 H12        8.2192    3.5930    3.5085 H         1 RES1    0.0000
     38 H13        6.3898    2.4128    6.4874 H         1 RES1    0.0000
@<TRIPOS>BOND
     1    1    8 1
     2    2   26 2
     3    3    7 2
     4    4    7 2
     5    5    6 1
     6    6   26 1
     7    7   32 1
     8    8    9 ar
     9    9   10 1
    10   11    9 ar
    11   12   11 1
    12   13   11 ar
    13   14   13 ar
    14   15   14 1
    15   16   14 ar
    16   17   16 1
    17   18   16 ar
    18   19   18 1
    19   20   18 ar
    20   21   20 1
    21   22   13 ar
    22   23    8 ar
    23   24    5 2
    24   25   24 1
    25   26   27 1
    26   27   28 ar
    27   28   29 1
    28   30   28 ar
    29   31   30 1
    30   32   30 ar
    31   33   32 ar
    32   34   33 1
    33   35   27 ar
    34   36   35 1
    35   37    6 1
    36   38    1 1
    37   20   22 ar
    38   22   23 ar
    39   23   24 1
    40   33   35 ar
@<TRIPOS>SUBSTRUCTURE
     1 RES1 1

@<TRIPOS>CRYSIN
  10.9273   15.4072    8.8906  90.0000  91.6640  90.0000  14 1

