# MOL2 file generated by ConQuest
# Please check atom types

@<TRIPOS>MOLECULE
OBUXIU
    27    27     1
SMALL
NO_CHARGES
****
Generated from CSD

@<TRIPOS>ATOM
      1 O1         4.6676   -1.3931    1.2266 O.3       1 RES1    0.0000
      2 H1         4.3250   -0.7068    1.5687 H         1 RES1    0.0000
      3 O2         3.5355    2.0200    1.3104 O.2       1 RES1    0.0000
      4 O3         2.1029    5.1604    4.2962 O.3       1 RES1    0.0000
      5 H2         2.2391    5.4123    5.0857 H         1 RES1    0.0000
      6 N1         4.1933    0.2866    3.1278 N.2       1 RES1    0.0000
      7 N2         3.6531    1.4810    3.5026 N.am      1 RES1    0.0000
      8 H3         3.5311    1.6963    4.3469 H         1 RES1    0.0000
      9 N3         2.7204    3.9400    4.0894 N.2       1 RES1    0.0000
     10 C1         5.1775   -2.1856    2.2127 C.ar      1 RES1    0.0000
     11 C2         5.7433   -3.4004    1.8374 C.ar      1 RES1    0.0000
     12 H4         5.7539   -3.6571    0.9232 H         1 RES1    0.0000
     13 C3         6.2928   -4.2369    2.8007 C.ar      1 RES1    0.0000
     14 H5         6.6939   -5.0560    2.5353 H         1 RES1    0.0000
     15 C4         6.2632   -3.8914    4.1495 C.ar      1 RES1    0.0000
     16 H6         6.6407   -4.4679    4.8026 H         1 RES1    0.0000
     17 C5         5.6762   -2.6974    4.5236 C.ar      1 RES1    0.0000
     18 H7         5.6402   -2.4662    5.4448 H         1 RES1    0.0000
     19 C6         5.1323   -1.8205    3.5752 C.ar      1 RES1    0.0000
     20 C7         4.5462   -0.5655    4.0186 C.2       1 RES1    0.0000
     21 H8         4.4282   -0.3817    4.9436 H         1 RES1    0.0000
     22 C8         3.3160    2.3145    2.4898 C.2       1 RES1    0.0000
     23 C9         2.6612    3.5984    2.8520 C.2       1 RES1    0.0000
     24 C10        2.0132    4.3905    1.7670 C.3       1 RES1    0.0000
     25 H9         1.1997    4.8136    2.1133 H         1 RES1    0.0000
     26 H10        1.7817    3.7963    1.0230 H         1 RES1    0.0000
     27 H11        2.6331    5.0814    1.4526 H         1 RES1    0.0000
@<TRIPOS>BOND
     1    1    2 1
     2    3   22 2
     3    4    5 1
     4    6    7 1
     5    7    8 1
     6    9    4 1
     7   10    1 1
     8   11   10 ar
     9   12   11 1
    10   13   11 ar
    11   14   13 1
    12   15   13 ar
    13   16   15 1
    14   17   15 ar
    15   18   17 1
    16   19   10 ar
    17   20    6 2
    18   21   20 1
    19   22    7 1
    20   23    9 2
    21   24   23 1
    22   25   24 1
    23   26   24 1
    24   27   24 1
    25   17   19 ar
    26   19   20 1
    27   22   23 1
@<TRIPOS>SUBSTRUCTURE
     1 RES1 1

@<TRIPOS>CRYSIN
  11.2296    8.1905   11.1000  90.0000 102.2230  90.0000   9 1

