# MOL2 file generated by ConQuest
# Please check atom types

@<TRIPOS>MOLECULE
OCAJUA
    53    56     1
SMALL
NO_CHARGES
****
Generated from CSD

@<TRIPOS>ATOM
      1 O1        11.4777    6.1397   14.3553 O.3       1 RES1    0.0000
      2 H1        11.9158    5.4839   14.5804 H         1 RES1    0.0000
      3 O2        11.4382    9.1095    9.0940 O.3       1 RES1    0.0000
      4 H2        12.2230    9.2447    8.8956 H         1 RES1    0.0000
      5 O3        10.5692    9.2137   14.0969 O.2       1 RES1    0.0000
      6 N1        12.0177    6.6829   13.1478 N.3       1 RES1    0.0000
      7 N2        12.5035    9.3451   15.3255 N.am      1 RES1    0.0000
      8 C1        11.7283    8.9081   14.2780 C.2       1 RES1    0.0000
      9 C2        11.3341    7.8745    9.8185 C.3       1 RES1    0.0000
     10 H3        12.0738    7.2972    9.5728 H         1 RES1    0.0000
     11 H4        10.5102    7.4271    9.5680 H         1 RES1    0.0000
     12 C3        13.8649    7.8996   14.1622 C.ar      1 RES1    0.0000
     13 C4        11.3474    8.0915   11.3236 C.3       1 RES1    0.0000
     14 H5        10.6814    8.7811   11.5251 H         1 RES1    0.0000
     15 C5        12.5980    8.0030   13.3782 C.3       1 RES1    0.0000
     16 C6        13.7763    8.7516   15.3109 C.ar      1 RES1    0.0000
     17 C7        12.6689    8.5404   11.9385 C.3       1 RES1    0.0000
     18 H6        13.3880    8.0576   11.4796 H         1 RES1    0.0000
     19 C8        12.9657   10.0421   11.8096 C.3       1 RES1    0.0000
     20 H7        12.3514   10.5279   12.3793 H         1 RES1    0.0000
     21 H8        12.7929   10.3123   10.8935 H         1 RES1    0.0000
     22 C9        14.7818    8.8564   16.2108 C.ar      1 RES1    0.0000
     23 H9        14.7065    9.4190   16.9491 H         1 RES1    0.0000
     24 C10       15.0004    7.1466   13.9629 C.ar      1 RES1    0.0000
     25 H10       15.0772    6.5796   13.2310 H         1 RES1    0.0000
     26 C11       14.3965   10.4481   12.1759 C.3       1 RES1    0.0000
     27 H11       14.5116   10.3669   13.1353 H         1 RES1    0.0000
     28 H12       15.0166    9.8339   11.7524 H         1 RES1    0.0000
     29 C12       10.9723    6.8217   12.1517 C.3       1 RES1    0.0000
     30 H13       10.1262    6.9974   12.6161 H         1 RES1    0.0000
     31 C13       10.8128    5.5415   11.3416 C.ar      1 RES1    0.0000
     32 C14       16.0399    7.2602   14.8963 C.ar      1 RES1    0.0000
     33 H14       16.8151    6.7626   14.7695 H         1 RES1    0.0000
     34 C15       12.0428   10.2710   16.3373 C.3       1 RES1    0.0000
     35 H15       12.1004   11.1687   15.9992 H         1 RES1    0.0000
     36 H16       12.5906   10.1883   17.1214 H         1 RES1    0.0000
     37 H17       11.1303   10.0716   16.5615 H         1 RES1    0.0000
     38 C16       15.9483    8.0886   16.0016 C.ar      1 RES1    0.0000
     39 H18       16.6541    8.1388   16.6046 H         1 RES1    0.0000
     40 C17       14.7390   11.8376   11.7644 C.3       1 RES1    0.0000
     41 H19       14.2739   12.0546   10.9533 H         1 RES1    0.0000
     42 H20       15.6855   11.9055   11.6184 H         1 RES1    0.0000
     43 H21       14.4777   12.4504   12.4558 H         1 RES1    0.0000
     44 C18       11.9188    4.7132   11.1136 C.ar      1 RES1    0.0000
     45 H22       12.7516    4.9273   11.4677 H         1 RES1    0.0000
     46 C19       11.7490    3.5600   10.3456 C.ar      1 RES1    0.0000
     47 H23       12.4858    3.0166   10.1781 H         1 RES1    0.0000
     48 C20        9.5770    5.1458   10.8097 C.ar      1 RES1    0.0000
     49 H24        8.8372    5.6833   10.9772 H         1 RES1    0.0000
     50 C21       10.5146    3.1953    9.8216 C.ar      1 RES1    0.0000
     51 H25       10.4216    2.4201    9.3167 H         1 RES1    0.0000
     52 C22        9.3998    4.0340   10.0704 C.ar      1 RES1    0.0000
     53 H26        8.5611    3.8184    9.7331 H         1 RES1    0.0000
@<TRIPOS>BOND
     1    1    2 1
     2    3    4 1
     3    5    8 2
     4    6    1 1
     5    7    8 1
     6    8   15 1
     7    9    3 1
     8   10    9 1
     9   11    9 1
    10   12   15 1
    11   13    9 1
    12   14   13 1
    13   15    6 1
    14   16    7 1
    15   17   13 1
    16   18   17 1
    17   19   17 1
    18   20   19 1
    19   21   19 1
    20   22   16 ar
    21   23   22 1
    22   24   12 ar
    23   25   24 1
    24   26   19 1
    25   27   26 1
    26   28   26 1
    27   29    6 1
    28   30   29 1
    29   31   29 1
    30   32   24 ar
    31   33   32 1
    32   34    7 1
    33   35   34 1
    34   36   34 1
    35   37   34 1
    36   38   22 ar
    37   39   38 1
    38   40   26 1
    39   41   40 1
    40   42   40 1
    41   43   40 1
    42   44   31 ar
    43   45   44 1
    44   46   44 ar
    45   47   46 1
    46   48   31 ar
    47   49   48 1
    48   50   46 ar
    49   51   50 1
    50   52   48 ar
    51   53   52 1
    52   12   16 ar
    53   13   29 1
    54   15   17 1
    55   32   38 ar
    56   50   52 ar
@<TRIPOS>SUBSTRUCTURE
     1 RES1 1

@<TRIPOS>CRYSIN
  14.7656   14.7656   23.9259  90.0000  90.0000  90.0000  92 1

