# MOL2 file generated by ConQuest
# Please check atom types

@<TRIPOS>MOLECULE
OCAKEK
    42    43     1
SMALL
NO_CHARGES
****
Generated from CSD

@<TRIPOS>ATOM
      1 C1         7.6131   18.0985    7.0149 C.3       1 RES1    0.0000
      2 C2         7.5449   16.8979    8.0026 C.3       1 RES1    0.0000
      3 C3         7.2114   16.0977    5.8000 C.2       1 RES1    0.0000
      4 C4         7.0074   15.1965    4.6761 C.ar      1 RES1    0.0000
      5 C5         6.1107   14.1376    4.7293 C.ar      1 RES1    0.0000
      6 H1         5.6256   13.9940    5.5096 H         1 RES1    0.0000
      7 C6         5.9227   13.2971    3.6560 C.ar      1 RES1    0.0000
      8 H2         5.3090   12.6009    3.7100 H         1 RES1    0.0000
      9 C7         6.6544   13.4956    2.4926 C.ar      1 RES1    0.0000
     10 C8         7.5697   14.5349    2.4317 C.ar      1 RES1    0.0000
     11 H3         8.0690   14.6633    1.6573 H         1 RES1    0.0000
     12 C9         7.7453   15.3746    3.5016 C.ar      1 RES1    0.0000
     13 H4         8.3608   16.0693    3.4463 H         1 RES1    0.0000
     14 C10        5.7001   11.6051    1.3764 C.3       1 RES1    0.0000
     15 H5         4.7964   11.8690    1.6112 H         1 RES1    0.0000
     16 H6         6.0114   10.9605    2.0318 H         1 RES1    0.0000
     17 C11        5.7196   10.9970    0.0084 C.3       1 RES1    0.0000
     18 H7         5.1263   10.2303   -0.0146 H         1 RES1    0.0000
     19 H8         5.3986   11.6443   -0.6382 H         1 RES1    0.0000
     20 C12        6.3901   19.0069    7.0304 C.3       1 RES1    0.0000
     21 H9         6.4522   19.6388    6.3110 H         1 RES1    0.0000
     22 H10        6.3511   19.4767    7.8657 H         1 RES1    0.0000
     23 H11        5.5972   18.4768    6.9241 H         1 RES1    0.0000
     24 C13        8.8805   18.9358    7.0886 C.3       1 RES1    0.0000
     25 H12        9.6415   18.3805    6.9053 H         1 RES1    0.0000
     26 H13        8.9630   19.3146    7.9661 H         1 RES1    0.0000
     27 H14        8.8353   19.6420    6.4386 H         1 RES1    0.0000
     28 C14        6.5631   17.0600    9.1486 C.3       1 RES1    0.0000
     29 H15        5.6877   17.2393    8.7969 H         1 RES1    0.0000
     30 H16        6.8389   17.7914    9.7050 H         1 RES1    0.0000
     31 H17        6.5409   16.2522    9.6674 H         1 RES1    0.0000
     32 C15        8.9054   16.4471    8.5288 C.3       1 RES1    0.0000
     33 H18        8.8060   15.6215    9.0082 H         1 RES1    0.0000
     34 H19        9.2592   17.1173    9.1170 H         1 RES1    0.0000
     35 H20        9.5076   16.3180    7.7925 H         1 RES1    0.0000
     36 N1         7.5892   17.3855    5.6960 N.pl3     1 RES1    0.0000
     37 N2         7.0739   15.7979    7.0999 N.pl3     1 RES1    0.0000
     38 O1         7.7657   18.0309    4.6033 O.2       1 RES1    0.0000
     39 O2         6.7360   14.6512    7.5707 O.2       1 RES1    0.0000
     40 O3         6.5555   12.7456    1.3660 O.3       1 RES1    0.0000
     41 O4         7.0118   10.5969   -0.3338 O.3       1 RES1    0.0000
     42 H21        6.9976   10.2222   -1.0630 H         1 RES1    0.0000
@<TRIPOS>BOND
     1    1    2 1
     2    2   28 1
     3    3    4 1
     4    4    5 ar
     5    5    6 1
     6    7    5 ar
     7    8    7 1
     8    9    7 ar
     9   10    9 ar
    10   11   10 1
    11   12    4 ar
    12   13   12 1
    13   14   15 1
    14   16   14 1
    15   17   14 1
    16   18   17 1
    17   19   17 1
    18   20    1 1
    19   21   20 1
    20   22   20 1
    21   23   20 1
    22   24    1 1
    23   25   24 1
    24   26   24 1
    25   27   24 1
    26   28   29 1
    27   30   28 1
    28   31   28 1
    29   32    2 1
    30   33   32 1
    31   34   32 1
    32   35   32 1
    33   36    1 1
    34   37    2 1
    35   38   36 1
    36   39   37 1
    37   40    9 1
    38   41   17 1
    39   42   41 1
    40    3   36 1
    41    3   37 2
    42   10   12 ar
    43   14   40 1
@<TRIPOS>SUBSTRUCTURE
     1 RES1 1

@<TRIPOS>CRYSIN
   8.8690   16.0500   20.9250  90.0000  90.0000  90.0000  61 1

