# MOL2 file generated by ConQuest
# Please check atom types

@<TRIPOS>MOLECULE
OCALOU
    29    29     1
SMALL
NO_CHARGES
****
Generated from CSD

@<TRIPOS>ATOM
      1 O1         1.4558    2.8606    9.9017 O.2       1 RES1    0.0000
      2 O2         1.6422    0.7527    9.4851 O.2       1 RES1    0.0000
      3 C1         1.9374   -1.8170    0.4360 C.3       1 RES1    0.0000
      4 H1         2.8248   -2.1733    0.5235 H         1 RES1    0.0000
      5 H2         1.8470   -1.3899   -0.4199 H         1 RES1    0.0000
      6 H3         1.2979   -2.5300    0.5062 H         1 RES1    0.0000
      7 N1         1.5837    1.9291    9.0967 N.pl3     1 RES1    0.0000
      8 N2         2.0632    3.0433    3.6968 N.3       1 RES1    0.0000
      9 H4         1.9809    3.8664    3.4618 H         1 RES1    0.0000
     10 N3         1.4262    0.4245    1.1191 N.am      1 RES1    0.0000
     11 H5         1.4395    0.6086    0.2796 H         1 RES1    0.0000
     12 C2         1.6526    2.1983    7.7070 C.ar      1 RES1    0.0000
     13 C3         1.7601    1.1572    6.8050 C.ar      1 RES1    0.0000
     14 H6         1.7551    0.2786    7.1099 H         1 RES1    0.0000
     15 C4         1.8723    1.4131    5.4647 C.ar      1 RES1    0.0000
     16 H7         1.9288    0.7073    4.8607 H         1 RES1    0.0000
     17 C5         1.9031    2.7417    4.9965 C.ar      1 RES1    0.0000
     18 C6         1.7619    3.7808    5.9318 C.ar      1 RES1    0.0000
     19 H8         1.7475    4.6631    5.6373 H         1 RES1    0.0000
     20 C7         1.6468    3.5190    7.2560 C.ar      1 RES1    0.0000
     21 H9         1.5646    4.2188    7.8646 H         1 RES1    0.0000
     22 C8         2.3681    2.0656    2.6576 C.3       1 RES1    0.0000
     23 H10        2.9090    1.3538    3.0338 H         1 RES1    0.0000
     24 H11        2.8834    2.4930    1.9546 H         1 RES1    0.0000
     25 C9         1.1133    1.4813    2.0708 C.3       1 RES1    0.0000
     26 H12        0.5605    1.1222    2.7818 H         1 RES1    0.0000
     27 H13        0.6103    2.1796    1.6233 H         1 RES1    0.0000
     28 C10        1.6924   -0.8226    1.5152 C.2       1 RES1    0.0000
     29 O3         1.7166   -1.1255    2.7033 O.2       1 RES1    0.0000
@<TRIPOS>BOND
     1    1    7 2
     2    2    7 2
     3    3    4 1
     4    5    3 1
     5    6    3 1
     6    7   12 1
     7    8    9 1
     8   10   11 1
     9   12   13 ar
    10   13   14 1
    11   15   13 ar
    12   16   15 1
    13   17    8 1
    14   18   17 ar
    15   19   18 1
    16   20   12 ar
    17   21   20 1
    18   22    8 1
    19   23   22 1
    20   24   22 1
    21   25   10 1
    22   26   25 1
    23   27   25 1
    24   28    3 1
    25   29   28 2
    26   10   28 1
    27   15   17 ar
    28   18   20 ar
    29   22   25 1
@<TRIPOS>SUBSTRUCTURE
     1 RES1 1

@<TRIPOS>CRYSIN
   6.7310    6.8820   11.5080  88.6200  89.9880  88.1060   2 1

