# MOL2 file generated by ConQuest
# Please check atom types

@<TRIPOS>MOLECULE
OCAMAJ
    18    19     1
SMALL
USER_CHARGES
****
Generated from CSD

@<TRIPOS>ATOM
      1 O1         0.0969   -1.4604    5.0020 O.2       1 RES1    0.0000
      2 C1         1.3983    1.1234    5.3577 C.2       1 RES1    0.0000
      3 C2         1.1591    0.2792    7.6472 C.2       1 RES1    0.0000
      4 H1         0.7720   -0.3184    8.2879 H         1 RES1    0.0000
      5 N1         0.7632    1.2737    4.0430 N.pl3     1 RES1    0.0000
      6 O2        -1.2023   -0.8647    6.6395 O.2       1 RES1    0.0000
      7 O3        -0.4468    1.0637    3.9893 O.2       1 RES1    0.0000
      8 N2        -0.1987   -0.7508    5.9513 N.pl3     1 RES1    0.0000
      9 C3         2.4572    1.9228    5.6294 C.2       1 RES1    0.0000
     10 H2         2.8252    2.4705    4.9847 H         1 RES1    0.0000
     11 C4         0.7791    0.2769    6.3445 C.2       1 RES1    0.0000
     12 O4         1.4487    1.6347    3.1005 O.2       1 RES1    0.0000
     13 C5         2.2481    1.1371    7.9457 C.2       1 RES1    0.0000
     14 O5         2.7080    0.9723   10.2596 O.2       1 RES1   -1.0000
     15 O6         3.9826    2.2358    8.8196 O.3       1 RES1    0.0000
     16 N3         2.8717    1.3334    9.1113 N.pl3     1 RES1    1.0000
     17 C6         2.9270    1.9020    6.9719 C.2       1 RES1    0.0000
     18 N4         3.9640    2.5635    7.4822 N.2       1 RES1    0.0000
@<TRIPOS>BOND
     1    1    8 2
     2    2    5 1
     3    3    4 1
     4    5    7 2
     5    6    8 2
     6    8   11 1
     7    9    2 2
     8   10    9 1
     9   11    2 1
    10   12    5 2
    11   13    3 1
    12   14   16 1
    13   15   16 1
    14   16   13 2
    15   17    9 1
    16   18   15 1
    17    3   11 2
    18   13   17 1
    19   17   18 2
@<TRIPOS>SUBSTRUCTURE
     1 RES1 1

@<TRIPOS>CRYSIN
   5.4751   10.9799   13.2925  90.0000  90.0000  90.0000  29 5

