# MOL2 file generated by ConQuest
# Please check atom types

@<TRIPOS>MOLECULE
OCATIY
    33    35     1
SMALL
NO_CHARGES
****
Generated from CSD

@<TRIPOS>ATOM
      1 O1         4.4088    2.2634    6.1116 O.3       1 RES1    0.0000
      2 C1         5.3589    1.5722    6.8041 C.2       1 RES1    0.0000
      3 C2         5.1684    0.0874    6.5472 C.3       1 RES1    0.0000
      4 H1         6.0378   -0.4029    6.5036 H         1 RES1    0.0000
      5 C3         4.4438    0.1013    5.1984 C.3       1 RES1    0.0000
      6 H2         5.0694    0.2457    4.4447 H         1 RES1    0.0000
      7 H3         3.9268   -0.7295    5.0479 H         1 RES1    0.0000
      8 C4         3.5402    1.2999    5.4247 C.3       1 RES1    0.0000
      9 H4         3.1812    1.6648    4.5665 H         1 RES1    0.0000
     10 O2         6.1497    2.1250    7.5146 O.2       1 RES1    0.0000
     11 C5         4.2277   -0.4890    7.6241 C.3       1 RES1    0.0000
     12 H5         3.9944   -1.4257    7.3630 H         1 RES1    0.0000
     13 C6         2.9013    0.3314    7.7235 C.3       1 RES1    0.0000
     14 H6         3.0070    1.0472    8.4139 H         1 RES1    0.0000
     15 C7         2.4281    0.9615    6.4104 C.3       1 RES1    0.0000
     16 H7         1.8710    1.7711    6.5952 H         1 RES1    0.0000
     17 C8         4.8380   -0.5247    9.0116 C.3       1 RES1    0.0000
     18 H8         5.0370    0.4018    9.3001 H         1 RES1    0.0000
     19 H9         4.1772   -0.9033    9.6446 H         1 RES1    0.0000
     20 N1         6.0968   -1.3374    9.0766 N.pl3     1 RES1    0.0000
     21 O3         6.2433   -2.2572    8.2837 O.2       1 RES1    0.0000
     22 O4         6.9082   -1.0478    9.9501 O.2       1 RES1    0.0000
     23 O5         1.8034   -0.5126    8.0836 O.3       1 RES1    0.0000
     24 C9         0.9512   -0.6974    6.9464 C.3       1 RES1    0.0000
     25 O6         1.6251   -0.0723    5.8482 O.3       1 RES1    0.0000
     26 C10       -0.3714   -0.0221    7.1972 C.3       1 RES1    0.0000
     27 H10       -0.2180    0.9132    7.4454 H         1 RES1    0.0000
     28 H11       -0.8398   -0.4815    7.9244 H         1 RES1    0.0000
     29 H12       -0.9160   -0.0587    6.3829 H         1 RES1    0.0000
     30 C11        0.8741   -2.1774    6.6532 C.3       1 RES1    0.0000
     31 H13        0.3380   -2.3224    5.8447 H         1 RES1    0.0000
     32 H14        0.4561   -2.6389    7.4094 H         1 RES1    0.0000
     33 H15        1.7777   -2.5294    6.5140 H         1 RES1    0.0000
@<TRIPOS>BOND
     1    1    2 1
     2    2    3 1
     3    3    4 1
     4    5    3 1
     5    6    5 1
     6    7    5 1
     7    8    1 1
     8    9    8 1
     9   10    2 2
    10   11    3 1
    11   12   11 1
    12   13   11 1
    13   14   13 1
    14   15    8 1
    15   16   15 1
    16   17   11 1
    17   18   17 1
    18   19   17 1
    19   20   17 1
    20   21   20 2
    21   22   20 2
    22   23   13 1
    23   24   23 1
    24   25   15 1
    25   26   24 1
    26   27   26 1
    27   28   26 1
    28   29   26 1
    29   30   24 1
    30   31   30 1
    31   32   30 1
    32   33   30 1
    33    5    8 1
    34   13   15 1
    35   24   25 1
@<TRIPOS>SUBSTRUCTURE
     1 RES1 1

@<TRIPOS>CRYSIN
   9.5218   11.0694   11.5990  90.0000  90.0000  90.0000  19 1

