# MOL2 file generated by ConQuest
# Please check atom types

@<TRIPOS>MOLECULE
OCAYEW
    48    52     1
SMALL
NO_CHARGES
****
Generated from CSD

@<TRIPOS>ATOM
      1 O1         0.8570    0.2605    5.2115 O.2       1 RES1    0.0000
      2 N1         3.4910    2.8538    6.7356 N.3       1 RES1    0.0000
      3 C1         3.7237    1.3939    6.6691 C.3       1 RES1    0.0000
      4 H1         3.2043    0.9998    7.3728 H         1 RES1    0.0000
      5 C2         3.1977    0.8080    5.3317 C.3       1 RES1    0.0000
      6 H2         3.3455   -0.1400    5.2925 H         1 RES1    0.0000
      7 C3         1.7127    1.1169    5.3087 C.2       1 RES1    0.0000
      8 C4         1.4237    2.5945    5.3850 C.3       1 RES1    0.0000
      9 H3         0.4768    2.7467    5.3715 H         1 RES1    0.0000
     10 C5         2.0976    3.2884    4.2074 C.3       1 RES1    0.0000
     11 H4         1.9298    4.2334    4.2487 H         1 RES1    0.0000
     12 H5         1.7380    2.9567    3.3810 H         1 RES1    0.0000
     13 C6         3.6145    3.0206    4.2577 C.3       1 RES1    0.0000
     14 H6         4.0553    3.4801    3.5391 H         1 RES1    0.0000
     15 C7         4.1379    3.5288    5.5992 C.3       1 RES1    0.0000
     16 H7         5.0821    3.3630    5.6482 H         1 RES1    0.0000
     17 H8         3.9994    4.4768    5.6680 H         1 RES1    0.0000
     18 C8         2.0337    3.1286    6.7038 C.3       1 RES1    0.0000
     19 H9         1.9391    4.0842    6.6884 H         1 RES1    0.0000
     20 C9         3.8675    1.5110    4.1544 C.3       1 RES1    0.0000
     21 H10        3.5146    1.1717    3.3289 H         1 RES1    0.0000
     22 H11        4.8118    1.3421    4.1715 H         1 RES1    0.0000
     23 C10        5.1940    1.0804    6.9686 C.ar      1 RES1    0.0000
     24 C11        5.7907   -0.0654    6.4800 C.ar      1 RES1    0.0000
     25 H12        5.3086   -0.6741    5.9159 H         1 RES1    0.0000
     26 C12        7.1225   -0.3180    6.8310 C.ar      1 RES1    0.0000
     27 C13        7.8536    0.4961    7.6351 C.ar      1 RES1    0.0000
     28 H13        8.7686    0.2861    7.8381 H         1 RES1    0.0000
     29 C14        7.2503    1.6206    8.1399 C.ar      1 RES1    0.0000
     30 H14        7.7431    2.2065    8.7202 H         1 RES1    0.0000
     31 C15        5.9252    1.9143    7.8101 C.ar      1 RES1    0.0000
     32 H15        5.5176    2.7132    8.1525 H         1 RES1    0.0000
     33 N2         7.7258   -1.5400    6.2985 N.pl3     1 RES1    0.0000
     34 O2         7.0384   -2.3637    5.7362 O.2       1 RES1    0.0000
     35 O3         8.9404   -1.6510    6.4243 O.2       1 RES1    0.0000
     36 C16        1.3331    2.6417    7.9632 C.ar      1 RES1    0.0000
     37 C17       -0.0533    2.4880    7.9818 C.ar      1 RES1    0.0000
     38 H16       -0.5673    2.6630    7.1896 H         1 RES1    0.0000
     39 C18       -0.6619    2.0528    9.1366 C.ar      1 RES1    0.0000
     40 C19       -0.0053    1.7804   10.3047 C.ar      1 RES1    0.0000
     41 H17       -0.4701    1.4715   11.0862 H         1 RES1    0.0000
     42 C20        1.3784    1.9599   10.2921 C.ar      1 RES1    0.0000
     43 H18        1.8912    1.7834   11.0844 H         1 RES1    0.0000
     44 C21        2.0177    2.3952    9.1503 C.ar      1 RES1    0.0000
     45 H19        2.9673    2.5367    9.1747 H         1 RES1    0.0000
     46 N3        -2.1375    1.9173    9.1210 N.pl3     1 RES1    0.0000
     47 O4        -2.6929    1.4304   10.0688 O.2       1 RES1    0.0000
     48 O5        -2.7368    2.3708    8.1629 O.2       1 RES1    0.0000
@<TRIPOS>BOND
     1    1    7 2
     2    2    3 1
     3    3    4 1
     4    5    3 1
     5    6    5 1
     6    7    5 1
     7    8    7 1
     8    9    8 1
     9   10    8 1
    10   11   10 1
    11   12   10 1
    12   13   10 1
    13   14   13 1
    14   15    2 1
    15   16   15 1
    16   17   15 1
    17   18    2 1
    18   19   18 1
    19   20    5 1
    20   21   20 1
    21   22   20 1
    22   23    3 1
    23   24   23 ar
    24   25   24 1
    25   26   24 ar
    26   27   26 ar
    27   28   27 1
    28   29   27 ar
    29   30   29 1
    30   31   23 ar
    31   32   31 1
    32   33   26 1
    33   34   33 2
    34   35   33 2
    35   36   18 1
    36   37   36 ar
    37   38   37 1
    38   39   37 ar
    39   40   39 ar
    40   41   40 1
    41   42   40 ar
    42   43   42 1
    43   44   36 ar
    44   45   44 1
    45   46   39 1
    46   47   46 2
    47   48   46 2
    48    8   18 1
    49   13   15 1
    50   13   20 1
    51   29   31 ar
    52   42   44 ar
@<TRIPOS>SUBSTRUCTURE
     1 RES1 1

@<TRIPOS>CRYSIN
  13.3180   15.2170   17.9650  90.0000  90.0000  90.0000  61 1

