# MOL2 file generated by ConQuest
# Please check atom types

@<TRIPOS>MOLECULE
OCAYID
    62    64     2
SMALL
NO_CHARGES
****
Generated from CSD

@<TRIPOS>ATOM
      1 N1         2.1190    5.8759    6.1971 N.ar      1 RES1    0.0000
      2 N2         2.5639    6.4939    8.4552 N.ar      1 RES1    0.0000
      3 C1         2.2490    5.5975    7.5106 C.ar      1 RES1    0.0000
      4 C2         2.0351    4.1995    7.9190 C.ar      1 RES1    0.0000
      5 C3         2.0427    3.8526    9.2720 C.ar      1 RES1    0.0000
      6 H1         2.1616    4.5092    9.9195 H         1 RES1    0.0000
      7 C4         2.2976    7.1445    5.8222 C.ar      1 RES1    0.0000
      8 C5         1.8290    3.2044    6.9909 C.ar      1 RES1    0.0000
      9 H2         1.8207    3.4220    6.0862 H         1 RES1    0.0000
     10 C6         2.1546    7.4560    4.3314 C.3       1 RES1    0.0000
     11 O1         0.1648    6.2253    3.9993 O.2       1 RES1    0.0000
     12 C7         2.7806    7.7411    8.0402 C.ar      1 RES1    0.0000
     13 H3         3.0216    8.3826    8.6694 H         1 RES1    0.0000
     14 N3         1.3501    6.2935    3.7304 N.pl3     1 RES1    0.0000
     15 C8         1.6351    1.9008    7.3645 C.ar      1 RES1    0.0000
     16 H4         1.4862    1.2472    6.7203 H         1 RES1    0.0000
     17 C9         2.6638    8.1204    6.7286 C.ar      1 RES1    0.0000
     18 H5         2.8235    8.9965    6.4613 H         1 RES1    0.0000
     19 C10        1.8744    2.5311    9.6472 C.ar      1 RES1    0.0000
     20 H6         1.9059    2.3024   10.5487 H         1 RES1    0.0000
     21 O2         1.9244    5.5013    3.0149 O.2       1 RES1    0.0000
     22 C11        1.6623    1.5598    8.7092 C.ar      1 RES1    0.0000
     23 H7         1.5378    0.6766    8.9715 H         1 RES1    0.0000
     24 C12        3.5102    7.5425    3.6939 C.3       1 RES1    0.0000
     25 H8         4.0149    8.2448    4.1089 H         1 RES1    0.0000
     26 H9         3.4114    7.7298    2.7575 H         1 RES1    0.0000
     27 H10        3.9706    6.7077    3.8051 H         1 RES1    0.0000
     28 C13        1.3334    8.7128    4.0740 C.3       1 RES1    0.0000
     29 H11        0.5146    8.6679    4.5737 H         1 RES1    0.0000
     30 H12        1.1328    8.7773    3.1377 H         1 RES1    0.0000
     31 H13        1.8336    9.4836    4.3480 H         1 RES1    0.0000
     32 N4         5.4297    0.9719    2.1019 N.ar      2 RES2    0.0000
     33 C14        5.4179    0.7051    0.7985 C.ar      2 RES2    0.0000
     34 N5         5.2075    1.6092   -0.1743 N.ar      2 RES2    0.0000
     35 C15        5.6311   -0.6993    0.3735 C.ar      2 RES2    0.0000
     36 C16        5.2986    2.5008    3.9728 C.3       2 RES2    0.0000
     37 C17        5.9399   -1.6764    1.3281 C.ar      2 RES2    0.0000
     38 H14        5.9985   -1.4447    2.2263 H         2 RES2    0.0000
     39 C18        5.0052    3.2324    1.5489 C.ar      2 RES2    0.0000
     40 H15        4.8595    4.1158    1.8013 H         2 RES2    0.0000
     41 C19        5.5238   -1.0913   -0.9596 C.ar      2 RES2    0.0000
     42 H16        5.3057   -0.4606   -1.6087 H         2 RES2    0.0000
     43 C20        5.2289    2.2311    2.4803 C.ar      2 RES2    0.0000
     44 N6         4.4284    1.3976    4.6036 N.pl3     2 RES2    0.0000
     45 O3         3.2568    1.3903    4.2716 O.2       2 RES2    0.0000
     46 C21        6.0622   -3.3357   -0.3951 C.ar      2 RES2    0.0000
     47 H17        6.2192   -4.2122   -0.6641 H         2 RES2    0.0000
     48 C22        5.7339   -2.3913   -1.3265 C.ar      2 RES2    0.0000
     49 H18        5.6531   -2.6360   -2.2213 H         2 RES2    0.0000
     50 C23        4.7070    3.8128    4.4326 C.3       2 RES2    0.0000
     51 H19        5.2653    4.5369    4.1404 H         2 RES2    0.0000
     52 H20        4.6505    3.8205    5.3922 H         2 RES2    0.0000
     53 H21        3.8277    3.9159    4.0608 H         2 RES2    0.0000
     54 C24        6.1619   -3.0007    0.9330 C.ar      2 RES2    0.0000
     55 H22        6.3740   -3.6495    1.5655 H         2 RES2    0.0000
     56 C25        5.0117    2.8456    0.2291 C.ar      2 RES2    0.0000
     57 H23        4.8698    3.4992   -0.4184 H         2 RES2    0.0000
     58 C26        6.7128    2.3650    4.4658 C.3       2 RES2    0.0000
     59 H24        7.0418    1.4870    4.2583 H         2 RES2    0.0000
     60 H25        6.7350    2.4984    5.4171 H         2 RES2    0.0000
     61 H26        7.2655    3.0228    4.0375 H         2 RES2    0.0000
     62 O4         4.9123    0.6397    5.4005 O.2       2 RES2    0.0000
@<TRIPOS>BOND
     1    1    3 ar
     2    2    3 ar
     3    3    4 1
     4    4    5 ar
     5    5    6 1
     6    7    1 ar
     7    8    4 ar
     8    9    8 1
     9   10    7 1
    10   11   14 2
    11   12    2 ar
    12   13   12 1
    13   14   10 1
    14   15    8 ar
    15   16   15 1
    16   17    7 ar
    17   18   17 1
    18   19    5 ar
    19   20   19 1
    20   21   14 2
    21   22   15 ar
    22   23   22 1
    23   24   10 1
    24   25   24 1
    25   26   24 1
    26   27   24 1
    27   28   10 1
    28   29   28 1
    29   30   28 1
    30   31   28 1
    31   32   33 ar
    32   33   34 ar
    33   34   56 ar
    34   35   33 1
    35   36   43 1
    36   37   35 ar
    37   38   37 1
    38   39   40 1
    39   41   35 ar
    40   42   41 1
    41   43   32 ar
    42   44   36 1
    43   45   44 2
    44   46   47 1
    45   48   41 ar
    46   49   48 1
    47   50   36 1
    48   51   50 1
    49   52   50 1
    50   53   50 1
    51   54   37 ar
    52   55   54 1
    53   56   39 ar
    54   57   56 1
    55   58   36 1
    56   59   58 1
    57   60   58 1
    58   61   58 1
    59   62   44 2
    60   12   17 ar
    61   19   22 ar
    62   39   43 ar
    63   46   48 ar
    64   46   54 ar
@<TRIPOS>SUBSTRUCTURE
     1 RES1 1
     2 RES2 32

@<TRIPOS>CRYSIN
   7.3577    9.9881   16.6120  89.3950  88.0580  89.1710   2 1

