# MOL2 file generated by ConQuest
# Please check atom types

@<TRIPOS>MOLECULE
OCEBAA
    30    30     2
SMALL
NO_CHARGES
****
Generated from CSD

@<TRIPOS>ATOM
      1 N1         1.9039   -0.4318    5.1000 N.pl3     1 RES1    0.0000
      2 O1         1.7831   -1.6435    4.5076 O.3       1 RES1    0.0000
      3 N2         2.9913    0.2969    4.8609 N.2       1 RES1    0.0000
      4 N3         2.8922    1.3512    5.6456 N.2       1 RES1    0.0000
      5 C1         1.7431    1.2723    6.3605 C.2       1 RES1    0.0000
      6 C2         1.4090    2.3184    7.3431 C.2       1 RES1    0.0000
      7 O2         2.0796    3.2994    7.5171 O.2       1 RES1    0.0000
      8 O3         0.2921    2.0209    8.0103 O.3       1 RES1    0.0000
      9 C3        -0.1425    3.0464    8.9411 C.3       1 RES1    0.0000
     10 C4         1.0965    0.1149    6.0136 C.2       1 RES1    0.0000
     11 N4         3.7864    4.5216    5.4450 N.pl3     2 RES2    0.0000
     12 O4         4.5822    3.4269    5.5369 O.3       2 RES2    0.0000
     13 N5         2.7566    4.5104    4.6130 N.2       2 RES2    0.0000
     14 N6         2.2093    5.7034    4.7257 N.2       2 RES2    0.0000
     15 C5         2.9116    6.4449    5.6166 C.2       2 RES2    0.0000
     16 C6         2.5880    7.8519    5.9064 C.2       2 RES2    0.0000
     17 O5         3.1981    8.5319    6.6855 O.2       2 RES2    0.0000
     18 O6         1.5476    8.2536    5.1820 O.3       2 RES2    0.0000
     19 C7         1.1507    9.6385    5.3254 C.3       2 RES2    0.0000
     20 C8         3.9410    5.6753    6.0937 C.2       2 RES2    0.0000
     21 H1         0.9227   -1.6241    3.8400 H         1 RES1    0.0000
     22 H2         0.3192   -0.2884    6.2823 H         1 RES1    0.0000
     23 H3        -1.0126    2.8536    9.2161 H         1 RES1    0.0000
     24 H4         0.4303    3.0813    9.7076 H         1 RES1    0.0000
     25 H5        -0.1389    3.9009    8.5249 H         1 RES1    0.0000
     26 H6         3.9573    2.7018    5.6218 H         2 RES2    0.0000
     27 H7         4.6426    5.8286    6.7124 H         2 RES2    0.0000
     28 H8         1.1814    9.9269    6.1901 H         2 RES2    0.0000
     29 H9         1.7708   10.1849    4.8384 H         2 RES2    0.0000
     30 H10        0.2520    9.7144    4.9767 H         2 RES2    0.0000
@<TRIPOS>BOND
     1    1    2 1
     2    2   21 1
     3    3    1 1
     4    4    3 2
     5    5    4 1
     6    6    5 1
     7    7    6 2
     8    8    6 1
     9    9    8 1
    10   10    1 1
    11   11   12 1
    12   12   26 1
    13   13   11 1
    14   14   13 2
    15   15   14 1
    16   16   15 1
    17   17   16 2
    18   18   16 1
    19   19   18 1
    20   20   11 1
    21   22   10 1
    22   23    9 1
    23   24    9 1
    24   25    9 1
    25   27   20 1
    26   28   19 1
    27   29   19 1
    28   30   19 1
    29    5   10 2
    30   15   20 2
@<TRIPOS>SUBSTRUCTURE
     1 RES1 1
     2 RES2 11

@<TRIPOS>CRYSIN
   5.1815   15.1787   15.4086  90.0000  94.5460  90.0000 231 1

