# MOL2 file generated by ConQuest
# Please check atom types

@<TRIPOS>MOLECULE
OCEHEL
    23    24     1
SMALL
NO_CHARGES
****
Generated from CSD

@<TRIPOS>ATOM
      1 C1         4.9636    4.1065    6.8075 C.3       1 RES1    0.0000
      2 H1         5.1962    3.1646    6.7934 H         1 RES1    0.0000
      3 H2         5.4896    4.5440    7.4950 H         1 RES1    0.0000
      4 C2         4.1098    5.4114    5.2197 C.ar      1 RES1    0.0000
      5 C3         3.9239    6.2712    4.1771 C.ar      1 RES1    0.0000
      6 H3         4.6088    6.4421    3.5719 H         1 RES1    0.0000
      7 C4         2.6695    6.8933    4.0411 C.ar      1 RES1    0.0000
      8 C5         1.6879    6.5858    4.9932 C.ar      1 RES1    0.0000
      9 C6         1.8822    5.7231    6.0640 C.ar      1 RES1    0.0000
     10 H4         1.2128    5.5488    6.6851 H         1 RES1    0.0000
     11 C7         3.1157    5.1481    6.1475 C.ar      1 RES1    0.0000
     12 C8         2.4742    7.9367    3.0391 C.2       1 RES1    0.0000
     13 H5         1.8737    8.6135    3.2548 H         1 RES1    0.0000
     14 C9         3.0692    8.0235    1.8393 C.2       1 RES1    0.0000
     15 C10        2.8681    9.1988    1.0341 C.1       1 RES1    0.0000
     16 C11        3.8821    6.9977    1.2524 C.1       1 RES1    0.0000
     17 N1         0.3520    7.1676    4.8826 N.pl3     1 RES1    0.0000
     18 N2         2.7260   10.1308    0.4012 N.1       1 RES1    0.0000
     19 N3         4.5255    6.1925    0.7709 N.1       1 RES1    0.0000
     20 O1         3.5658    4.2695    7.0720 O.3       1 RES1    0.0000
     21 O2         5.2213    4.7016    5.5292 O.3       1 RES1    0.0000
     22 O3        -0.0823    7.4324    3.7703 O.2       1 RES1    0.0000
     23 O4        -0.2810    7.3445    5.9038 O.2       1 RES1    0.0000
@<TRIPOS>BOND
     1    1    2 1
     2    3    1 1
     3    4    5 ar
     4    5    6 1
     5    7    5 ar
     6    8    7 ar
     7    9    8 ar
     8   10    9 1
     9   11    4 ar
    10   12    7 1
    11   13   12 1
    12   14   12 2
    13   15   14 1
    14   16   14 1
    15   17    8 1
    16   18   15 3
    17   19   16 3
    18   20    1 1
    19   21    1 1
    20   22   17 2
    21   23   17 2
    22    4   21 1
    23    9   11 ar
    24   11   20 1
@<TRIPOS>SUBSTRUCTURE
     1 RES1 1

@<TRIPOS>CRYSIN
   7.0953    8.8847    9.2212  84.4700  67.6340  78.8740   2 1

