# MOL2 file generated by ConQuest
# Please check atom types

@<TRIPOS>MOLECULE
OCEJUD
   112   112     2
SMALL
NO_CHARGES
****
Generated from CSD

@<TRIPOS>ATOM
      1 C1         0.2199    0.4503    8.4361 C.ar      1 RES1    0.0000
      2 H1        -0.2350    0.7138    9.2030 H         1 RES1    0.0000
      3 C2         1.5717    0.6155    8.3839 C.ar      1 RES1    0.0000
      4 C3         2.2753    0.1426    7.2355 C.ar      1 RES1    0.0000
      5 C4         1.5755   -0.3451    6.1654 C.ar      1 RES1    0.0000
      6 C5         0.1414   -0.4562    6.1554 C.ar      1 RES1    0.0000
      7 C6        -0.4898   -0.0875    7.4062 C.ar      1 RES1    0.0000
      8 C7        -0.2934   -0.9330    3.6820 C.3       1 RES1    0.0000
      9 H2         0.6784   -0.9232    3.5455 H         1 RES1    0.0000
     10 C8         4.3696   -0.5978    8.1329 C.3       1 RES1    0.0000
     11 H3         5.3099   -0.5319    7.9462 H         1 RES1    0.0000
     12 H4         4.1037   -1.5200    8.1189 H         1 RES1    0.0000
     13 H5         4.1891   -0.2271    9.0002 H         1 RES1    0.0000
     14 C9         2.3988   -0.9399    5.0271 C.2       1 RES1    0.0000
     15 C10        3.7968   -0.4267    3.0616 C.3       1 RES1    0.0000
     16 H6         3.4651   -1.2870    2.7264 H         1 RES1    0.0000
     17 C11        3.5570    0.6086    1.9655 C.3       1 RES1    0.0000
     18 H7         2.6169    0.6764    1.7888 H         1 RES1    0.0000
     19 H8         4.0146    0.3392    1.1644 H         1 RES1    0.0000
     20 H9         3.8923    1.4610    2.2526 H         1 RES1    0.0000
     21 C12        5.2560   -0.5968    3.3527 C.3       1 RES1    0.0000
     22 H10        5.6962   -0.8544    2.5156 H         1 RES1    0.0000
     23 C13        5.6279   -1.5780    4.3606 C.3       1 RES1    0.0000
     24 H11        5.2846   -2.4392    4.1096 H         1 RES1    0.0000
     25 H12        5.2588   -1.3214    5.2078 H         1 RES1    0.0000
     26 H13        6.5845   -1.6222    4.4268 H         1 RES1    0.0000
     27 C14        5.8709    0.7905    3.8045 C.3       1 RES1    0.0000
     28 H14        6.8069    0.6823    3.9852 H         1 RES1    0.0000
     29 H15        5.4249    1.0943    4.5995 H         1 RES1    0.0000
     30 H16        5.7521    1.4364    3.1038 H         1 RES1    0.0000
     31 C15       -4.6919    3.1796   18.8503 C.ar      2 RES2    0.0000
     32 H17       -5.1258    3.0468   19.6628 H         2 RES2    0.0000
     33 C16       -3.3582    2.9544   18.7589 C.ar      2 RES2    0.0000
     34 C17       -2.6666    3.2336   17.5596 C.ar      2 RES2    0.0000
     35 C18       -3.3999    3.6092   16.4301 C.ar      2 RES2    0.0000
     36 C19       -4.8250    3.7370   16.4744 C.ar      2 RES2    0.0000
     37 C20       -5.4160    3.6014   17.7615 C.ar      2 RES2    0.0000
     38 C21       -2.5999    4.1205   15.2648 C.2       2 RES2    0.0000
     39 C22       -0.4980    3.8412   18.3658 C.3       2 RES2    0.0000
     40 H18        0.4203    3.7223   18.1149 H         2 RES2    0.0000
     41 H19       -0.6456    3.4529   19.2311 H         2 RES2    0.0000
     42 H20       -0.7028    4.7782   18.3980 H         2 RES2    0.0000
     43 C23       -5.2593    3.5355   14.0119 C.3       2 RES2    0.0000
     44 H21       -4.3447    3.7990   13.7804 H         2 RES2    0.0000
     45 C24       -0.9232    3.6151   13.5515 C.3       2 RES2    0.0000
     46 H22       -0.6480    4.5422   13.7081 H         2 RES2    0.0000
     47 C25        0.3109    2.7175   13.7121 C.3       2 RES2    0.0000
     48 H23        0.6704    2.8227   14.5955 H         2 RES2    0.0000
     49 H24        0.9759    2.9672   13.0637 H         2 RES2    0.0000
     50 H25        0.0613    1.8002   13.5756 H         2 RES2    0.0000
     51 C26       -1.5641    3.5355   12.1522 C.3       2 RES2    0.0000
     52 H26       -2.3870    4.0693   12.1843 H         2 RES2    0.0000
     53 C27       -1.9654    2.1453   11.7627 C.3       2 RES2    0.0000
     54 H27       -2.5326    1.7727   12.4393 H         2 RES2    0.0000
     55 H28       -1.1782    1.6016   11.6684 H         2 RES2    0.0000
     56 H29       -2.4364    2.1708   10.9276 H         2 RES2    0.0000
     57 C28       -0.6625    4.1677   11.0882 C.3       2 RES2    0.0000
     58 H30       -1.0821    4.0929   10.2269 H         2 RES2    0.0000
     59 H31        0.1818    3.7124   11.0721 H         2 RES2    0.0000
     60 H32       -0.5241    5.0948   11.2970 H         2 RES2    0.0000
     61 N1        -1.9298   -0.1534    7.5808 N.pl3     1 RES1    0.0000
     62 N2         2.1911    1.3302    9.4580 N.pl3     1 RES1    0.0000
     63 N3         2.9888   -0.0718    4.2279 N.am      1 RES1    0.0000
     64 H33        2.8928    0.7639    4.4068 H         1 RES1    0.0000
     65 N4        -2.7149    2.2633   19.8772 N.pl3     2 RES2    0.0000
     66 N5        -6.8506    3.7980   17.9916 N.pl3     2 RES2    0.0000
     67 N6        -1.8792    3.2435   14.5917 N.am      2 RES2    0.0000
     68 H34       -1.9771    2.4088   14.7762 H         2 RES2    0.0000
     69 O1        -2.3981    0.3126    8.6007 O.2       1 RES1    0.0000
     70 O2         1.6154    1.4236   10.5180 O.2       1 RES1    0.0000
     71 O3        -2.6308   -0.6892    6.7276 O.2       1 RES1    0.0000
     72 O4         3.2535    1.8995    9.2231 O.2       1 RES1    0.0000
     73 N7        -0.5652   -0.9193    5.1275 N.3       1 RES1    0.0000
     74 H35       -1.3156   -1.2742    5.3483 H         1 RES1    0.0000
     75 O5         3.6314    0.1288    7.1373 O.3       1 RES1    0.0000
     76 O6         2.4693   -2.1649    4.8898 O.2       1 RES1    0.0000
     77 O7        -1.6990    1.6321   19.6587 O.2       2 RES2    0.0000
     78 O8        -3.2999    2.2682   20.9595 O.2       2 RES2    0.0000
     79 O9        -7.3268    3.4598   19.0683 O.2       2 RES2    0.0000
     80 O10       -7.5305    4.2984   17.1111 O.2       2 RES2    0.0000
     81 N8        -5.5454    3.9986   15.3783 N.3       2 RES2    0.0000
     82 H36       -6.2448    4.4872   15.4829 H         2 RES2    0.0000
     83 O11       -1.3355    3.2061   17.4132 O.3       2 RES2    0.0000
     84 O12       -2.6323    5.3248   14.9910 O.2       2 RES2    0.0000
     85 C29       -6.2323    4.2502   13.0536 C.3       2 RES2    0.0000
     86 H37       -7.1440    4.0172   13.3206 H         2 RES2    0.0000
     87 C30       -6.0892    5.7388   13.1460 C.3       2 RES2    0.0000
     88 H38       -6.2268    6.0180   14.0534 H         2 RES2    0.0000
     89 H39       -6.7406    6.1586   12.5798 H         2 RES2    0.0000
     90 H40       -5.2074    5.9944   12.8629 H         2 RES2    0.0000
     91 C31       -6.0228    3.7646   11.6222 C.3       2 RES2    0.0000
     92 H41       -6.6426    4.2090   11.0400 H         2 RES2    0.0000
     93 H42       -6.1684    2.8168   11.5800 H         2 RES2    0.0000
     94 H43       -5.1250    3.9622   11.3451 H         2 RES2    0.0000
     95 C32       -5.3519    2.0420   13.9531 C.3       2 RES2    0.0000
     96 H44       -4.7168    1.6586   14.5634 H         2 RES2    0.0000
     97 H45       -5.1570    1.7441   13.0617 H         2 RES2    0.0000
     98 H46       -6.2375    1.7658   14.1980 H         2 RES2    0.0000
     99 C33       -0.8409   -2.2170    3.1279 C.3       1 RES1    0.0000
    100 H47       -0.3875   -2.9593    3.5354 H         1 RES1    0.0000
    101 H48       -0.7029   -2.2397    2.1783 H         1 RES1    0.0000
    102 H49       -1.7790   -2.2721    3.3186 H         1 RES1    0.0000
    103 C34       -0.8957    0.3638    3.0657 C.3       1 RES1    0.0000
    104 H50       -0.5375    1.1346    3.5515 H         1 RES1    0.0000
    105 C35       -0.4936    0.5014    1.5559 C.3       1 RES1    0.0000
    106 H51       -0.8988    1.2860    1.1865 H         1 RES1    0.0000
    107 H52       -0.8009   -0.2753    1.0741 H         1 RES1    0.0000
    108 H53        0.4600    0.5624    1.4836 H         1 RES1    0.0000
    109 C36       -2.2240    0.4031    3.1299 C.3       1 RES1    0.0000
    110 H54       -2.5011    0.3825    4.0494 H         1 RES1    0.0000
    111 H55       -2.5914   -0.3559    2.6702 H         1 RES1    0.0000
    112 H56       -2.5420    1.2103    2.7183 H         1 RES1    0.0000
@<TRIPOS>BOND
     1    1    2 1
     2    3    1 ar
     3    4    3 ar
     4    5    4 ar
     5    6    5 ar
     6    7    1 ar
     7    8    9 1
     8   10   11 1
     9   12   10 1
    10   13   10 1
    11   14    5 1
    12   15   16 1
    13   17   15 1
    14   18   17 1
    15   19   17 1
    16   20   17 1
    17   21   15 1
    18   22   21 1
    19   23   21 1
    20   24   23 1
    21   25   23 1
    22   26   23 1
    23   27   21 1
    24   28   27 1
    25   29   27 1
    26   30   27 1
    27   31   32 1
    28   33   31 ar
    29   34   33 ar
    30   35   34 ar
    31   36   35 ar
    32   37   31 ar
    33   38   35 1
    34   39   40 1
    35   41   39 1
    36   42   39 1
    37   43   44 1
    38   45   46 1
    39   47   45 1
    40   48   47 1
    41   49   47 1
    42   50   47 1
    43   51   45 1
    44   52   51 1
    45   53   51 1
    46   54   53 1
    47   55   53 1
    48   56   53 1
    49   57   51 1
    50   58   57 1
    51   59   57 1
    52   60   57 1
    53   61    7 1
    54   62    3 1
    55   63   14 1
    56   64   63 1
    57   65   33 1
    58   66   37 1
    59   67   38 1
    60   68   67 1
    61   69   61 2
    62   70   62 2
    63   71   61 2
    64   72   62 2
    65   73    6 1
    66   74   73 1
    67   75    4 1
    68   76   14 2
    69   77   65 2
    70   78   65 2
    71   79   66 2
    72   80   66 2
    73   81   36 1
    74   82   81 1
    75   83   34 1
    76   84   38 2
    77   85   43 1
    78   86   85 1
    79   87   85 1
    80   88   87 1
    81   89   87 1
    82   90   87 1
    83   91   85 1
    84   92   91 1
    85   93   91 1
    86   94   91 1
    87   95   43 1
    88   96   95 1
    89   97   95 1
    90   98   95 1
    91   99    8 1
    92  100   99 1
    93  101   99 1
    94  102   99 1
    95  103    8 1
    96  104  103 1
    97  105  103 1
    98  106  105 1
    99  107  105 1
   100  108  105 1
   101  109  103 1
   102  110  109 1
   103  111  109 1
   104  112  109 1
   105    6    7 ar
   106    8   73 1
   107   10   75 1
   108   15   63 1
   109   36   37 ar
   110   39   83 1
   111   43   81 1
   112   45   67 1
@<TRIPOS>SUBSTRUCTURE
     1 RES1 1
     2 RES2 31

