# MOL2 file generated by ConQuest
# Please check atom types

@<TRIPOS>MOLECULE
OCEKIS
    35    36     1
SMALL
NO_CHARGES
****
Generated from CSD

@<TRIPOS>ATOM
      1 O1        -1.4983    4.1656   10.9308 O.3       1 RES1    0.0000
      2 O2        -2.2914    5.2862    2.4160 O.2       1 RES1    0.0000
      3 O3        -0.8625    4.9312    0.8668 O.2       1 RES1    0.0000
      4 N1        -1.2858    4.3125    8.3307 N.pl3     1 RES1    0.0000
      5 H1        -0.6668    4.0018    8.8403 H         1 RES1    0.0000
      6 N2        -1.0910    4.3503    7.0160 N.2       1 RES1    0.0000
      7 N3         0.0165    3.8618    6.6847 N.2       1 RES1    0.0000
      8 N4        -1.2051    4.8954    2.0363 N.pl3     1 RES1    0.0000
      9 C1        -0.2299    3.5525   12.8377 C.3       1 RES1    0.0000
     10 H2        -0.1768    2.6430   12.5336 H         1 RES1    0.0000
     11 H3        -0.2033    3.5715   13.7977 H         1 RES1    0.0000
     12 H4         0.5121    4.0510   12.4862 H         1 RES1    0.0000
     13 C2        -1.5076    4.1610   12.3635 C.3       1 RES1    0.0000
     14 H5        -2.2620    3.6470   12.6893 H         1 RES1    0.0000
     15 H6        -1.5880    5.0683   12.6987 H         1 RES1    0.0000
     16 C3        -2.5853    4.6935   10.2913 C.ar      1 RES1    0.0000
     17 C4        -2.4757    4.7681    8.8980 C.ar      1 RES1    0.0000
     18 C5         0.2597    3.9042    5.2898 C.ar      1 RES1    0.0000
     19 C6        -0.6417    4.3832    4.3484 C.ar      1 RES1    0.0000
     20 H7        -1.4757    4.7061    4.6042 H         1 RES1    0.0000
     21 C7        -0.2628    4.3648    3.0257 C.ar      1 RES1    0.0000
     22 C8         0.9619    3.8920    2.5921 C.ar      1 RES1    0.0000
     23 H8         1.1852    3.8916    1.6890 H         1 RES1    0.0000
     24 C9         1.8403    3.4213    3.5438 C.ar      1 RES1    0.0000
     25 H9         2.6727    3.0980    3.2819 H         1 RES1    0.0000
     26 C10        1.4987    3.4253    4.8812 C.ar      1 RES1    0.0000
     27 H10        2.1011    3.1053    5.5137 H         1 RES1    0.0000
     28 C11       -3.5289    5.2611    8.1499 C.ar      1 RES1    0.0000
     29 H11       -3.4615    5.3051    7.2230 H         1 RES1    0.0000
     30 C12       -4.6814    5.6889    8.7798 C.ar      1 RES1    0.0000
     31 H12       -5.3874    6.0224    8.2745 H         1 RES1    0.0000
     32 C13       -4.7917    5.6254   10.1421 C.ar      1 RES1    0.0000
     33 H13       -5.5697    5.9187   10.5577 H         1 RES1    0.0000
     34 C14       -3.7480    5.1260   10.9048 C.ar      1 RES1    0.0000
     35 H14       -3.8291    5.0811   11.8299 H         1 RES1    0.0000
@<TRIPOS>BOND
     1    1   13 1
     2    2    8 2
     3    3    8 2
     4    4    5 1
     5    6    4 1
     6    7    6 2
     7    8   21 1
     8    9   10 1
     9   11    9 1
    10   12    9 1
    11   13    9 1
    12   14   13 1
    13   15   13 1
    14   16    1 1
    15   17    4 1
    16   18    7 1
    17   19   18 ar
    18   20   19 1
    19   21   19 ar
    20   22   21 ar
    21   23   22 1
    22   24   22 ar
    23   25   24 1
    24   26   18 ar
    25   27   26 1
    26   28   17 ar
    27   29   28 1
    28   30   28 ar
    29   31   30 1
    30   32   30 ar
    31   33   32 1
    32   34   16 ar
    33   35   34 1
    34   16   17 ar
    35   24   26 ar
    36   32   34 ar
@<TRIPOS>SUBSTRUCTURE
     1 RES1 1

@<TRIPOS>CRYSIN
   6.7754    7.5482   14.0467  99.0570 102.4790  90.1920   2 1

