# MOL2 file generated by ConQuest
# Please check atom types

@<TRIPOS>MOLECULE
OCENIV
    42    43     1
SMALL
NO_CHARGES
****
Generated from CSD

@<TRIPOS>ATOM
      1 C1        13.0368    8.6243    3.0879 C.3       1 RES1    0.0000
      2 C2        14.3915    9.2916    3.4325 C.3       1 RES1    0.0000
      3 C3        13.8631    7.7370    5.1237 C.2       1 RES1    0.0000
      4 C4        13.9144    6.9893    6.3743 C.ar      1 RES1    0.0000
      5 C5        12.7693    6.8640    7.1542 C.ar      1 RES1    0.0000
      6 H1        11.9625    7.2032    6.8395 H         1 RES1    0.0000
      7 C6        12.8083    6.2589    8.3621 C.ar      1 RES1    0.0000
      8 H2        12.0392    6.1876    8.8785 H         1 RES1    0.0000
      9 C7        13.9997    5.7506    8.8177 C.ar      1 RES1    0.0000
     10 H3        14.0315    5.3512    9.6563 H         1 RES1    0.0000
     11 C8        15.1419    5.8168    8.0644 C.ar      1 RES1    0.0000
     12 H4        15.9371    5.4562    8.3845 H         1 RES1    0.0000
     13 C9        15.0985    6.4311    6.8139 C.ar      1 RES1    0.0000
     14 C10       17.4653    6.2355    6.4521 C.3       1 RES1    0.0000
     15 H5        17.6185    5.2809    6.5407 H         1 RES1    0.0000
     16 H6        17.5882    6.6511    7.3196 H         1 RES1    0.0000
     17 C11       18.3891    6.8120    5.4726 C.3       1 RES1    0.0000
     18 H7        19.2956    6.5594    5.7063 H         1 RES1    0.0000
     19 H8        18.1939    6.4402    4.5977 H         1 RES1    0.0000
     20 C12       11.8339    9.5340    3.3024 C.3       1 RES1    0.0000
     21 H9        11.0343    9.0043    3.3365 H         1 RES1    0.0000
     22 H10       11.7731   10.1595    2.5768 H         1 RES1    0.0000
     23 H11       11.9380   10.0118    4.1282 H         1 RES1    0.0000
     24 C13       12.9558    7.9652    1.7339 C.3       1 RES1    0.0000
     25 H12       13.6903    7.3550    1.6314 H         1 RES1    0.0000
     26 H13       12.9992    8.6355    1.0489 H         1 RES1    0.0000
     27 H14       12.1288    7.4844    1.6613 H         1 RES1    0.0000
     28 C14       14.3409   10.8074    3.5371 C.3       1 RES1    0.0000
     29 H15       13.6802   11.0610    4.1869 H         1 RES1    0.0000
     30 H16       14.1096   11.1802    2.6835 H         1 RES1    0.0000
     31 H17       15.1997   11.1385    3.8092 H         1 RES1    0.0000
     32 C15       15.5366    8.7904    2.5779 C.3       1 RES1    0.0000
     33 H18       16.3708    9.0410    2.9812 H         1 RES1    0.0000
     34 H19       15.4758    9.1775    1.7019 H         1 RES1    0.0000
     35 H20       15.4889    7.8338    2.5096 H         1 RES1    0.0000
     36 N1        12.9460    7.5751    4.1517 N.pl3     1 RES1    0.0000
     37 N2        14.6645    8.7608    4.7951 N.pl3     1 RES1    0.0000
     38 O1        12.0178    6.7020    4.1528 O.2       1 RES1    0.0000
     39 O2        15.6054    9.2335    5.5185 O.2       1 RES1    0.0000
     40 O3        16.1434    6.4881    5.9560 O.3       1 RES1    0.0000
     41 O4        18.3082    8.1893    5.4033 O.3       1 RES1    0.0000
     42 H21       17.5217    8.4196    5.4406 H         1 RES1    0.0000
@<TRIPOS>BOND
     1    1    2 1
     2    2   28 1
     3    3    4 1
     4    4    5 ar
     5    5    6 1
     6    7    5 ar
     7    8    7 1
     8    9    7 ar
     9   10    9 1
    10   11    9 ar
    11   12   11 1
    12   13    4 ar
    13   14   15 1
    14   16   14 1
    15   17   14 1
    16   18   17 1
    17   19   17 1
    18   20    1 1
    19   21   20 1
    20   22   20 1
    21   23   20 1
    22   24    1 1
    23   25   24 1
    24   26   24 1
    25   27   24 1
    26   28   29 1
    27   30   28 1
    28   31   28 1
    29   32    2 1
    30   33   32 1
    31   34   32 1
    32   35   32 1
    33   36    1 1
    34   37    2 1
    35   38   36 1
    36   39   37 1
    37   40   13 1
    38   41   17 1
    39   42   41 1
    40    3   36 1
    41    3   37 2
    42   11   13 ar
    43   14   40 1
@<TRIPOS>SUBSTRUCTURE
     1 RES1 1

@<TRIPOS>CRYSIN
  14.4580   10.1870   10.6700  90.0000  90.0000  90.0000  29 1

