# MOL2 file generated by ConQuest
# Please check atom types

@<TRIPOS>MOLECULE
OCEVUN
    96   102     2
SMALL
NO_CHARGES
****
Generated from CSD

@<TRIPOS>ATOM
      1 C1         8.0667    0.1699    3.0748 C.ar      1 RES1    0.0000
      2 C2         7.4327   -1.0295    2.9133 C.ar      1 RES1    0.0000
      3 H1         7.0376   -1.2474    2.0996 H         1 RES1    0.0000
      4 C3         7.3852   -1.9228    3.9834 C.ar      1 RES1    0.0000
      5 H2         6.9488   -2.7377    3.8883 H         1 RES1    0.0000
      6 C4         7.9802   -1.6015    5.1709 C.ar      1 RES1    0.0000
      7 H3         7.9450   -2.2107    5.8732 H         1 RES1    0.0000
      8 C5         8.6294   -0.4000    5.3565 C.ar      1 RES1    0.0000
      9 H4         9.0290   -0.1932    6.1708 H         1 RES1    0.0000
     10 C6         8.6700    0.4861    4.3000 C.ar      1 RES1    0.0000
     11 N1         9.2890    1.7383    4.2141 N.3       1 RES1    0.0000
     12 C7         9.7170    2.4645    5.4114 C.3       1 RES1    0.0000
     13 H5         9.1290    2.2317    6.1464 H         1 RES1    0.0000
     14 H6         9.6255    3.4161    5.2502 H         1 RES1    0.0000
     15 C8        11.1337    2.1742    5.8119 C.3       1 RES1    0.0000
     16 H7        11.7270    2.4387    5.0917 H         1 RES1    0.0000
     17 H8        11.2362    1.2198    5.9464 H         1 RES1    0.0000
     18 C9        11.5385    2.8966    7.0742 C.3       1 RES1    0.0000
     19 H9        12.4490    2.6808    7.2876 H         1 RES1    0.0000
     20 H10       10.9675    2.6243    7.7960 H         1 RES1    0.0000
     21 H11       11.4571    3.8432    6.9413 H         1 RES1    0.0000
     22 C10        8.7524    2.4425    3.0805 C.3       1 RES1    0.0000
     23 O1         7.5084    3.0854    3.5733 O.3       1 RES1    0.0000
     24 C11        7.0604    4.2450    3.0310 C.ar      1 RES1    0.0000
     25 C12        5.7569    4.6064    3.3080 C.ar      1 RES1    0.0000
     26 H12        5.2284    4.0644    3.8493 H         1 RES1    0.0000
     27 C13        5.2415    5.7675    2.7836 C.ar      1 RES1    0.0000
     28 H13        4.3595    6.0120    2.9482 H         1 RES1    0.0000
     29 C14        6.0575    6.5625    2.0085 C.ar      1 RES1    0.0000
     30 N2         5.5349    7.8146    1.4539 N.pl3     1 RES1    0.0000
     31 O2         6.2936    8.5583    0.8593 O.2       1 RES1    0.0000
     32 O3         4.3414    8.0431    1.5858 O.2       1 RES1    0.0000
     33 C15        7.3745    6.2397    1.7480 C.ar      1 RES1    0.0000
     34 H14        7.9053    6.8047    1.2339 H         1 RES1    0.0000
     35 C16        7.8974    5.0606    2.2637 C.ar      1 RES1    0.0000
     36 C17        9.2782    4.6485    2.0923 C.2       1 RES1    0.0000
     37 H15        9.8842    5.2216    1.6789 H         1 RES1    0.0000
     38 C18        9.6807    3.4631    2.5205 C.2       1 RES1    0.0000
     39 H16       10.5863    3.2572    2.4690 H         1 RES1    0.0000
     40 C19        8.3455    1.2926    2.1017 C.3       1 RES1    0.0000
     41 C20        7.1803    1.6476    1.2005 C.3       1 RES1    0.0000
     42 H17        7.4355    2.3644    0.6157 H         1 RES1    0.0000
     43 H18        6.4333    1.9227    1.7375 H         1 RES1    0.0000
     44 H19        6.9341    0.8812    0.6779 H         1 RES1    0.0000
     45 C21        9.5519    0.8916    1.2352 C.3       1 RES1    0.0000
     46 H20        9.7439    1.5937    0.6096 H         1 RES1    0.0000
     47 H21        9.3485    0.0843    0.7572 H         1 RES1    0.0000
     48 H22       10.3163    0.7468    1.7984 H         1 RES1    0.0000
     49 C22        1.9614    3.3727    3.0277 C.ar      2 RES2    0.0000
     50 C23        1.3056    4.5586    2.8210 C.ar      2 RES2    0.0000
     51 H23        0.9148    4.7429    1.9972 H         2 RES2    0.0000
     52 C24        1.2319    5.4778    3.8541 C.ar      2 RES2    0.0000
     53 H24        0.7826    6.2820    3.7261 H         2 RES2    0.0000
     54 C25        1.8154    5.2115    5.0588 C.ar      2 RES2    0.0000
     55 H25        1.7494    5.8385    5.7428 H         2 RES2    0.0000
     56 C26        2.5039    4.0297    5.2878 C.ar      2 RES2    0.0000
     57 H26        2.9120    3.8583    6.1049 H         2 RES2    0.0000
     58 C27        2.5584    3.1140    4.2476 C.ar      2 RES2    0.0000
     59 N3         3.1994    1.8664    4.2224 N.3       2 RES2    0.0000
     60 C28        3.6119    1.1866    5.4407 C.3       2 RES2    0.0000
     61 H27        3.5089    0.2300    5.3160 H         2 RES2    0.0000
     62 H28        3.0238    1.4556    6.1647 H         2 RES2    0.0000
     63 C29        5.0366    1.4749    5.8373 C.3       2 RES2    0.0000
     64 H29        5.6263    1.1887    5.1222 H         2 RES2    0.0000
     65 H30        5.1453    2.4320    5.9464 H         2 RES2    0.0000
     66 C30        5.4458    0.7899    7.1108 C.3       2 RES2    0.0000
     67 H31        6.3584    1.0070    7.3120 H         2 RES2    0.0000
     68 H32        5.3589   -0.1605    7.0047 H         2 RES2    0.0000
     69 H33        4.8807    1.0844    7.8277 H         2 RES2    0.0000
     70 C31        2.6636    1.1116    3.1179 C.3       2 RES2    0.0000
     71 O4         1.4282    0.4767    3.6489 O.3       2 RES2    0.0000
     72 C32        0.9950   -0.7096    3.1595 C.ar      2 RES2    0.0000
     73 C33       -0.3207   -1.0501    3.4242 C.ar      2 RES2    0.0000
     74 H34       -0.8589   -0.4854    3.9309 H         2 RES2    0.0000
     75 C34       -0.8266   -2.2326    2.9316 C.ar      2 RES2    0.0000
     76 H35       -1.7137   -2.4657    3.0823 H         2 RES2    0.0000
     77 C35        0.0033   -3.0631    2.2112 C.ar      2 RES2    0.0000
     78 N4        -0.5419   -4.2947    1.6409 N.pl3     2 RES2    0.0000
     79 O5         0.1979   -5.0251    1.0157 O.2       2 RES2    0.0000
     80 O6        -1.7402   -4.5005    1.7776 O.2       2 RES2    0.0000
     81 C36        1.3291   -2.7585    1.9874 C.ar      2 RES2    0.0000
     82 H36        1.8742   -3.3518    1.5229 H         2 RES2    0.0000
     83 C37        1.8430   -1.5660    2.4584 C.ar      2 RES2    0.0000
     84 C38        3.2198   -1.1518    2.3042 C.2       2 RES2    0.0000
     85 H37        3.8437   -1.7548    1.9691 H         2 RES2    0.0000
     86 C39        3.6029    0.0624    2.6302 C.2       2 RES2    0.0000
     87 H38        4.5049    0.2772    2.5532 H         2 RES2    0.0000
     88 C40        2.2338    2.2127    2.0936 C.3       2 RES2    0.0000
     89 C41        3.4006    2.5888    1.1712 C.3       2 RES2    0.0000
     90 H39        3.5844    1.8600    0.5743 H         2 RES2    0.0000
     91 H40        4.1797    2.7736    1.7009 H         2 RES2    0.0000
     92 H41        3.1677    3.3688    0.6621 H         2 RES2    0.0000
     93 C42        1.0358    1.8113    1.2473 C.3       2 RES2    0.0000
     94 H42        1.2767    1.0744    0.6816 H         2 RES2    0.0000
     95 H43        0.7635    2.5551    0.7047 H         2 RES2    0.0000
     96 H44        0.3116    1.5512    1.8216 H         2 RES2    0.0000
@<TRIPOS>BOND
     1    1    2 ar
     2    2    3 1
     3    4    2 ar
     4    5    4 1
     5    6    4 ar
     6    7    6 1
     7    8    6 ar
     8    9    8 1
     9   10    1 ar
    10   11   10 1
    11   12   11 1
    12   13   12 1
    13   14   12 1
    14   15   12 1
    15   16   15 1
    16   17   15 1
    17   18   15 1
    18   19   18 1
    19   20   18 1
    20   21   18 1
    21   22   11 1
    22   23   22 1
    23   24   23 1
    24   25   24 ar
    25   26   25 1
    26   27   25 ar
    27   28   27 1
    28   29   27 ar
    29   30   29 1
    30   31   30 2
    31   32   30 2
    32   33   29 ar
    33   34   33 1
    34   35   24 ar
    35   36   35 1
    36   37   36 1
    37   38   22 1
    38   39   38 1
    39   40    1 1
    40   41   40 1
    41   42   41 1
    42   43   41 1
    43   44   41 1
    44   45   40 1
    45   46   45 1
    46   47   45 1
    47   48   45 1
    48   49   50 ar
    49   50   51 1
    50   52   50 ar
    51   53   52 1
    52   54   52 ar
    53   55   54 1
    54   56   54 ar
    55   57   56 1
    56   58   49 ar
    57   59   58 1
    58   60   59 1
    59   61   60 1
    60   62   60 1
    61   63   60 1
    62   64   63 1
    63   65   63 1
    64   66   63 1
    65   67   66 1
    66   68   66 1
    67   69   66 1
    68   70   59 1
    69   71   70 1
    70   72   71 1
    71   73   72 ar
    72   74   73 1
    73   75   73 ar
    74   76   75 1
    75   77   75 ar
    76   78   77 1
    77   79   78 2
    78   80   78 2
    79   81   77 ar
    80   82   81 1
    81   83   72 ar
    82   84   83 1
    83   85   84 1
    84   86   70 1
    85   87   86 1
    86   88   49 1
    87   89   88 1
    88   90   89 1
    89   91   89 1
    90   92   89 1
    91   93   88 1
    92   94   93 1
    93   95   93 1
    94   96   93 1
    95    8   10 ar
    96   22   40 1
    97   33   35 ar
    98   36   38 2
    99   56   58 ar
   100   70   88 1
   101   81   83 ar
   102   84   86 2
@<TRIPOS>SUBSTRUCTURE
     1 RES1 1
     2 RES2 49

@<TRIPOS>CRYSIN
  12.1910   12.4340   12.9160 101.7430 104.9140  90.6470   2 1

