# MOL2 file generated by ConQuest
# Please check atom types

@<TRIPOS>MOLECULE
OCHTET04
    28    28     1
SMALL
NO_CHARGES
****
Generated from CSD

@<TRIPOS>ATOM
      1 C1         4.6014    0.3959    4.2495 C.3       1 RES1    0.0000
      2 C2         3.4615    1.5491    6.2419 C.3       1 RES1    0.0000
      3 N1         5.7062    2.0977    5.4995 N.pl3     1 RES1    0.0000
      4 N2         4.5264    1.4681    5.2512 N.pl3     1 RES1    0.0000
      5 N3         3.3187   -0.2761    4.1690 N.3       1 RES1    0.0000
      6 N4         2.3898    0.2266    3.2820 N.pl3     1 RES1    0.0000
      7 O1         5.7007    3.0315    6.2982 O.2       1 RES1    0.0000
      8 O2         6.6630    1.7219    4.8585 O.2       1 RES1    0.0000
      9 O3         2.6310    1.3103    2.7955 O.2       1 RES1    0.0000
     10 O4         1.4003   -0.4432    3.0945 O.2       1 RES1    0.0000
     11 H1         4.7212    0.7889    3.4232 H         1 RES1    0.0000
     12 H2         5.0947   -0.2661    4.6390 H         1 RES1    0.0000
     13 H3         3.6670    2.3201    6.8520 H         1 RES1    0.0000
     14 H4         2.7411    1.9070    5.7885 H         1 RES1    0.0000
     15 N3B        3.2143    0.2761    6.8630 N.pl3     1 RES1    0.0000
     16 C2B        3.0715   -1.5491    4.7901 C.3       1 RES1    0.0000
     17 C1B        1.9316   -0.3959    6.7825 C.3       1 RES1    0.0000
     18 N4B        4.1432   -0.2266    7.7500 N.pl3     1 RES1    0.0000
     19 N2B        2.0066   -1.4681    5.7808 N.3       1 RES1    0.0000
     20 H3B        2.8660   -2.3201    4.1800 H         1 RES1    0.0000
     21 H4B        3.7919   -1.9070    5.2435 H         1 RES1    0.0000
     22 H1B        1.8118   -0.7889    7.6088 H         1 RES1    0.0000
     23 H2B        1.4383    0.2661    6.3930 H         1 RES1    0.0000
     24 O3B        3.9020   -1.3103    8.2365 O.2       1 RES1    0.0000
     25 O4B        5.1327    0.4432    7.9375 O.2       1 RES1    0.0000
     26 N1B        0.8268   -2.0977    5.5325 N.pl3     1 RES1    0.0000
     27 O1B        0.8323   -3.0315    4.7338 O.2       1 RES1    0.0000
     28 O2B       -0.1300   -1.7219    6.1735 O.2       1 RES1    0.0000
@<TRIPOS>BOND
     1    1    4 1
     2    2    4 1
     3    3    4 1
     4    5    1 1
     5    6    5 1
     6    7    3 2
     7    8    3 2
     8    9    6 2
     9   10    6 2
    10   11    1 1
    11   12    1 1
    12   13    2 1
    13   14    2 1
    14   15    2 1
    15   16    5 1
    16   17   15 1
    17   18   15 1
    18   19   16 1
    19   20   16 1
    20   21   16 1
    21   22   17 1
    22   23   17 1
    23   24   18 2
    24   25   18 2
    25   26   19 1
    26   27   26 2
    27   28   26 2
    28   17   19 1
@<TRIPOS>SUBSTRUCTURE
     1 RES1 1

