# MOL2 file generated by ConQuest
# Please check atom types

@<TRIPOS>MOLECULE
OCHTET13
    28    28     1
SMALL
NO_CHARGES
****
Generated from CSD

@<TRIPOS>ATOM
      1 O1         4.3898    2.3804    3.0959 O.2       1 RES1    0.0000
      2 O2         3.1520    2.6919    4.8729 O.2       1 RES1    0.0000
      3 O3         4.9594    0.7559    0.5375 O.2       1 RES1    0.0000
      4 O4         5.9225   -0.6690    1.8879 O.2       1 RES1    0.0000
      5 N1         3.3783    2.2017    3.7741 N.pl3     1 RES1    0.0000
      6 N2         2.4394    1.3380    3.2738 N.3       1 RES1    0.0000
      7 N3         3.7549   -0.3008    2.0850 N.3       1 RES1    0.0000
      8 N4         4.9439   -0.0373    1.4728 N.pl3     1 RES1    0.0000
      9 C1         2.6958    0.6951    1.9903 C.3       1 RES1    0.0000
     10 C2         1.1640    1.2668    3.9406 C.3       1 RES1    0.0000
     11 H1         1.7668    0.2099    1.6838 H         1 RES1    0.0000
     12 H2         2.9887    1.4229    1.2307 H         1 RES1    0.0000
     13 H3         0.4227    0.9373    3.2097 H         1 RES1    0.0000
     14 H4         0.8881    2.2451    4.3399 H         1 RES1    0.0000
     15 O1B        0.6049   -2.3804    4.0491 O.2       1 RES1    0.0000
     16 O2B        1.8426   -2.6919    2.2721 O.2       1 RES1    0.0000
     17 O3B        0.0352   -0.7559    6.6075 O.2       1 RES1    0.0000
     18 O4B       -0.9278    0.6690    5.2571 O.2       1 RES1    0.0000
     19 N1B        1.6164   -2.2017    3.3709 N.pl3     1 RES1    0.0000
     20 N2B        2.5552   -1.3380    3.8712 N.3       1 RES1    0.0000
     21 N3B        1.2398    0.3008    5.0600 N.3       1 RES1    0.0000
     22 N4B        0.0507    0.0373    5.6722 N.pl3     1 RES1    0.0000
     23 C1B        2.2988   -0.6951    5.1547 C.3       1 RES1    0.0000
     24 C2B        3.8306   -1.2668    3.2044 C.3       1 RES1    0.0000
     25 H1B        3.2278   -0.2099    5.4612 H         1 RES1    0.0000
     26 H2B        2.0059   -1.4229    5.9143 H         1 RES1    0.0000
     27 H3B        4.5720   -0.9373    3.9353 H         1 RES1    0.0000
     28 H4B        4.1065   -2.2451    2.8051 H         1 RES1    0.0000
@<TRIPOS>BOND
     1    1    5 2
     2    2    5 2
     3    3    8 2
     4    4    8 2
     5    5    6 1
     6    6    9 1
     7    7    8 1
     8    9    7 1
     9   10    6 1
    10   11    9 1
    11   12    9 1
    12   13   10 1
    13   14   10 1
    14   15   19 2
    15   16   19 2
    16   17   22 2
    17   18   22 2
    18   19   20 1
    19   20   23 1
    20   21   10 1
    21   22   21 1
    22   23   21 1
    23   24    7 1
    24   25   23 1
    25   26   23 1
    26   27   24 1
    27   28   24 1
    28   20   24 1
@<TRIPOS>SUBSTRUCTURE
     1 RES1 1

@<TRIPOS>CRYSIN
   6.5209   10.7610    7.3062  90.0000 102.0580  90.0000 231 1

