# MOL2 file generated by ConQuest
# Please check atom types

@<TRIPOS>MOLECULE
OCHTET16
    28    28     1
SMALL
NO_CHARGES
****
Generated from CSD

@<TRIPOS>ATOM
      1 N1         5.6653    6.8324    3.3058 N.3       1 RES1    0.0000
      2 O1         7.5994    7.8957    3.1285 O.2       1 RES1    0.0000
      3 N2         6.5896    7.7135    3.8086 N.pl3     1 RES1    0.0000
      4 N3         4.4643    5.7641    5.0625 N.3       1 RES1    0.0000
      5 O2         3.2707    4.7030    6.6182 O.2       1 RES1    0.0000
      6 N4         3.2834    5.5008    5.6931 N.pl3     1 RES1    0.0000
      7 O3         6.3509    8.2015    4.9011 O.2       1 RES1    0.0000
      8 C1         4.3946    6.7491    3.9685 C.3       1 RES1    0.0000
      9 H1         3.7044    6.4812    3.3272 H         1 RES1    0.0000
     10 H2         4.1527    7.6276    4.3301 H         1 RES1    0.0000
     11 O4         2.3115    6.1475    5.2943 O.2       1 RES1    0.0000
     12 C2         5.9314    6.2077    2.0209 C.3       1 RES1    0.0000
     13 H3         5.1143    5.7835    1.7145 H         1 RES1    0.0000
     14 H4         6.2045    6.8520    1.3501 H         1 RES1    0.0000
     15 N1B        5.7843    4.1378    3.8680 N.3       1 RES1    0.0000
     16 O1B        3.8502    3.0745    4.0453 O.2       1 RES1    0.0000
     17 N2B        4.8601    3.2567    3.3652 N.pl3     1 RES1    0.0000
     18 N3B        6.9854    5.2061    2.1112 N.3       1 RES1    0.0000
     19 O2B        8.1789    6.2672    0.5556 O.2       1 RES1    0.0000
     20 N4B        8.1662    5.4694    1.4807 N.pl3     1 RES1    0.0000
     21 O3B        5.0987    2.7687    2.2727 O.2       1 RES1    0.0000
     22 C1B        7.0550    4.2211    3.2052 C.3       1 RES1    0.0000
     23 H1B        7.7452    4.4890    3.8466 H         1 RES1    0.0000
     24 H2B        7.2969    3.3426    2.8437 H         1 RES1    0.0000
     25 O4B        9.1382    4.8227    1.8795 O.2       1 RES1    0.0000
     26 C2B        5.5182    4.7625    5.1529 C.3       1 RES1    0.0000
     27 H3B        6.3353    5.1867    5.4592 H         1 RES1    0.0000
     28 H4B        5.2452    4.1182    5.8237 H         1 RES1    0.0000
@<TRIPOS>BOND
     1    1    3 1
     2    2    3 2
     3    3    7 2
     4    4    6 1
     5    5    6 2
     6    6   11 2
     7    8    1 1
     8    9    8 1
     9   10    8 1
    10   12    1 1
    11   13   12 1
    12   14   12 1
    13   15   17 1
    14   16   17 2
    15   17   21 2
    16   18   12 1
    17   19   20 2
    18   20   18 1
    19   22   15 1
    20   23   22 1
    21   24   22 1
    22   25   20 2
    23   26    4 1
    24   27   26 1
    25   28   26 1
    26    4    8 1
    27   15   26 1
    28   18   22 1
@<TRIPOS>SUBSTRUCTURE
     1 RES1 1

@<TRIPOS>CRYSIN
   6.5254   10.9702    7.3503  90.0000 102.5820  90.0000 231 1

