# MOL2 file generated by ConQuest
# Please check atom types

@<TRIPOS>MOLECULE
OCHTET15
    28    28     1
SMALL
NO_CHARGES
****
Generated from CSD

@<TRIPOS>ATOM
      1 N1         5.6586    6.8627    3.3166 N.3       1 RES1    0.0000
      2 O1         7.5887    7.9308    3.1413 O.2       1 RES1    0.0000
      3 N2         6.5816    7.7471    3.8209 N.pl3     1 RES1    0.0000
      4 N3         4.4579    5.7847    5.0657 N.3       1 RES1    0.0000
      5 O2         3.2708    4.7233    6.6202 O.2       1 RES1    0.0000
      6 N4         3.2802    5.5227    5.7000 N.pl3     1 RES1    0.0000
      7 O3         6.3399    8.2333    4.9099 O.2       1 RES1    0.0000
      8 C1         4.3898    6.7751    3.9789 C.3       1 RES1    0.0000
      9 H1         3.6918    6.5097    3.3295 H         1 RES1    0.0000
     10 H2         4.1448    7.6606    4.3496 H         1 RES1    0.0000
     11 O4         2.3130    6.1726    5.3057 O.2       1 RES1    0.0000
     12 C2         5.9256    6.2410    2.0300 C.3       1 RES1    0.0000
     13 H3         5.1056    5.8229    1.7240 H         1 RES1    0.0000
     14 H4         6.2069    6.8856    1.3577 H         1 RES1    0.0000
     15 N1B        5.7792    4.1613    3.8668 N.3       1 RES1    0.0000
     16 O1B        3.8491    3.0932    4.0421 O.2       1 RES1    0.0000
     17 N2B        4.8562    3.2769    3.3626 N.pl3     1 RES1    0.0000
     18 N3B        6.9799    5.2393    2.1177 N.3       1 RES1    0.0000
     19 O2B        8.1670    6.3007    0.5632 O.2       1 RES1    0.0000
     20 N4B        8.1576    5.5013    1.4834 N.pl3     1 RES1    0.0000
     21 O3B        5.0979    2.7907    2.2736 O.2       1 RES1    0.0000
     22 C1B        7.0480    4.2489    3.2045 C.3       1 RES1    0.0000
     23 H1B        7.7460    4.5143    3.8539 H         1 RES1    0.0000
     24 H2B        7.2929    3.3634    2.8339 H         1 RES1    0.0000
     25 O4B        9.1248    4.8514    1.8777 O.2       1 RES1    0.0000
     26 C2B        5.5122    4.7830    5.1534 C.3       1 RES1    0.0000
     27 H3B        6.3322    5.2011    5.4594 H         1 RES1    0.0000
     28 H4B        5.2309    4.1384    5.8258 H         1 RES1    0.0000
@<TRIPOS>BOND
     1    1    3 1
     2    2    3 2
     3    3    7 2
     4    4    6 1
     5    5    6 2
     6    6   11 2
     7    8    1 1
     8    9    8 1
     9   10    8 1
    10   12    1 1
    11   13   12 1
    12   14   12 1
    13   15   17 1
    14   16   17 2
    15   17   21 2
    16   18   12 1
    17   19   20 2
    18   20   18 1
    19   22   15 1
    20   23   22 1
    21   24   22 1
    22   25   20 2
    23   26    4 1
    24   27   26 1
    25   28   26 1
    26    4    8 1
    27   15   26 1
    28   18   22 1
@<TRIPOS>SUBSTRUCTURE
     1 RES1 1

@<TRIPOS>CRYSIN
   6.5245   11.0240    7.3619  90.0000 102.6420  90.0000 231 1

