# MOL2 file generated by ConQuest
# Please check atom types

@<TRIPOS>MOLECULE
OCHTET14
    28    28     1
SMALL
NO_CHARGES
****
Generated from CSD

@<TRIPOS>ATOM
      1 N1         5.6675    6.8444    3.3109 N.3       1 RES1    0.0000
      2 O1         7.6035    7.9097    3.1371 O.2       1 RES1    0.0000
      3 N2         6.5908    7.7221    3.8136 N.pl3     1 RES1    0.0000
      4 N3         4.4642    5.7698    5.0588 N.3       1 RES1    0.0000
      5 O2         3.2747    4.7069    6.6111 O.2       1 RES1    0.0000
      6 N4         3.2863    5.5114    5.6870 N.pl3     1 RES1    0.0000
      7 O3         6.3535    8.2085    4.8971 O.2       1 RES1    0.0000
      8 C1         4.3989    6.7613    3.9715 C.3       1 RES1    0.0000
      9 H1         3.7150    6.5024    3.3338 H         1 RES1    0.0000
     10 H2         4.1616    7.6286    4.3345 H         1 RES1    0.0000
     11 O4         2.3148    6.1608    5.2930 O.2       1 RES1    0.0000
     12 C2         5.9298    6.2146    2.0231 C.3       1 RES1    0.0000
     13 H3         5.1385    5.7476    1.7139 H         1 RES1    0.0000
     14 H4         6.1806    6.8661    1.3519 H         1 RES1    0.0000
     15 N1B        5.7860    4.1431    3.8570 N.3       1 RES1    0.0000
     16 O1B        3.8499    3.0778    4.0308 O.2       1 RES1    0.0000
     17 N2B        4.8627    3.2654    3.3544 N.pl3     1 RES1    0.0000
     18 N3B        6.9893    5.2177    2.1092 N.3       1 RES1    0.0000
     19 O2B        8.1788    6.2806    0.5569 O.2       1 RES1    0.0000
     20 N4B        8.1672    5.4761    1.4810 N.pl3     1 RES1    0.0000
     21 O3B        5.0999    2.7790    2.2708 O.2       1 RES1    0.0000
     22 C1B        7.0546    4.2262    3.1965 C.3       1 RES1    0.0000
     23 H1B        7.7384    4.4851    3.8341 H         1 RES1    0.0000
     24 H2B        7.2919    3.3589    2.8335 H         1 RES1    0.0000
     25 O4B        9.1386    4.8267    1.8750 O.2       1 RES1    0.0000
     26 C2B        5.5236    4.7729    5.1449 C.3       1 RES1    0.0000
     27 H3B        6.3149    5.2399    5.4541 H         1 RES1    0.0000
     28 H4B        5.2728    4.1214    5.8161 H         1 RES1    0.0000
@<TRIPOS>BOND
     1    1    3 1
     2    2    3 2
     3    3    7 2
     4    4    6 1
     5    5    6 2
     6    6   11 2
     7    8    1 1
     8    9    8 1
     9   10    8 1
    10   12    1 1
    11   13   12 1
    12   14   12 1
    13   15   17 1
    14   16   17 2
    15   17   21 2
    16   18   12 1
    17   19   20 2
    18   20   18 1
    19   22   15 1
    20   23   22 1
    21   24   22 1
    22   25   20 2
    23   26    4 1
    24   27   26 1
    25   28   26 1
    26    4    8 1
    27   15   26 1
    28   18   22 1
@<TRIPOS>SUBSTRUCTURE
     1 RES1 1

@<TRIPOS>CRYSIN
   6.5289   10.9875    7.3453  90.0000 102.6160  90.0000 231 1

