# MOL2 file generated by ConQuest
# Please check atom types

@<TRIPOS>MOLECULE
OCHTET
    28    28     1
SMALL
NO_CHARGES
****
Generated from CSD

@<TRIPOS>ATOM
      1 C1         1.5064   -0.9938    0.0000 C.3       1 RES1    0.0000
      2 C2        -0.9992   -1.4764   -0.0828 C.3       1 RES1    0.0000
      3 H1         1.3323   -1.0273   -1.0525 H         1 RES1    0.0000
      4 H2         2.1499   -1.4812    0.2247 H         1 RES1    0.0000
      5 H3        -0.9084   -1.4095   -0.9106 H         1 RES1    0.0000
      6 H4        -1.5443   -2.3651    0.1597 H         1 RES1    0.0000
      7 N1         0.2740   -1.4310    0.6120 N.3       1 RES1    0.0000
      8 N2         1.8622    0.3655    0.3489 N.3       1 RES1    0.0000
      9 N3         0.3179   -1.7344    1.9300 N.pl3     1 RES1    0.0000
     10 N4         3.1188    0.6355    0.8124 N.pl3     1 RES1    0.0000
     11 O1        -0.7464   -2.0952    2.4468 O.2       1 RES1    0.0000
     12 O2         1.3671   -1.6006    2.5260 O.2       1 RES1    0.0000
     13 O3         3.8804   -0.3177    1.0123 O.2       1 RES1    0.0000
     14 O4         3.3989    1.8085    1.0153 O.2       1 RES1    0.0000
     15 N2N       -1.8622   -0.3655    0.3489 N.pl3     1 RES1    0.0000
     16 C2N        0.9992    1.4764   -0.0828 C.3       1 RES1    0.0000
     17 C1N       -1.5064    0.9938    0.0000 C.3       1 RES1    0.0000
     18 N4N       -3.1188   -0.6355    0.8124 N.pl3     1 RES1    0.0000
     19 H3N        0.9084    1.4095   -0.9106 H         1 RES1    0.0000
     20 H4N        1.5443    2.3651    0.1597 H         1 RES1    0.0000
     21 N1N       -0.2740    1.4310    0.6120 N.3       1 RES1    0.0000
     22 H1N       -1.3323    1.0273   -1.0525 H         1 RES1    0.0000
     23 H2N       -2.1499    1.4812    0.2247 H         1 RES1    0.0000
     24 O3N       -3.8804    0.3177    1.0123 O.2       1 RES1    0.0000
     25 O4N       -3.3989   -1.8085    1.0153 O.2       1 RES1    0.0000
     26 N3N       -0.3179    1.7344    1.9300 N.pl3     1 RES1    0.0000
     27 O1N        0.7464    2.0952    2.4468 O.2       1 RES1    0.0000
     28 O2N       -1.3671    1.6006    2.5260 O.2       1 RES1    0.0000
@<TRIPOS>BOND
     1    1    3 1
     2    2    5 1
     3    4    1 1
     4    6    2 1
     5    7    1 1
     6    8    1 1
     7    9    7 1
     8   10    8 1
     9   11    9 2
    10   12    9 2
    11   13   10 2
    12   14   10 2
    13   15    2 1
    14   16    8 1
    15   17   15 1
    16   18   15 1
    17   19   16 1
    18   20   16 1
    19   21   16 1
    20   22   17 1
    21   23   17 1
    22   24   18 2
    23   25   18 2
    24   26   21 1
    25   27   26 2
    26   28   26 2
    27    2    7 1
    28   17   21 1
@<TRIPOS>SUBSTRUCTURE
     1 RES1 1

@<TRIPOS>CRYSIN
  15.1400   23.8900    5.9130  90.0000  90.0000  90.0000  43 1

