# MOL2 file generated by ConQuest
# Please check atom types

@<TRIPOS>MOLECULE
OCHTET03
    28    28     1
SMALL
NO_CHARGES
****
Generated from CSD

@<TRIPOS>ATOM
      1 C1        -3.2463   -0.9362    0.0000 C.3       1 RES1    0.0000
      2 C2        -5.4914    0.0127    0.7097 C.3       1 RES1    0.0000
      3 C3        -3.9338   -3.1420    1.1198 C.3       1 RES1    0.0000
      4 C4        -6.1461   -2.1670    1.7839 C.3       1 RES1    0.0000
      5 H1        -2.3441   -0.6010   -0.2930 H         1 RES1    0.0000
      6 H2        -3.7013   -1.2020   -0.9440 H         1 RES1    0.0000
      7 H3        -5.8218    0.8681    1.1394 H         1 RES1    0.0000
      8 H4        -5.8989   -0.4808   -0.0651 H         1 RES1    0.0000
      9 H5        -4.3953   -3.3390    0.1302 H         1 RES1    0.0000
     10 H6        -3.3581   -3.9333    1.3347 H         1 RES1    0.0000
     11 H7        -6.4387   -2.3373    0.8138 H         1 RES1    0.0000
     12 H8        -6.6315   -2.1369    2.7019 H         1 RES1    0.0000
     13 N1        -3.5282    1.4872    0.3971 N.pl3     1 RES1    0.0000
     14 N2        -3.0678   -1.9533    1.0450 N.3       1 RES1    0.0000
     15 N3        -4.9593   -3.0178    2.1290 N.3       1 RES1    0.0000
     16 N4        -2.0885   -1.8277    1.9760 N.pl3     1 RES1    0.0000
     17 N5        -5.7555   -0.7493    1.9044 N.3       1 RES1    0.0000
     18 N6        -5.6098   -0.2551    3.1479 N.pl3     1 RES1    0.0000
     19 N7        -5.1135   -4.0101    3.0535 N.pl3     1 RES1    0.0000
     20 N8        -4.0406    0.1937    0.4460 N.3       1 RES1    0.0000
     21 O1        -4.3012    2.3800    0.6185 O.2       1 RES1    0.0000
     22 O2        -1.9910   -2.6458    2.8614 O.2       1 RES1    0.0000
     23 O3        -4.1489   -4.7727    3.2488 O.2       1 RES1    0.0000
     24 O4        -5.1182    0.8822    3.2065 O.2       1 RES1    0.0000
     25 O5        -6.0928   -4.0368    3.7664 O.2       1 RES1    0.0000
     26 O6        -5.8812   -0.8882    4.1147 O.2       1 RES1    0.0000
     27 O7        -2.3395    1.5867    0.1302 O.2       1 RES1    0.0000
     28 O8        -1.3506   -0.8327    1.8099 O.2       1 RES1    0.0000
@<TRIPOS>BOND
     1    1    5 1
     2    2    7 1
     3    3    9 1
     4    4   11 1
     5    6    1 1
     6    8    2 1
     7   10    3 1
     8   12    4 1
     9   13   20 1
    10   14    1 1
    11   15    3 1
    12   16   14 1
    13   17    2 1
    14   18   17 1
    15   19   15 1
    16   20    1 1
    17   21   13 2
    18   22   16 2
    19   23   19 2
    20   24   18 2
    21   25   19 2
    22   26   18 2
    23   27   13 2
    24   28   16 2
    25    2   20 1
    26    3   14 1
    27    4   15 1
    28    4   17 1
@<TRIPOS>SUBSTRUCTURE
     1 RES1 1

@<TRIPOS>CRYSIN
   7.7110    7.7110   32.5530  90.0000  90.0000 120.0000 169 1

