# MOL2 file generated by ConQuest
# Please check atom types

@<TRIPOS>MOLECULE
OCHTET22
    60    60     3
SMALL
NO_CHARGES
****
Generated from CSD

@<TRIPOS>ATOM
      1 O1         0.1383    0.7879    3.9211 O.2       1 RES1    0.0000
      2 O2         1.3736   -2.6999    0.5997 O.2       1 RES1    0.0000
      3 O3        -1.4870   -0.6253    3.4963 O.2       1 RES1    0.0000
      4 O4         1.0897   -2.3714   -1.6028 O.2       1 RES1    0.0000
      5 N1        -0.2576   -1.3227   -0.1641 N.3       1 RES1    0.0000
      6 N2         0.0392   -0.2772    1.9397 N.3       1 RES1    0.0000
      7 N3        -0.4552   -0.0055    3.1895 N.pl3     1 RES1    0.0000
      8 N4         0.7332   -2.1826   -0.4570 N.pl3     1 RES1    0.0000
      9 C1        -0.7617   -1.2703    1.1436 C.3       1 RES1    0.0000
     10 C2         0.9076    0.6722    1.2981 C.3       1 RES1    0.0000
     11 O5         7.6099    6.1909    3.5950 O.2       2 RES2    0.0000
     12 O6         7.8485    4.6828   11.3600 O.2       2 RES2    0.0000
     13 O7         9.0327    8.1684    8.0633 O.2       2 RES2    0.0000
     14 O8         6.4224    2.7403    6.9336 O.2       2 RES2    0.0000
     15 O9         9.2182    4.7493    3.9995 O.2       2 RES2    0.0000
     16 O10        6.2769    6.1353   11.0414 O.2       2 RES2    0.0000
     17 O11        8.8741    7.8464    5.9863 O.2       2 RES2    0.0000
     18 O12        6.6250    3.0262    9.0910 O.2       2 RES2    0.0000
     19 N5         7.5195    6.8435    7.3306 N.3       2 RES2    0.0000
     20 N6         7.9694    4.1382    7.7253 N.3       2 RES2    0.0000
     21 N7         7.7482    5.7173    9.4880 N.3       2 RES2    0.0000
     22 N8         7.7347    5.1673    5.5797 N.3       2 RES2    0.0000
     23 N9         7.2811    5.4489   10.6960 N.pl3     2 RES2    0.0000
     24 N10        8.1867    5.3801    4.3535 N.pl3     2 RES2    0.0000
     25 N11        8.5490    7.6871    7.1417 N.pl3     2 RES2    0.0000
     26 N12        6.9237    3.1779    7.9206 N.pl3     2 RES2    0.0000
     27 C3         8.4868    4.1917    6.3318 C.3       2 RES2    0.0000
     28 C4         8.6455    4.7024    8.8261 C.3       2 RES2    0.0000
     29 C5         6.8958    6.1833    6.1955 C.3       2 RES2    0.0000
     30 C6         6.9966    6.7322    8.5986 C.3       2 RES2    0.0000
     31 O13        4.3647    4.6729    4.9940 O.2       3 RES3    0.0000
     32 O14        4.0363    6.2641   -2.8183 O.2       3 RES3    0.0000
     33 O15        2.8719    2.7348    0.5278 O.2       3 RES3    0.0000
     34 O16        5.5698    8.1640    1.6371 O.2       3 RES3    0.0000
     35 O17        2.8064    6.1025    4.6238 O.2       3 RES3    0.0000
     36 O18        5.6970    4.7668   -2.4643 O.2       3 RES3    0.0000
     37 O19        3.1098    3.0131    2.6649 O.2       3 RES3    0.0000
     38 O20        5.3021    7.8344   -0.5396 O.2       3 RES3    0.0000
     39 N13        4.4093    4.0913    1.2252 N.3       3 RES3    0.0000
     40 N14        3.9623    6.7748    0.9087 N.3       3 RES3    0.0000
     41 N15        4.2003    5.1520   -0.8497 N.3       3 RES3    0.0000
     42 N16        4.2334    5.7359    3.0253 N.3       3 RES3    0.0000
     43 N17        4.6976    5.4019   -2.1220 N.pl3     3 RES3    0.0000
     44 N18        3.7817    5.4303    4.2827 N.pl3     3 RES3    0.0000
     45 N19        3.4128    3.2401    1.4944 N.pl3     3 RES3    0.0000
     46 N20        5.0403    7.6664    0.6823 N.pl3     3 RES3    0.0000
     47 C7         3.3773    6.1888   -0.2392 C.3       3 RES3    0.0000
     48 C8         5.0964    4.7526    2.4256 C.3       3 RES3    0.0000
     49 C9         3.4340    6.7137    2.2679 C.3       3 RES3    0.0000
     50 C10        4.9815    4.1950   -0.0869 C.3       3 RES3    0.0000
     51 O1B       -0.1383   -0.7879   -3.9211 O.2       1 RES1    0.0000
     52 O2B       -1.3736    2.6999   -0.5997 O.2       1 RES1    0.0000
     53 O3B        1.4870    0.6253   -3.4963 O.2       1 RES1    0.0000
     54 O4B       -1.0897    2.3714    1.6028 O.2       1 RES1    0.0000
     55 N1B        0.2576    1.3227    0.1641 N.3       1 RES1    0.0000
     56 N2B       -0.0392    0.2772   -1.9397 N.3       1 RES1    0.0000
     57 N3B        0.4552    0.0055   -3.1895 N.pl3     1 RES1    0.0000
     58 N4B       -0.7332    2.1826    0.4570 N.pl3     1 RES1    0.0000
     59 C1B        0.7617    1.2703   -1.1436 C.3       1 RES1    0.0000
     60 C2B       -0.9076   -0.6722   -1.2981 C.3       1 RES1    0.0000
@<TRIPOS>BOND
     1    1    7 2
     2    2    8 2
     3    3    7 2
     4    4    8 2
     5    5    8 1
     6    6    7 1
     7    9    5 1
     8   10    6 1
     9   11   24 2
    10   12   23 2
    11   13   25 2
    12   14   26 2
    13   15   24 2
    14   16   23 2
    15   17   25 2
    16   18   26 2
    17   19   25 1
    18   20   26 1
    19   21   23 1
    20   22   24 1
    21   27   20 1
    22   28   20 1
    23   29   19 1
    24   30   19 1
    25   31   44 2
    26   32   43 2
    27   33   45 2
    28   34   46 2
    29   35   44 2
    30   36   43 2
    31   37   45 2
    32   38   46 2
    33   39   45 1
    34   40   46 1
    35   41   43 1
    36   42   44 1
    37   47   40 1
    38   48   39 1
    39   49   40 1
    40   50   39 1
    41   51   57 2
    42   52   58 2
    43   53   57 2
    44   54   58 2
    45   55   10 1
    46   56   57 1
    47   58   55 1
    48   59   55 1
    49   60    5 1
    50    6    9 1
    51   21   28 1
    52   21   30 1
    53   22   27 1
    54   22   29 1
    55   41   47 1
    56   41   50 1
    57   42   48 1
    58   42   49 1
    59   56   59 1
    60   56   60 1
@<TRIPOS>SUBSTRUCTURE
     1 RES1 1
     2 RES2 11
     3 RES3 31

@<TRIPOS>CRYSIN
  21.7990   10.9130   10.8190  90.0000  97.4300  90.0000  14 1

