# MOL2 file generated by ConQuest
# Please check atom types

@<TRIPOS>MOLECULE
OCILOC
   100   106     2
SMALL
NO_CHARGES
****
Generated from CSD

@<TRIPOS>ATOM
      1 C1         4.0024    8.1623    5.9680 C.3       1 RES1    0.0000
      2 H1         4.5265    8.9053    5.5525 H         1 RES1    0.0000
      3 C2         3.0346    7.5490    4.9372 C.3       1 RES1    0.0000
      4 H2         2.0991    7.8368    5.1449 H         1 RES1    0.0000
      5 C3         3.2031    6.0675    5.2888 C.3       1 RES1    0.0000
      6 H3         2.6751    5.8773    6.1172 H         1 RES1    0.0000
      7 C4         2.8333    5.0526    4.2473 C.3       1 RES1    0.0000
      8 H4         3.2012    4.1741    4.5536 H         1 RES1    0.0000
      9 C5         1.3287    4.8650    4.0661 C.3       1 RES1    0.0000
     10 H5         0.9179    4.5914    4.9239 H         1 RES1    0.0000
     11 H6         0.9155    5.7197    3.7838 H         1 RES1    0.0000
     12 C6         1.0769    3.7997    3.0126 C.3       1 RES1    0.0000
     13 H7         1.4031    2.9283    3.3496 H         1 RES1    0.0000
     14 H8         0.1018    3.7196    2.8608 H         1 RES1    0.0000
     15 C7         1.7593    4.1085    1.6941 C.3       1 RES1    0.0000
     16 H9         1.3416    4.9088    1.2892 H         1 RES1    0.0000
     17 H10        1.6289    3.3484    1.0735 H         1 RES1    0.0000
     18 C8         3.2521    4.3571    1.8806 C.3       1 RES1    0.0000
     19 H11        3.6372    4.6505    1.0162 H         1 RES1    0.0000
     20 H12        3.6897    3.5070    2.1323 H         1 RES1    0.0000
     21 C9         3.5651    5.4149    2.9501 C.3       1 RES1    0.0000
     22 C10        3.1341    6.8108    2.4812 C.3       1 RES1    0.0000
     23 H13        3.6207    7.0272    1.6462 H         1 RES1    0.0000
     24 H14        2.1686    6.7860    2.2655 H         1 RES1    0.0000
     25 C11        3.3808    7.9326    3.4934 C.3       1 RES1    0.0000
     26 H15        2.8404    8.7206    3.2351 H         1 RES1    0.0000
     27 H16        4.3340    8.1953    3.4535 H         1 RES1    0.0000
     28 C12        5.0558    5.3358    3.3043 C.3       1 RES1    0.0000
     29 H17        5.2620    4.4050    3.6067 H         1 RES1    0.0000
     30 C13        6.0067    5.7059    2.2175 C.2       1 RES1    0.0000
     31 H18        6.0302    6.6260    1.9778 H         1 RES1    0.0000
     32 C14        6.8199    4.9119    1.5476 C.2       1 RES1    0.0000
     33 C15        7.7545    5.4697    0.5194 C.3       1 RES1    0.0000
     34 H19        7.5488    5.0797   -0.3556 H         1 RES1    0.0000
     35 H20        8.6773    5.2522    0.7658 H         1 RES1    0.0000
     36 H21        7.6486    6.4436    0.4768 H         1 RES1    0.0000
     37 C16        6.8846    3.4240    1.7101 C.3       1 RES1    0.0000
     38 H22        6.2926    3.1489    2.4413 H         1 RES1    0.0000
     39 H23        7.8051    3.1584    1.9179 H         1 RES1    0.0000
     40 H24        6.5998    2.9915    0.8777 H         1 RES1    0.0000
     41 C17        3.2813    8.6545    7.1947 C.2       1 RES1    0.0000
     42 C18        1.9219   10.4369    7.9432 C.3       1 RES1    0.0000
     43 H25        1.2219    9.7999    8.1949 H         1 RES1    0.0000
     44 H26        1.5099   11.2583    7.6035 H         1 RES1    0.0000
     45 H27        2.4714   10.6458    8.7263 H         1 RES1    0.0000
     46 N1         4.6409    5.9442    5.6114 N.3       1 RES1    0.0000
     47 O1         4.8946    7.0832    6.3860 O.3       1 RES1    0.0000
     48 O2         5.3917    6.2513    4.3717 O.3       1 RES1    0.0000
     49 O3         2.7505    9.8576    6.9160 O.3       1 RES1    0.0000
     50 O4         3.1466    8.0870    8.2331 O.2       1 RES1    0.0000
     51 C19       -0.1872    1.6931    7.3478 C.3       2 RES2    0.0000
     52 H28        0.3349    2.4439    7.7527 H         2 RES2    0.0000
     53 C20       -1.1096    1.0685    8.3893 C.3       2 RES2    0.0000
     54 H29       -2.0520    1.3542    8.2175 H         2 RES2    0.0000
     55 C21       -0.9448   -0.4060    8.0177 C.3       2 RES2    0.0000
     56 H30       -1.4913   -0.5873    7.2000 H         2 RES2    0.0000
     57 C22       -1.2948   -1.4395    9.0579 C.3       2 RES2    0.0000
     58 H31       -0.9419   -2.3132    8.7223 H         2 RES2    0.0000
     59 C23       -2.7842   -1.6284    9.2710 C.3       2 RES2    0.0000
     60 H32       -3.2166   -1.8692    8.4133 H         2 RES2    0.0000
     61 H33       -3.1852   -0.7829    9.5933 H         2 RES2    0.0000
     62 C24       -3.0250   -2.7348   10.2952 C.3       2 RES2    0.0000
     63 H34       -2.7087   -3.5978    9.9250 H         2 RES2    0.0000
     64 H35       -3.9962   -2.8147   10.4697 H         2 RES2    0.0000
     65 C25       -2.2963   -2.4481   11.6058 C.3       2 RES2    0.0000
     66 H36       -2.7014   -1.6557   12.0386 H         2 RES2    0.0000
     67 H37       -2.4066   -3.2197   12.2157 H         2 RES2    0.0000
     68 C26       -0.8100   -2.1940   11.3807 C.3       2 RES2    0.0000
     69 H38       -0.3810   -3.0392   11.0957 H         2 RES2    0.0000
     70 H39       -0.3994   -1.9223   12.2397 H         2 RES2    0.0000
     71 C27       -0.5213   -1.1193   10.3365 C.3       2 RES2    0.0000
     72 C28       -0.9268    0.2704   10.8426 C.3       2 RES2    0.0000
     73 H40       -0.4016    0.4731   11.6577 H         2 RES2    0.0000
     74 H41       -1.8819    0.2447   11.1023 H         2 RES2    0.0000
     75 C29       -0.7238    1.4098    9.8331 C.3       2 RES2    0.0000
     76 H42       -1.2593    2.1891   10.1274 H         2 RES2    0.0000
     77 H43        0.2286    1.6785    9.8504 H         2 RES2    0.0000
     78 C30        0.9610   -1.1895    9.9316 C.3       2 RES2    0.0000
     79 H44        1.1534   -2.1109    9.5947 H         2 RES2    0.0000
     80 C31        1.9479   -0.8607   10.9904 C.2       2 RES2    0.0000
     81 H45        2.0121    0.0544   11.2382 H         2 RES2    0.0000
     82 C32        2.7504   -1.7018   11.6311 C.2       2 RES2    0.0000
     83 C33        3.7318   -1.1974   12.6446 C.3       2 RES2    0.0000
     84 H46        3.6587   -0.2237   12.7139 H         2 RES2    0.0000
     85 H47        4.6397   -1.4394   12.3689 H         2 RES2    0.0000
     86 H48        3.5373   -1.6031   13.5170 H         2 RES2    0.0000
     87 C34        2.7642   -3.1834   11.4339 C.3       2 RES2    0.0000
     88 H49        2.1343   -3.4235   10.7227 H         2 RES2    0.0000
     89 H50        2.5007   -3.6268   12.2677 H         2 RES2    0.0000
     90 H51        3.6662   -3.4713   11.1822 H         2 RES2    0.0000
     91 C35       -0.9400    2.1750    6.1332 C.2       2 RES2    0.0000
     92 C36       -2.2996    3.9545    5.3634 C.3       2 RES2    0.0000
     93 H52       -1.7441    4.1874    4.5909 H         2 RES2    0.0000
     94 H53       -2.7369    4.7613    5.7070 H         2 RES2    0.0000
     95 H54       -2.9801    3.3036    5.0917 H         2 RES2    0.0000
     96 N2         0.4820   -0.5340    7.6572 N.3       2 RES2    0.0000
     97 O5         0.7119    0.6309    6.9065 O.3       2 RES2    0.0000
     98 O6         1.2598   -0.2469    8.8811 O.3       2 RES2    0.0000
     99 O7        -1.4662    3.3778    6.4003 O.3       2 RES2    0.0000
    100 O8        -1.1088    1.5899    5.1164 O.2       2 RES2    0.0000
@<TRIPOS>BOND
     1    1    2 1
     2    3    1 1
     3    4    3 1
     4    5    3 1
     5    6    5 1
     6    7    5 1
     7    8    7 1
     8    9    7 1
     9   10    9 1
    10   11    9 1
    11   12    9 1
    12   13   12 1
    13   14   12 1
    14   15   12 1
    15   16   15 1
    16   17   15 1
    17   18   15 1
    18   19   18 1
    19   20   18 1
    20   21    7 1
    21   22   21 1
    22   23   22 1
    23   24   22 1
    24   25    3 1
    25   26   25 1
    26   27   25 1
    27   28   21 1
    28   29   28 1
    29   30   28 1
    30   31   30 1
    31   32   30 2
    32   33   32 1
    33   34   33 1
    34   35   33 1
    35   36   33 1
    36   37   32 1
    37   38   37 1
    38   39   37 1
    39   40   37 1
    40   41    1 1
    41   42   43 1
    42   44   42 1
    43   45   42 1
    44   46    5 1
    45   47    1 1
    46   48   28 1
    47   49   41 1
    48   50   41 2
    49   51   52 1
    50   53   51 1
    51   54   53 1
    52   55   53 1
    53   56   55 1
    54   57   55 1
    55   58   57 1
    56   59   57 1
    57   60   59 1
    58   61   59 1
    59   62   59 1
    60   63   62 1
    61   64   62 1
    62   65   62 1
    63   66   65 1
    64   67   65 1
    65   68   65 1
    66   69   68 1
    67   70   68 1
    68   71   57 1
    69   72   71 1
    70   73   72 1
    71   74   72 1
    72   75   53 1
    73   76   75 1
    74   77   75 1
    75   78   71 1
    76   79   78 1
    77   80   78 1
    78   81   80 1
    79   82   80 2
    80   83   82 1
    81   84   83 1
    82   85   83 1
    83   86   83 1
    84   87   82 1
    85   88   87 1
    86   89   87 1
    87   90   87 1
    88   91   51 1
    89   92   93 1
    90   94   92 1
    91   95   92 1
    92   96   55 1
    93   97   51 1
    94   98   78 1
    95   99   91 1
    96  100   91 2
    97   18   21 1
    98   22   25 1
    99   42   49 1
   100   46   47 1
   101   46   48 1
   102   68   71 1
   103   72   75 1
   104   92   99 1
   105   96   97 1
   106   96   98 1
@<TRIPOS>SUBSTRUCTURE
     1 RES1 1
     2 RES2 51

@<TRIPOS>CRYSIN
   9.9060   13.0890   13.6900 102.7830  92.3010  97.0120   2 1

