# MOL2 file generated by ConQuest
# Please check atom types

@<TRIPOS>MOLECULE
OCONEZ
    42    43     1
SMALL
NO_CHARGES
****
Generated from CSD

@<TRIPOS>ATOM
      1 C1         4.8453    5.8585    5.1751 C.2       1 RES1    0.0000
      2 C2         4.6281    6.0459    3.8939 C.2       1 RES1    0.0000
      3 C3         5.5466    6.3814    2.8213 C.2       1 RES1    0.0000
      4 C4         5.3012    6.3382    1.5072 C.2       1 RES1    0.0000
      5 C5         4.0894    5.9279    0.8720 C.2       1 RES1    0.0000
      6 C6         3.9370    5.9744   -0.4506 C.2       1 RES1    0.0000
      7 C7         3.8699    5.4452    6.1876 C.ar      1 RES1    0.0000
      8 C8         2.5049    5.3419    5.9542 C.ar      1 RES1    0.0000
      9 C9         1.6396    4.9787    6.9490 C.ar      1 RES1    0.0000
     10 C10        2.0678    4.6985    8.2319 C.ar      1 RES1    0.0000
     11 C11        3.4221    4.7936    8.4646 C.ar      1 RES1    0.0000
     12 C12        4.3007    5.1629    7.4762 C.ar      1 RES1    0.0000
     13 C13        1.1025    4.3231    9.3182 C.3       1 RES1    0.0000
     14 H1         0.2458    4.7158    9.1351 H         1 RES1    0.0000
     15 H2         1.4283    4.6459   10.1619 H         1 RES1    0.0000
     16 H3         1.0158    3.3681    9.3528 H         1 RES1    0.0000
     17 C14        2.7818    5.5765   -1.2411 C.ar      1 RES1    0.0000
     18 C15        2.8432    5.6291   -2.6254 C.ar      1 RES1    0.0000
     19 C16        1.7871    5.2391   -3.4129 C.ar      1 RES1    0.0000
     20 C17        0.6119    4.7811   -2.8462 C.ar      1 RES1    0.0000
     21 C18        0.5377    4.7528   -1.4700 C.ar      1 RES1    0.0000
     22 C19        1.5887    5.1349   -0.6795 C.ar      1 RES1    0.0000
     23 C20       -0.5427    4.3442   -3.7066 C.3       1 RES1    0.0000
     24 H4        -1.1407    3.8011   -3.1886 H         1 RES1    0.0000
     25 H5        -0.2126    3.8358   -4.4507 H         1 RES1    0.0000
     26 H6        -1.0111    5.1167   -4.0295 H         1 RES1    0.0000
     27 N1         6.9073    6.8343    3.1778 N.pl3     1 RES1    0.0000
     28 O1         7.0944    7.3376    4.2579 O.2       1 RES1    0.0000
     29 O2         7.8026    6.6759    2.3727 O.2       1 RES1    0.0000
     30 H7         5.7111    5.9332    5.5252 H         1 RES1    0.0000
     31 H8         3.7684    5.8823    3.5780 H         1 RES1    0.0000
     32 H9         6.0843    6.6493    0.8997 H         1 RES1    0.0000
     33 H10        3.3791    5.6390    1.4624 H         1 RES1    0.0000
     34 H11        4.6577    6.3319   -1.0205 H         1 RES1    0.0000
     35 H12        2.1693    5.4633    5.0706 H         1 RES1    0.0000
     36 H13        0.7030    4.9444    6.7873 H         1 RES1    0.0000
     37 H14        3.7519    4.6139    9.3306 H         1 RES1    0.0000
     38 H15        5.2120    5.1938    7.6759 H         1 RES1    0.0000
     39 H16        3.6568    5.8961   -3.0297 H         1 RES1    0.0000
     40 H17        1.8821    5.3048   -4.3728 H         1 RES1    0.0000
     41 H18       -0.2499    4.5248   -1.0237 H         1 RES1    0.0000
     42 H19        1.4924    5.1036    0.2273 H         1 RES1    0.0000
@<TRIPOS>BOND
     1    1    2 2
     2    2    3 1
     3    3    4 2
     4    4    5 1
     5    5    6 2
     6    6   17 1
     7    7    1 1
     8    8    7 ar
     9    9    8 ar
    10   10    9 ar
    11   11   10 ar
    12   12    7 ar
    13   13   10 1
    14   14   13 1
    15   15   13 1
    16   16   13 1
    17   17   18 ar
    18   18   19 ar
    19   19   20 ar
    20   20   21 ar
    21   21   22 ar
    22   22   17 ar
    23   23   20 1
    24   24   23 1
    25   25   23 1
    26   26   23 1
    27   27    3 1
    28   28   27 2
    29   29   27 2
    30   30    1 1
    31   31    2 1
    32   32    4 1
    33   33    5 1
    34   34    6 1
    35   35    8 1
    36   36    9 1
    37   37   11 1
    38   38   12 1
    39   39   18 1
    40   40   19 1
    41   41   21 1
    42   42   22 1
    43   11   12 ar
@<TRIPOS>SUBSTRUCTURE
     1 RES1 1

@<TRIPOS>CRYSIN
   6.9870    7.5370   16.2170  95.7500  99.6000  92.3300   2 1

