# MOL2 file generated by ConQuest
# Please check atom types

@<TRIPOS>MOLECULE
OCUHUS
    29    30     1
SMALL
NO_CHARGES
****
Generated from CSD

@<TRIPOS>ATOM
      1 C1        -1.3140    5.2090    2.2361 C.2       1 RES1    0.0000
      2 C2        -1.0444    6.5812    2.5233 C.2       1 RES1    0.0000
      3 C3        -0.9668    3.0301    1.2129 C.3       1 RES1    0.0000
      4 H1        -0.7144    2.8666    0.2693 H         1 RES1    0.0000
      5 H2        -1.9551    3.0243    1.2685 H         1 RES1    0.0000
      6 C4        -0.4071    1.9067    2.0822 C.3       1 RES1    0.0000
      7 C5         0.1185    7.3696    2.1344 C.2       1 RES1    0.0000
      8 C6         1.5636    8.8500    2.0583 C.2       1 RES1    0.0000
      9 C7         2.4733   10.0076    2.2062 C.3       1 RES1    0.0000
     10 H3         2.2354   10.6954    1.5506 H         1 RES1    0.0000
     11 H4         3.3977    9.7190    2.0558 H         1 RES1    0.0000
     12 H5         2.3896   10.3749    3.1106 H         1 RES1    0.0000
     13 N1        -2.4857    4.8855    2.7233 N.2       1 RES1    0.0000
     14 N2        -2.0384    7.0834    3.1969 N.2       1 RES1    0.0000
     15 N3        -0.4805    4.3207    1.6147 N.3       1 RES1    0.0000
     16 H6         0.1820    4.6241    1.2138 H         1 RES1    0.0000
     17 N4        -0.9874    1.8459    3.4892 N.pl3     1 RES1    0.0000
     18 N5         1.1024    2.0136    2.2182 N.pl3     1 RES1    0.0000
     19 N6        -0.6979    0.5576    1.4463 N.pl3     1 RES1    0.0000
     20 N7         0.8422    6.9883    1.1223 N.2       1 RES1    0.0000
     21 N8         0.5238    8.5220    2.7609 N.2       1 RES1    0.0000
     22 O1        -2.9420    6.0605    3.3371 O.3       1 RES1    0.0000
     23 O2        -1.5290    0.8102    3.8269 O.2       1 RES1    0.0000
     24 O3        -0.8689    2.8564    4.1465 O.2       1 RES1    0.0000
     25 O4         1.6075    1.8129    3.2978 O.2       1 RES1    0.0000
     26 O5         1.6677    2.2780    1.1779 O.2       1 RES1    0.0000
     27 O6        -1.7738    0.4647    0.8898 O.2       1 RES1    0.0000
     28 O7         0.1476   -0.3140    1.5608 O.2       1 RES1    0.0000
     29 O8         1.8260    7.9895    1.0616 O.3       1 RES1    0.0000
@<TRIPOS>BOND
     1    1    2 1
     2    2    7 1
     3    3    4 1
     4    5    3 1
     5    6    3 1
     6    7   20 2
     7    8    9 1
     8    9   10 1
     9   11    9 1
    10   12    9 1
    11   13    1 2
    12   14    2 2
    13   15    1 1
    14   16   15 1
    15   17    6 1
    16   18    6 1
    17   19    6 1
    18   20   29 1
    19   21    7 1
    20   22   13 1
    21   23   17 2
    22   24   17 2
    23   25   18 2
    24   26   18 2
    25   27   19 2
    26   28   19 2
    27   29    8 1
    28    3   15 1
    29    8   21 2
    30   14   22 1
@<TRIPOS>SUBSTRUCTURE
     1 RES1 1

@<TRIPOS>CRYSIN
   5.9313   25.0360    8.5659  90.0000  93.7230  90.0000  14 1

