# MOL2 file generated by ConQuest
# Please check atom types

@<TRIPOS>MOLECULE
ODACOO
   127   129     3
SMALL
NO_CHARGES
****
Generated from CSD

@<TRIPOS>ATOM
      1 O1         3.2545    3.2572    1.9322 O.3       1 RES1    0.0000
      2 O2         4.3128    3.2098   -0.0739 O.2       1 RES1    0.0000
      3 O3         2.8275    4.5636    4.4127 O.3       1 RES1    0.0000
      4 N1         3.3541    1.3475    0.8579 N.am      1 RES1    0.0000
      5 H1         2.9152    1.1016    1.5802 H         1 RES1    0.0000
      6 N2         3.6710    5.4054    5.3056 N.3       1 RES1    0.0000
      7 C1         3.0247    6.6710    3.4470 C.3       1 RES1    0.0000
      8 H2         2.2361    7.1599    3.7920 H         1 RES1    0.0000
      9 H3         3.3597    7.1286    2.6360 H         1 RES1    0.0000
     10 C2         2.6874    5.2308    3.1573 C.3       1 RES1    0.0000
     11 H4         1.7319    5.1758    2.8668 H         1 RES1    0.0000
     12 C3         4.7305    4.5173    5.8473 C.3       1 RES1    0.0000
     13 C4         5.7308    5.4380    6.5667 C.3       1 RES1    0.0000
     14 H5         6.3095    4.8498    7.1116 H         1 RES1    0.0000
     15 H6         6.3084    5.8268    5.8625 H         1 RES1    0.0000
     16 C5         4.7299    7.7967    6.7149 C.ar      1 RES1    0.0000
     17 C6         5.3148    6.6021    7.4778 C.3       1 RES1    0.0000
     18 C7         4.6771    9.0180    7.4019 C.ar      1 RES1    0.0000
     19 H7         4.9770    9.0359    8.3035 H         1 RES1    0.0000
     20 C8         4.2233   10.1759    6.8593 C.ar      1 RES1    0.0000
     21 H8         4.2118   10.9737    7.3765 H         1 RES1    0.0000
     22 C9         3.7732   10.1911    5.5476 C.ar      1 RES1    0.0000
     23 H9         3.4665   10.9943    5.1449 H         1 RES1    0.0000
     24 C10        4.1166    6.5655    4.5107 C.3       1 RES1    0.0000
     25 H10        4.9981    6.3701    4.0819 H         1 RES1    0.0000
     26 C11        4.2225    7.8013    5.3849 C.ar      1 RES1    0.0000
     27 C12        3.7872    9.0104    4.8470 C.ar      1 RES1    0.0000
     28 H11        3.4833    9.0187    3.9477 H         1 RES1    0.0000
     29 C13        4.0314    3.5189    6.7799 C.3       1 RES1    0.0000
     30 H12        3.3109    3.9744    7.2655 H         1 RES1    0.0000
     31 H13        4.6810    3.1593    7.4194 H         1 RES1    0.0000
     32 H14        3.6546    2.7859    6.2491 H         1 RES1    0.0000
     33 C14        5.4959    3.7392    4.7520 C.3       1 RES1    0.0000
     34 H15        4.8486    3.2138    4.2180 H         1 RES1    0.0000
     35 H16        5.9333    4.3862    4.1428 H         1 RES1    0.0000
     36 C15        6.5547    2.7961    5.3132 C.3       1 RES1    0.0000
     37 H17        7.2465    3.3169    5.7731 H         1 RES1    0.0000
     38 H18        6.9613    2.2881    4.5812 H         1 RES1    0.0000
     39 H19        6.1377    2.1769    5.9484 H         1 RES1    0.0000
     40 C16        6.6358    7.0248    8.1576 C.3       1 RES1    0.0000
     41 H20        7.2754    7.3151    7.4749 H         1 RES1    0.0000
     42 H21        7.0066    6.2645    8.6524 H         1 RES1    0.0000
     43 H22        6.4616    7.7639    8.7777 H         1 RES1    0.0000
     44 C17        4.3517    6.1580    8.5821 C.3       1 RES1    0.0000
     45 H23        4.2264    6.8907    9.2215 H         1 RES1    0.0000
     46 H24        4.7239    5.3798    9.0461 H         1 RES1    0.0000
     47 H25        3.4879    5.9190    8.1854 H         1 RES1    0.0000
     48 C18        3.5651    4.6543    2.0650 C.3       1 RES1    0.0000
     49 H26        3.3954    5.1231    1.2097 H         1 RES1    0.0000
     50 H27        4.5198    4.7693    2.2996 H         1 RES1    0.0000
     51 C19        3.7178    2.6487    0.8039 C.2       1 RES1    0.0000
     52 C20        3.5883    0.3350   -0.0956 C.ar      1 RES1    0.0000
     53 C21        4.4252    0.4839   -1.1972 C.ar      1 RES1    0.0000
     54 H28        4.8591    1.3124   -1.3672 H         1 RES1    0.0000
     55 C22        4.6153   -0.6014   -2.0456 C.ar      1 RES1    0.0000
     56 H29        5.1910   -0.5079   -2.7953 H         1 RES1    0.0000
     57 C23        3.9939   -1.8074   -1.8271 C.ar      1 RES1    0.0000
     58 H30        4.1376   -2.5370   -2.4177 H         1 RES1    0.0000
     59 C24        3.1580   -1.9430   -0.7405 C.ar      1 RES1    0.0000
     60 H31        2.7171   -2.7694   -0.5798 H         1 RES1    0.0000
     61 C25        2.9618   -0.8804    0.1131 C.ar      1 RES1    0.0000
     62 H32        2.3852   -0.9843    0.8608 H         1 RES1    0.0000
     63 O4         1.6214    0.8163    3.1671 O.3       2 RES2    0.0000
     64 O5         0.2235    2.8217    4.6095 O.3       2 RES2    0.0000
     65 O6        -1.3450    2.9729    6.2289 O.2       2 RES2    0.0000
     66 N3         0.4355    4.4174    6.1041 N.am      2 RES2    0.0000
     67 H33        1.2135    4.4973    5.7015 H         2 RES2    0.0000
     68 N4         1.7134   -0.6729    3.2389 N.3       2 RES2    0.0000
     69 C26        0.3449   -1.1870    3.0367 C.3       2 RES2    0.0000
     70 H34       -0.1026   -1.3226    3.9209 H         2 RES2    0.0000
     71 C27       -0.3417   -0.0627    2.2788 C.3       2 RES2    0.0000
     72 H35       -0.1563   -0.1238    1.3082 H         2 RES2    0.0000
     73 H36       -1.3202   -0.0837    2.4230 H         2 RES2    0.0000
     74 C28        0.2701    1.1910    2.8731 C.3       2 RES2    0.0000
     75 H37        0.2789    1.9078    2.1761 H         2 RES2    0.0000
     76 C29       -0.4827    1.6903    4.0719 C.3       2 RES2    0.0000
     77 H38       -1.4002    1.9568    3.8099 H         2 RES2    0.0000
     78 H39       -0.5483    0.9762    4.7530 H         2 RES2    0.0000
     79 C30       -0.3413    3.3777    5.7196 C.2       2 RES2    0.0000
     80 C31        0.1290    5.3908    7.0862 C.ar      2 RES2    0.0000
     81 C32       -0.9683    5.3022    7.9465 C.ar      2 RES2    0.0000
     82 H40       -1.5597    4.5610    7.8973 H         2 RES2    0.0000
     83 C33       -1.1822    6.3122    8.8743 C.ar      2 RES2    0.0000
     84 H41       -1.9342    6.2607    9.4524 H         2 RES2    0.0000
     85 C34       -0.3311    7.3809    8.9731 C.ar      2 RES2    0.0000
     86 H42       -0.4838    8.0564    9.6242 H         2 RES2    0.0000
     87 C35        0.7456    7.4708    8.1210 C.ar      2 RES2    0.0000
     88 H43        1.3364    8.2121    8.1782 H         2 RES2    0.0000
     89 C36        0.9693    6.4773    7.1780 C.ar      2 RES2    0.0000
     90 H44        1.7113    6.5479    6.5891 H         2 RES2    0.0000
     91 C37        0.3886   -2.5110    2.2641 C.ar      2 RES2    0.0000
     92 C38       -0.6004   -2.7116    1.2922 C.ar      2 RES2    0.0000
     93 H45       -1.2775   -2.0538    1.1847 H         2 RES2    0.0000
     94 C39       -0.6256   -3.8380    0.4819 C.ar      2 RES2    0.0000
     95 H46       -1.3116   -3.9514   -0.1646 H         2 RES2    0.0000
     96 C40        0.3539   -4.7836    0.6297 C.ar      2 RES2    0.0000
     97 H47        0.3613   -5.5552    0.0752 H         2 RES2    0.0000
     98 C41        1.3250   -4.6125    1.5805 C.ar      2 RES2    0.0000
     99 H48        1.9993   -5.2768    1.6607 H         2 RES2    0.0000
    100 C42        1.3756   -3.5044    2.4431 C.ar      2 RES2    0.0000
    101 C43        2.4886   -3.5141    3.5002 C.3       2 RES2    0.0000
    102 C44        2.2326   -2.5198    4.6784 C.3       2 RES2    0.0000
    103 H49        1.3148   -2.6993    5.0054 H         2 RES2    0.0000
    104 H50        2.8470   -2.7824    5.4080 H         2 RES2    0.0000
    105 C45        2.3532   -1.0004    4.5333 C.3       2 RES2    0.0000
    106 C46        3.8451   -3.2789    2.8275 C.3       2 RES2    0.0000
    107 H51        4.0585   -4.0394    2.2495 H         2 RES2    0.0000
    108 H52        4.5380   -3.1858    3.5147 H         2 RES2    0.0000
    109 H53        3.8061   -2.4600    2.2906 H         2 RES2    0.0000
    110 C47        2.5193   -4.8971    4.1875 C.3       2 RES2    0.0000
    111 H54        2.7102   -5.5889    3.5218 H         2 RES2    0.0000
    112 H55        1.6490   -5.0746    4.6027 H         2 RES2    0.0000
    113 H56        3.2165   -4.9046    4.8765 H         2 RES2    0.0000
    114 C48        1.6751   -0.3535    5.7561 C.3       2 RES2    0.0000
    115 H57        0.7694   -0.7304    5.8858 H         2 RES2    0.0000
    116 H58        1.5939    0.6250    5.6263 H         2 RES2    0.0000
    117 C49        3.7889   -0.4953    4.4399 C.3       2 RES2    0.0000
    118 H59        3.7775    0.4735    4.2341 H         2 RES2    0.0000
    119 H60        4.2443   -0.9571    3.6918 H         2 RES2    0.0000
    120 C50        2.5666   -0.6615    6.9792 C.3       2 RES2    0.0000
    121 H61        2.6925   -1.6309    7.0544 H         2 RES2    0.0000
    122 H62        2.1347   -0.3241    7.7917 H         2 RES2    0.0000
    123 H63        3.4366   -0.2263    6.8665 H         2 RES2    0.0000
    124 C51        4.5907   -0.7252    5.7319 Du        3 SUP3    0.0000
    125 H64        4.0707   -0.4062    6.4996 Du        3 SUP3    0.0000
    126 H65        5.4362   -0.2325    5.6836 Du        3 SUP3    0.0000
    127 H66        4.7743   -1.6820    5.8375 Du        3 SUP3    0.0000
@<TRIPOS>BOND
     1    1   48 1
     2    2   51 2
     3    3    6 1
     4    4    5 1
     5    6   12 1
     6    7    8 1
     7    9    7 1
     8   10    3 1
     9   11   10 1
    10   12   13 1
    11   13   14 1
    12   15   13 1
    13   16   17 1
    14   17   13 1
    15   18   16 ar
    16   19   18 1
    17   20   18 ar
    18   21   20 1
    19   22   20 ar
    20   23   22 1
    21   24    6 1
    22   25   24 1
    23   26   16 ar
    24   27   22 ar
    25   28   27 1
    26   29   12 1
    27   30   29 1
    28   31   29 1
    29   32   29 1
    30   33   12 1
    31   34   33 1
    32   35   33 1
    33   36   33 1
    34   37   36 1
    35   38   36 1
    36   39   36 1
    37   40   17 1
    38   41   40 1
    39   42   40 1
    40   43   40 1
    41   44   17 1
    42   45   44 1
    43   46   44 1
    44   47   44 1
    45   48   10 1
    46   49   48 1
    47   50   48 1
    48   51    1 1
    49   52    4 1
    50   53   52 ar
    51   54   53 1
    52   55   53 ar
    53   56   55 1
    54   57   55 ar
    55   58   57 1
    56   59   57 ar
    57   60   59 1
    58   61   52 ar
    59   62   61 1
    60   63   68 1
    61   64   76 1
    62   65   79 2
    63   66   67 1
    64   68   69 1
    65   69   70 1
    66   71   69 1
    67   72   71 1
    68   73   71 1
    69   74   63 1
    70   75   74 1
    71   76   74 1
    72   77   76 1
    73   78   76 1
    74   79   64 1
    75   80   66 1
    76   81   80 ar
    77   82   81 1
    78   83   81 ar
    79   84   83 1
    80   85   83 ar
    81   86   85 1
    82   87   85 ar
    83   88   87 1
    84   89   80 ar
    85   90   89 1
    86   91   69 1
    87   92   91 ar
    88   93   92 1
    89   94   92 ar
    90   95   94 1
    91   96   94 ar
    92   97   96 1
    93   98   96 ar
    94   99   98 1
    95  100   91 ar
    96  101  100 1
    97  102  101 1
    98  103  102 1
    99  104  102 1
   100  105   68 1
   101  106  101 1
   102  107  106 1
   103  108  106 1
   104  109  106 1
   105  110  101 1
   106  111  110 1
   107  112  110 1
   108  113  110 1
   109  114  105 1
   110  115  114 1
   111  116  114 1
   112  117  105 1
   113  118  117 1
   114  119  117 1
   115  120  114 1
   116  121  120 1
   117  122  120 1
   118  123  120 1
   119    4   51 1
   120    7   10 1
   121    7   24 1
   122   24   26 1
   123   26   27 ar
   124   59   61 ar
   125   66   79 1
   126   71   74 1
   127   87   89 ar
   128   98  100 ar
   129  102  105 1
@<TRIPOS>SUBSTRUCTURE
     1 RES1 1
     2 RES2 63
     3 SUP3 124

@<TRIPOS>CRYSIN
  11.3620   11.5970   18.0120  94.8800  91.9300 114.2500   2 1

