# MOL2 file generated by ConQuest
# Please check atom types

@<TRIPOS>MOLECULE
ODAMIS
   142   122     3
SMALL
USER_CHARGES
****
Generated from CSD

@<TRIPOS>ATOM
      1 O1         3.1171   13.4384    8.8707 O.3       1 RES1    0.0000
      2 H1         3.0570   12.7264    9.3133 H         1 RES1    0.0000
      3 N1         3.2636   15.8480   11.3497 N.3       1 RES1    0.0000
      4 N2         3.3719   14.4813    9.7178 N.pl3     1 RES1    1.0000
      5 C1         2.6908   14.7338   10.8388 C.2       1 RES1    0.0000
      6 C2         4.3674   15.3987    9.4959 C.2       1 RES1    0.0000
      7 C3         4.2972   16.2725   10.5257 C.2       1 RES1    0.0000
      8 C4         5.2757   15.2995    8.3165 C.3       1 RES1    0.0000
      9 H2         5.7089   14.4211    8.3110 H         1 RES1    0.0000
     10 H3         5.9582   16.0000    8.3701 H         1 RES1    0.0000
     11 H4         4.7569   15.4127    7.4927 H         1 RES1    0.0000
     12 C5         5.1043   17.4854   10.8223 C.3       1 RES1    0.0000
     13 H5         4.5091   18.2616   10.9074 H         1 RES1    0.0000
     14 H6         5.7400   17.6418   10.0932 H         1 RES1    0.0000
     15 H7         5.5936   17.3553   11.6612 H         1 RES1    0.0000
     16 C6         2.7563   16.5874   12.5125 C.3       1 RES1    0.0000
     17 H8         3.5057   17.0830   12.9299 H         1 RES1    0.0000
     18 H9         2.4135   15.9410   13.1798 H         1 RES1    0.0000
     19 C7         1.6578   17.5632   12.1638 C.ar      1 RES1    0.0000
     20 C8         1.4818   18.0582   10.8786 C.ar      1 RES1    0.0000
     21 H10        2.0427   17.7597   10.1729 H         1 RES1    0.0000
     22 C9         0.4892   18.9894   10.6314 C.ar      1 RES1    0.0000
     23 H11        0.3802   19.3345    9.7527 H         1 RES1    0.0000
     24 C10       -0.3428   19.4237   11.6338 C.ar      1 RES1    0.0000
     25 H12       -1.0128   20.0741   11.4566 H         1 RES1    0.0000
     26 C11       -0.1916   18.9019   12.9079 C.ar      1 RES1    0.0000
     27 H13       -0.7822   19.1699   13.6013 H         1 RES1    0.0000
     28 C12        0.8149   17.9952   13.1757 C.ar      1 RES1    0.0000
     29 H14        0.9302   17.6662   14.0599 H         1 RES1    0.0000
     30 C13        1.5503   13.9678   11.4209 C.3       1 RES1    0.0000
     31 H15        1.1530   14.5837   12.1020 H         1 RES1    0.0000
     32 C14        0.4285   13.7361   10.4063 C.ar      1 RES1    0.0000
     33 C15       -0.3662   12.6027   10.4626 C.ar      1 RES1    0.0000
     34 H16       -0.1589   11.9136   11.0832 H         1 RES1    0.0000
     35 C16       -1.4693   12.4606    9.6154 C.ar      1 RES1    0.0000
     36 H17       -2.0131   11.6840    9.6703 H         1 RES1    0.0000
     37 C17       -1.7638   13.4459    8.7037 C.ar      1 RES1    0.0000
     38 H18       -2.5194   13.3584    8.1339 H         1 RES1    0.0000
     39 C18       -0.9613   14.5615    8.6199 C.ar      1 RES1    0.0000
     40 H19       -1.1530   15.2339    7.9787 H         1 RES1    0.0000
     41 C19        0.1215   14.7074    9.4657 C.ar      1 RES1    0.0000
     42 H20        0.6638   15.4838    9.4012 H         1 RES1    0.0000
     43 C20        2.0115   12.7534   12.2187 C.2       1 RES1    0.0000
     44 O2         0.5999   13.3706   14.0888 O.2       1 RES1   -1.0000
     45 O3         1.5908   11.4056   14.2384 O.3       1 RES1    0.0000
     46 O4         2.7407   10.4689   12.3917 O.3       1 RES1    0.0000
     47 O5         2.8529   11.4727   10.4008 O.2       1 RES1    0.0000
     48 C21        1.3493   12.5659   13.5354 C.2       1 RES1    0.0000
     49 C22        2.5288   11.6149   11.6502 C.2       1 RES1    0.0000
     50 C23        3.9809   11.2410   14.3387 C.3       1 RES1    0.0000
     51 H21        4.0479   12.1778   14.0544 H         1 RES1    0.0000
     52 H22        4.7584   10.7432   14.0078 H         1 RES1    0.0000
     53 H23        3.9560   11.1984   15.3163 H         1 RES1    0.0000
     54 C24        2.5008    9.2212   14.3826 C.3       1 RES1    0.0000
     55 H24        2.4634    9.2862   15.3602 H         1 RES1    0.0000
     56 H25        3.2408    8.6340   14.1217 H         1 RES1    0.0000
     57 H26        1.6578    8.8534   14.0462 H         1 RES1    0.0000
     58 C25        2.7251   10.6373   13.7785 C.3       1 RES1    0.0000
     59 O6         1.8993   13.9822   14.2590 Du        3 SUP3    0.0000
     60 O7         2.7438   11.9441   14.3236 Du        3 SUP3    0.0000
     61 O8         3.2533   10.7513   12.3834 Du        3 SUP3    0.0000
     62 O9         3.0336   11.5844   10.4241 Du        3 SUP3    0.0000
     63 C26        2.2296   13.0089   13.5849 Du        3 SUP3    0.0000
     64 C27        2.7641   11.7470   11.5953 Du        3 SUP3    0.0000
     65 C28        3.7192    9.8125   14.4677 Du        3 SUP3    0.0000
     66 H27        4.5855   10.2677   14.4581 Du        3 SUP3    0.0000
     67 H28        3.7986    8.9489   14.0119 Du        3 SUP3    0.0000
     68 H29        3.4372    9.6683   15.3959 Du        3 SUP3    0.0000
     69 C29        1.3446   10.1051   13.6796 Du        3 SUP3    0.0000
     70 H30        0.9255   10.1173   14.5652 Du        3 SUP3    0.0000
     71 H31        1.3727    9.1846   13.3432 Du        3 SUP3    0.0000
     72 H32        0.8242   10.6619   13.0645 Du        3 SUP3    0.0000
     73 O10       -4.6726   13.4362   11.7244 O.3       2 RES2    0.0000
     74 H33       -4.8161   12.7386   11.2795 H         2 RES2    0.0000
     75 O11       -4.8606   11.5162   10.1873 O.2       2 RES2   -1.0000
     76 N3        -4.5260   15.8478    9.2397 N.3       2 RES2    0.0000
     77 N4        -4.4200   14.4760   10.8738 N.pl3     2 RES2    1.0000
     78 C30       -5.1090   14.7426    9.7568 C.2       2 RES2    0.0000
     79 C31       -3.4995   16.2806   10.0740 C.2       2 RES2    0.0000
     80 C32       -3.4216   15.4024   11.0914 C.2       2 RES2    0.0000
     81 C33       -2.6830   17.4953    9.7760 C.3       2 RES2    0.0000
     82 H34       -2.1813   17.3553    8.9454 H         2 RES2    0.0000
     83 H35       -2.0551   17.6560   10.5120 H         2 RES2    0.0000
     84 H36       -3.2736   18.2697    9.6744 H         2 RES2    0.0000
     85 C34       -2.5101   15.3077   12.2722 C.3       2 RES2    0.0000
     86 H37       -3.0305   15.4148   13.0961 H         2 RES2    0.0000
     87 H38       -1.8323   16.0142   12.2201 H         2 RES2    0.0000
     88 H39       -2.0692   14.4333   12.2764 H         2 RES2    0.0000
     89 C35       -5.0295   16.5832    8.0721 C.3       2 RES2    0.0000
     90 H40       -5.3770   15.9370    7.4076 H         2 RES2    0.0000
     91 H41       -4.2801   17.0769    7.6533 H         2 RES2    0.0000
     92 C36       -6.1311   17.5640    8.4305 C.ar      2 RES2    0.0000
     93 C37       -6.3103   18.0677    9.7184 C.ar      2 RES2    0.0000
     94 H42       -5.7478   17.7719   10.4241 H         2 RES2    0.0000
     95 C38       -7.2997   18.9888    9.9738 C.ar      2 RES2    0.0000
     96 H43       -7.4119   19.3284   10.8539 H         2 RES2    0.0000
     97 C39       -8.1286   19.4214    8.9618 C.ar      2 RES2    0.0000
     98 H44       -8.8001   20.0701    9.1390 H         2 RES2    0.0000
     99 C40       -7.9806   18.9074    7.6877 C.ar      2 RES2    0.0000
    100 H45       -8.5649   19.1882    6.9929 H         2 RES2    0.0000
    101 C41       -6.9881   17.9877    7.4227 C.ar      2 RES2    0.0000
    102 H46       -6.8899   17.6418    6.5439 H         2 RES2    0.0000
    103 C42       -6.2464   13.9684    9.1705 C.3       2 RES2    0.0000
    104 H47       -6.6437   14.5837    8.4895 H         2 RES2    0.0000
    105 C43       -7.3712   13.7341   10.1838 C.ar      2 RES2    0.0000
    106 C44       -8.1598   12.6037   10.1289 C.ar      2 RES2    0.0000
    107 H48       -7.9525   11.9177    9.5069 H         2 RES2    0.0000
    108 C45       -9.2567   12.4562   10.9733 C.ar      2 RES2    0.0000
    109 H49       -9.7973   11.6759   10.9198 H         2 RES2    0.0000
    110 C46       -9.5558   13.4476   11.8892 C.ar      2 RES2    0.0000
    111 H50      -10.3146   13.3604   12.4548 H         2 RES2    0.0000
    112 C47       -8.7518   14.5648   11.9798 C.ar      2 RES2    0.0000
    113 H51       -8.9435   15.2359   12.6237 H         2 RES2    0.0000
    114 C48       -7.6674   14.7068   11.1340 C.ar      2 RES2    0.0000
    115 H52       -7.1174   15.4777   11.2013 H         2 RES2    0.0000
    116 C49       -5.7790   12.7595    8.3701 C.2       2 RES2    0.0000
    117 C50       -5.1604   11.6753    8.9714 C.2       2 RES2    0.0000
    118 O12       -7.1875   13.3624    6.5068 O.2       2 RES2    0.0000
    119 O13       -6.1888   11.4030    6.3544 O.3       2 RES2    0.0000
    120 O14       -5.0514   10.4689    8.1970 O.3       2 RES2    0.0000
    121 C51       -6.4381   12.5618    7.0574 C.2       2 RES2    0.0000
    122 C52       -5.2991    9.2192    6.2103 C.3       2 RES2    0.0000
    123 H53       -6.1280    8.8433    6.5727 H         2 RES2    0.0000
    124 H54       -4.5465    8.6360    6.4437 H         2 RES2    0.0000
    125 H55       -5.3692    9.2862    5.2354 H         2 RES2    0.0000
    126 C53       -3.8049   11.2512    6.2652 C.3       2 RES2    0.0000
    127 H56       -3.8127   11.1923    5.2862 H         2 RES2    0.0000
    128 H57       -3.0274   10.7655    6.6139 H         2 RES2    0.0000
    129 H58       -3.7519   12.1920    6.5357 H         2 RES2    0.0000
    130 C54       -5.0638   10.6410    6.8144 C.3       2 RES2    0.0000
    131 O15       -5.8912   13.9924    6.3407 Du        3 SUP3    0.0000
    132 O16       -5.0436   11.9583    6.2597 Du        3 SUP3    0.0000
    133 O17       -4.5387   10.7472    8.2259 Du        3 SUP3    0.0000
    134 C55       -5.5640   13.0089    7.0176 Du        3 SUP3    0.0000
    135 C56       -4.0885    9.8186    6.1224 Du        3 SUP3    0.0000
    136 H59       -4.3720    9.6865    5.1942 Du        3 SUP3    0.0000
    137 H60       -4.0183    8.9489    6.5700 Du        3 SUP3    0.0000
    138 H61       -3.2159   10.2636    6.1375 Du        3 SUP3    0.0000
    139 C57       -6.4412   10.0889    6.9091 Du        3 SUP3    0.0000
    140 H62       -7.0146   10.7229    7.3911 Du        3 SUP3    0.0000
    141 H63       -6.4194    9.2375    7.3911 Du        3 SUP3    0.0000
    142 H64       -6.7980    9.9466    6.0071 Du        3 SUP3    0.0000
@<TRIPOS>BOND
     1    1    2 1
     2    3    5 1
     3    4    1 1
     4    5    4 2
     5    6    4 1
     6    7    3 1
     7    8    6 1
     8    9    8 1
     9   10    8 1
    10   11    8 1
    11   12    7 1
    12   13   12 1
    13   14   12 1
    14   15   12 1
    15   16    3 1
    16   17   16 1
    17   18   16 1
    18   19   16 1
    19   20   19 ar
    20   21   20 1
    21   22   20 ar
    22   23   22 1
    23   24   22 ar
    24   25   24 1
    25   26   24 ar
    26   27   26 1
    27   28   19 ar
    28   29   28 1
    29   30    5 1
    30   31   30 1
    31   32   30 1
    32   33   32 ar
    33   34   33 1
    34   35   33 ar
    35   36   35 1
    36   37   35 ar
    37   38   37 1
    38   39   37 ar
    39   40   39 1
    40   41   32 ar
    41   42   41 1
    42   43   30 1
    43   44   48 1
    44   45   48 1
    45   46   49 1
    46   47   49 2
    47   48   43 2
    48   49   43 1
    49   50   51 1
    50   52   50 1
    51   53   50 1
    52   54   55 1
    53   56   54 1
    54   57   54 1
    55   58   45 1
    56   73   74 1
    57   75  117 1
    58   76   78 1
    59   77   73 1
    60   78   77 2
    61   79   76 1
    62   80   77 1
    63   81   79 1
    64   82   81 1
    65   83   81 1
    66   84   81 1
    67   85   80 1
    68   86   85 1
    69   87   85 1
    70   88   85 1
    71   89   76 1
    72   90   89 1
    73   91   89 1
    74   92   89 1
    75   93   92 ar
    76   94   93 1
    77   95   93 ar
    78   96   95 1
    79   97   95 ar
    80   98   97 1
    81   99   97 ar
    82  100   99 1
    83  101   92 ar
    84  102  101 1
    85  103   78 1
    86  104  103 1
    87  105  103 1
    88  106  105 ar
    89  107  106 1
    90  108  106 ar
    91  109  108 1
    92  110  108 ar
    93  111  110 1
    94  112  110 ar
    95  113  112 1
    96  114  105 ar
    97  115  114 1
    98  116  103 1
    99  117  116 2
   100  118  121 2
   101  119  121 1
   102  120  117 1
   103  121  116 1
   104  122  123 1
   105  124  122 1
   106  125  122 1
   107  126  127 1
   108  128  126 1
   109  129  126 1
   110  130  119 1
   111    6    7 2
   112   26   28 ar
   113   39   41 ar
   114   46   58 1
   115   50   58 1
   116   54   58 1
   117   79   80 2
   118   99  101 ar
   119  112  114 ar
   120  120  130 1
   121  122  130 1
   122  126  130 1
@<TRIPOS>SUBSTRUCTURE
     1 RES1 1
     2 RES2 73
     3 SUP3 59

@<TRIPOS>CRYSIN
  15.5810   20.3200   13.7304  90.0000  90.0000  90.0000  14 1

