# MOL2 file generated by ConQuest
# Please check atom types

@<TRIPOS>MOLECULE
ODANOW
    47    49     1
SMALL
NO_CHARGES
****
Generated from CSD

@<TRIPOS>ATOM
      1 O1         8.5427    7.3141    2.9793 O.3       1 RES1    0.0000
      2 O2         5.9008    9.5300    6.1146 O.3       1 RES1    0.0000
      3 O3         4.4981    9.5963    2.3813 O.3       1 RES1    0.0000
      4 O4         4.3169    7.0728    5.7200 O.2       1 RES1    0.0000
      5 O5         8.6458    9.4849    7.2107 O.2       1 RES1    0.0000
      6 O6         5.9039    6.7892    9.5952 O.2       1 RES1    0.0000
      7 N1         5.7944    7.4970    7.3636 N.am      1 RES1    0.0000
      8 O7         6.1768    7.0364   -1.2254 O.3       1 RES1    0.0000
      9 C1         5.3635    8.3090    0.5387 C.ar      1 RES1    0.0000
     10 H1         4.6672    8.5746   -0.0181 H         1 RES1    0.0000
     11 C2         5.4197    8.7594    1.8494 C.ar      1 RES1    0.0000
     12 C3         6.4570    8.3438    2.7205 C.ar      1 RES1    0.0000
     13 N2         5.7960    9.5969    4.6889 N.2       1 RES1    0.0000
     14 C4         7.4836    7.5632    2.1560 C.ar      1 RES1    0.0000
     15 C5         6.3544    7.4579    0.0611 C.ar      1 RES1    0.0000
     16 N3         7.4366    8.2509    8.6997 N.am      1 RES1    0.0000
     17 C6         6.5997    8.3546    6.5210 C.3       1 RES1    0.0000
     18 C7         7.1736    7.7853    5.2107 C.3       1 RES1    0.0000
     19 H2         8.1255    8.0178    5.1725 H         1 RES1    0.0000
     20 C8         6.4435    8.6239    4.1614 C.2       1 RES1    0.0000
     21 C9         7.4425    7.0980    0.8436 C.ar      1 RES1    0.0000
     22 H3         8.1223    6.5634    0.5033 H         1 RES1    0.0000
     23 C10        6.2967    7.4311    8.6696 C.2       1 RES1    0.0000
     24 C11        4.5994    6.9204    6.8893 C.2       1 RES1    0.0000
     25 C12        7.7125    8.7962    7.5031 C.2       1 RES1    0.0000
     26 C13        7.0588    6.3340    5.0516 C.1       1 RES1    0.0000
     27 C14        9.4802    6.3045    2.5969 C.3       1 RES1    0.0000
     28 H4         9.0073    5.5178    2.3172 H         1 RES1    0.0000
     29 H5        10.0437    6.0913    3.3447 H         1 RES1    0.0000
     30 H6        10.0199    6.6276    1.8710 H         1 RES1    0.0000
     31 C15        3.7677    6.1392    7.8600 C.3       1 RES1    0.0000
     32 H7         2.9376    5.8958    7.4451 H         1 RES1    0.0000
     33 H8         3.5929    6.6761    8.6357 H         1 RES1    0.0000
     34 H9         4.2402    5.3455    8.1199 H         1 RES1    0.0000
     35 C16        3.4563   10.0755    1.5275 C.3       1 RES1    0.0000
     36 H10        3.8428   10.5206    0.7696 H         1 RES1    0.0000
     37 H11        2.9036   10.6929    2.0132 H         1 RES1    0.0000
     38 H12        2.9228    9.3362    1.2269 H         1 RES1    0.0000
     39 N4         7.0261    5.1984    4.9295 N.1       1 RES1    0.0000
     40 C17        7.1674    6.1677   -1.7843 C.3       1 RES1    0.0000
     41 H13        8.0088    6.6286   -1.8278 H         1 RES1    0.0000
     42 H14        6.9000    5.9042   -2.6685 H         1 RES1    0.0000
     43 H15        7.2585    5.3883   -1.2311 H         1 RES1    0.0000
     44 C18        8.2849    8.4126    9.8764 C.3       1 RES1    0.0000
     45 H16        9.2077    8.3772    9.6131 H         1 RES1    0.0000
     46 H17        8.1039    7.7077   10.5012 H         1 RES1    0.0000
     47 H18        8.1022    9.2608   10.2879 H         1 RES1    0.0000
@<TRIPOS>BOND
     1    1   14 1
     2    2   13 1
     3    3   11 1
     4    4   24 2
     5    5   25 2
     6    6   23 2
     7    7   17 1
     8    8   15 1
     9    9   10 1
    10   11    9 ar
    11   12   11 ar
    12   13   20 2
    13   14   12 ar
    14   15    9 ar
    15   16   23 1
    16   17    2 1
    17   18   17 1
    18   19   18 1
    19   20   12 1
    20   21   14 ar
    21   22   21 1
    22   23    7 1
    23   24    7 1
    24   25   16 1
    25   26   18 1
    26   27    1 1
    27   28   27 1
    28   29   27 1
    29   30   27 1
    30   31   24 1
    31   32   31 1
    32   33   31 1
    33   34   31 1
    34   35    3 1
    35   36   35 1
    36   37   35 1
    37   38   35 1
    38   39   26 3
    39   40    8 1
    40   41   40 1
    41   42   40 1
    42   43   40 1
    43   44   16 1
    44   45   44 1
    45   46   44 1
    46   47   44 1
    47   15   21 ar
    48   17   25 1
    49   18   20 1
@<TRIPOS>SUBSTRUCTURE
     1 RES1 1

@<TRIPOS>CRYSIN
  14.0662    9.3111   14.9528  90.0000 111.1870  90.0000 231 1

