# MOL2 file generated by ConQuest
# Please check atom types

@<TRIPOS>MOLECULE
ODAPIT
    61   102     1
SMALL
NO_CHARGES
****
Generated from CSD

@<TRIPOS>ATOM
      1 O1         5.9769    1.6086    4.4253 O.3       1 RES1    0.0000
      2 O2         3.8594    2.0128    4.4589 O.3       1 RES1    0.0000
      3 O3         1.3499    1.6848    8.4281 O.3       1 RES1    0.0000
      4 O4         2.3309    1.8443   10.3390 O.3       1 RES1    0.0000
      5 N1         8.5259    1.7334    7.3451 N.2       1 RES1    0.0000
      6 N2         7.3600    1.7334    6.6127 N.2       1 RES1    0.0000
      7 H1         7.4039    1.7334    5.7531 H         1 RES1    0.0000
      8 N3         4.9186    1.7881    5.0323 N.2       1 RES1    0.0000
      9 N4         2.3558    1.7334    9.1203 N.2       1 RES1    0.0000
     10 C1        14.4512    1.7334    6.2671 C.2       1 RES1    0.0000
     11 H2        14.2488    1.7334    5.3593 H         1 RES1    0.0000
     12 C2        15.7689    1.7334    6.6642 C.2       1 RES1    0.0000
     13 H3        16.4456    1.7334    6.0268 H         1 RES1    0.0000
     14 C3        16.0840    1.7334    7.9911 C.2       1 RES1    0.0000
     15 H4        16.9748    1.7334    8.2607 H         1 RES1    0.0000
     16 C4        15.0807    1.7334    8.9261 C.2       1 RES1    0.0000
     17 H5        15.2961    1.7334    9.8300 H         1 RES1    0.0000
     18 C5        13.7531    1.7334    8.5434 C.2       1 RES1    0.0000
     19 H6        13.0844    1.7334    9.1903 H         1 RES1    0.0000
     20 C6        13.4146    1.7334    7.1993 C.2       1 RES1    0.0000
     21 C7        12.0475    1.7334    6.6796 C.2       1 RES1    0.0000
     22 H7        11.9795    1.7334    5.7516 H         1 RES1    0.0000
     23 C8        10.8831    1.7334    7.3282 C.2       1 RES1    0.0000
     24 H8        10.8876    1.7334    8.2578 H         1 RES1    0.0000
     25 C9         9.6107    1.7334    6.6365 C.3       1 RES1    0.0000
     26 C10        9.6070    1.8512    5.1372 C.3       1 RES1    0.0000
     27 C11        9.6230    0.7065    4.3726 C.3       1 RES1    0.0000
     28 H9         9.6100   -0.1269    4.7855 H         1 RES1    0.0000
     29 C12        9.6583    0.7925    2.9878 C.3       1 RES1    0.0000
     30 H10        9.6620    0.0180    2.4725 H         1 RES1    0.0000
     31 C13        9.6887    2.0156    2.3847 C.3       1 RES1    0.0000
     32 H11        9.7288    2.0731    1.4580 H         1 RES1    0.0000
     33 C14        9.6620    0.3058    3.1400 C.3       1 RES1    0.0000
     34 H12        9.6750   -0.5263    2.7228 H         1 RES1    0.0000
     35 C15        9.6118    3.0799    4.5176 C.3       1 RES1    0.0000
     36 H13        9.5840   -0.3904    5.0270 H         1 RES1    0.0000
     37 C16        6.1482    1.7334    7.2135 C.2       1 RES1    0.0000
     38 C17        4.9368    1.7334    6.4796 C.3       1 RES1    0.0000
     39 C18        3.7040    1.7334    7.1048 C.2       1 RES1    0.0000
     40 H14        2.9211    1.7334    6.6036 H         1 RES1    0.0000
     41 C19        3.6518    1.7334    8.4623 C.2       1 RES1    0.0000
     42 C20        4.8139    1.7334    9.2287 C.2       1 RES1    0.0000
     43 H15        4.7595    1.7334   10.1565 H         1 RES1    0.0000
     44 C21        6.0338    1.7334    8.6176 C.2       1 RES1    0.0000
     45 H16        6.8040    1.7334    9.1376 H         1 RES1    0.0000
     46 O1F        5.9769    1.8582    4.4253 O.3       1 RES1    0.0000
     47 O2F        3.8594    1.4540    4.4589 O.3       1 RES1    0.0000
     48 O3F        1.3499    1.7819    8.4281 O.3       1 RES1    0.0000
     49 O4F        2.3309    1.6224   10.3390 O.3       1 RES1    0.0000
     50 N3F        4.9186    1.6786    5.0323 N.2       1 RES1    0.0000
     51 C10F       9.6070    1.6155    5.1372 C.3       1 RES1    0.0000
     52 C11F       9.6230    2.7602    4.3726 C.3       1 RES1    0.0000
     53 H9F        9.6100    3.5936    4.7855 H         1 RES1    0.0000
     54 C12F       9.6583    2.6743    2.9878 C.3       1 RES1    0.0000
     55 H10F       9.6620    3.4487    2.4725 H         1 RES1    0.0000
     56 C13F       9.6887    1.4512    2.3847 C.3       1 RES1    0.0000
     57 H11F       9.7288    1.3936    1.4580 H         1 RES1    0.0000
     58 C14F       9.6620    3.1610    3.1400 C.3       1 RES1    0.0000
     59 H12F       9.6750    3.9930    2.7228 H         1 RES1    0.0000
     60 C15F       9.6118    0.3869    4.5176 C.3       1 RES1    0.0000
     61 H13F       9.5840    3.8571    5.0270 H         1 RES1    0.0000
@<TRIPOS>BOND
     1    1    8 1
     2    2    8 1
     3    3    9 1
     4    4    9 1
     5    5    6 1
     6    6    7 1
     7    8   38 1
     8    9   41 1
     9   10   11 1
    10   12   10 1
    11   13   12 1
    12   14   12 1
    13   15   14 1
    14   16   14 1
    15   17   16 1
    16   18   16 1
    17   19   18 1
    18   20   10 1
    19   21   20 1
    20   22   21 1
    21   23   21 1
    22   24   23 1
    23   25    5 1
    24   26   25 1
    25   27   26 1
    26   28   27 1
    27   29   27 1
    28   30   29 1
    29   31   29 1
    30   32   31 1
    31   33   27 1
    32   34   30 1
    33   35   26 1
    34   36   27 1
    35   37    6 1
    36   38   37 1
    37   39   38 1
    38   40   39 1
    39   41   39 1
    40   42   41 1
    41   43   42 1
    42   44   37 1
    43   45   44 1
    44   46    1 1
    45   47    2 1
    46   48    3 1
    47   49    4 1
    48   50    1 1
    49   51   25 1
    50   52   26 1
    51   53   35 1
    52   54   31 1
    53   55   54 1
    54   56   29 1
    55   57   31 1
    56   58   31 1
    57   59   55 1
    58   60   26 1
    59   61   35 1
    60    2   50 1
    61    8   46 1
    62    8   47 1
    63    8   50 1
    64    9   48 1
    65    9   49 1
    66   18   20 1
    67   23   25 1
    68   26   51 1
    69   27   51 1
    70   27   60 1
    71   28   36 1
    72   28   60 1
    73   29   33 1
    74   29   60 1
    75   30   33 1
    76   31   56 1
    77   32   56 1
    78   32   57 1
    79   33   34 1
    80   33   56 1
    81   33   60 1
    82   35   51 1
    83   35   52 1
    84   35   54 1
    85   35   58 1
    86   36   60 1
    87   38   50 1
    88   42   44 1
    89   46   50 1
    90   47   50 1
    91   51   52 1
    92   51   60 1
    93   52   53 1
    94   52   54 1
    95   52   58 1
    96   52   61 1
    97   53   61 1
    98   54   56 1
    99   54   58 1
   100   55   58 1
   101   56   57 1
   102   58   59 1
@<TRIPOS>SUBSTRUCTURE
     1 RES1 1

@<TRIPOS>CRYSIN
  18.5700    6.9335   14.6389  90.0000  90.0000  90.0000  62 1

