# MOL2 file generated by ConQuest
# Please check atom types

@<TRIPOS>MOLECULE
ODAVEV
    21    21     1
SMALL
NO_CHARGES
****
Generated from CSD

@<TRIPOS>ATOM
      1 N1         1.2349    3.0999    0.9672 N.3       1 RES1    0.0000
      2 N2         2.2382    3.7696    0.4044 N.2       1 RES1    0.0000
      3 C1         1.9901    4.4345   -0.6780 C.2       1 RES1    0.0000
      4 C2         3.1289    5.1201   -1.2443 C.2       1 RES1    0.0000
      5 O1         3.0912    5.8396   -2.2333 O.2       1 RES1    0.0000
      6 C3         1.4323    2.4405    2.1809 C.ar      1 RES1    0.0000
      7 C4         2.6895    2.4020    2.7932 C.ar      1 RES1    0.0000
      8 C5         2.7899    1.7430    3.9989 C.ar      1 RES1    0.0000
      9 N3         4.1126    1.6995    4.6464 N.pl3     1 RES1    0.0000
     10 O2         5.0228    2.3541    4.1458 O.2       1 RES1    0.0000
     11 O3         4.2477    1.0121    5.6539 O.2       1 RES1    0.0000
     12 C6         1.7267    1.1157    4.6256 C.ar      1 RES1    0.0000
     13 C7         0.4917    1.1473    3.9822 C.ar      1 RES1    0.0000
     14 C8         0.3423    1.8061    2.7777 C.ar      1 RES1    0.0000
     15 H1         0.4355    3.1772    0.6014 H         1 RES1    0.0000
     16 H2         1.1257    4.4683   -1.0709 H         1 RES1    0.0000
     17 H3         3.9691    5.0041   -0.8168 H         1 RES1    0.0000
     18 H4         3.4456    2.8154    2.3929 H         1 RES1    0.0000
     19 H5         1.8355    0.6801    5.4632 H         1 RES1    0.0000
     20 H6        -0.2548    0.7118    4.3756 H         1 RES1    0.0000
     21 H7        -0.5070    1.8268    2.3531 H         1 RES1    0.0000
@<TRIPOS>BOND
     1    1    2 1
     2    2    3 2
     3    3    4 1
     4    4    5 2
     5    6    1 1
     6    7    6 ar
     7    8    7 ar
     8    9    8 1
     9   10    9 2
    10   11    9 2
    11   12    8 ar
    12   13   12 ar
    13   14    6 ar
    14   15    1 1
    15   16    3 1
    16   17    4 1
    17   18    7 1
    18   19   12 1
    19   20   13 1
    20   21   14 1
    21   13   14 ar
@<TRIPOS>SUBSTRUCTURE
     1 RES1 1

@<TRIPOS>CRYSIN
   7.4737   19.7711    6.0262  90.0000 107.0800  90.0000   9 1

