# MOL2 file generated by ConQuest
# Please check atom types

@<TRIPOS>MOLECULE
ODAWIA
    20    20     1
SMALL
NO_CHARGES
****
Generated from CSD

@<TRIPOS>ATOM
      1 C1         1.8926    2.9130    0.6809 C.ar      1 RES1    0.0000
      2 C2         2.9821    2.7916    1.7183 C.3       1 RES1    0.0000
      3 C3         2.7746    3.6743    2.9243 C.2       1 RES1    0.0000
      4 O1         1.6797    4.1034    3.2587 O.2       1 RES1    0.0000
      5 O2         3.8771    3.8971    3.5999 O.3       1 RES1    0.0000
      6 C4         1.8389    3.9016   -0.2990 C.ar      1 RES1    0.0000
      7 N1         2.8618    4.9495   -0.3511 N.pl3     1 RES1    0.0000
      8 O3         3.4020    5.2957    0.6988 O.2       1 RES1    0.0000
      9 O4         3.1312    5.4363   -1.4431 O.2       1 RES1    0.0000
     10 C5         0.8380    3.9697   -1.2656 C.ar      1 RES1    0.0000
     11 C6        -0.1648    3.0208   -1.2508 C.ar      1 RES1    0.0000
     12 C7        -0.1443    2.0168   -0.2958 C.ar      1 RES1    0.0000
     13 C8         0.8758    1.9591    0.6477 C.ar      1 RES1    0.0000
     14 H1         3.0347    1.8496    2.0171 H         1 RES1    0.0000
     15 H2         3.8492    3.0220    1.2992 H         1 RES1    0.0000
     16 H3         3.6925    4.3058    4.3104 H         1 RES1    0.0000
     17 H4         0.8452    4.6562   -1.9221 H         1 RES1    0.0000
     18 H5        -0.8645    3.0560   -1.8922 H         1 RES1    0.0000
     19 H6        -0.8327    1.3622   -0.2852 H         1 RES1    0.0000
     20 H7         0.8800    1.2536    1.2838 H         1 RES1    0.0000
@<TRIPOS>BOND
     1    1    2 1
     2    2    3 1
     3    3    4 2
     4    5    3 1
     5    6    1 ar
     6    7    6 1
     7    8    7 2
     8    9    7 2
     9   10    6 ar
    10   11   10 ar
    11   12   11 ar
    12   13    1 ar
    13   14    2 1
    14   15    2 1
    15   16    5 1
    16   17   10 1
    17   18   11 1
    18   19   12 1
    19   20   13 1
    20   12   13 ar
@<TRIPOS>SUBSTRUCTURE
     1 RES1 1

@<TRIPOS>CRYSIN
   9.3182    9.4466    9.9733  90.0000 114.7990  90.0000  14 1

