# MOL2 file generated by ConQuest
# Please check atom types

@<TRIPOS>MOLECULE
ODAWIA01
    19    19     1
SMALL
NO_CHARGES
****
Generated from CSD

@<TRIPOS>ATOM
      1 O1         5.7095    0.3506    5.3081 O.2       1 RES1    0.0000
      2 O2         4.1522    1.7899    5.9758 O.3       1 RES1    0.0000
      3 H1         3.7541    1.1025    6.1780 H         1 RES1    0.0000
      4 C1         7.6710    2.3267    5.1314 C.ar      1 RES1    0.0000
      5 N1         8.0895    1.7515    7.5278 N.pl3     1 RES1    0.0000
      6 C2         6.2186    2.6809    5.3212 C.3       1 RES1    0.0000
      7 H2         5.8993    3.5538    5.3023 H         1 RES1    0.0000
      8 C3         8.5403    1.9007    6.1377 C.ar      1 RES1    0.0000
      9 O3         6.9112    1.8037    7.7800 O.2       1 RES1    0.0000
     10 C4         9.8643    1.5849    5.8971 C.ar      1 RES1    0.0000
     11 H3        10.4123    1.3010    6.5922 H         1 RES1    0.0000
     12 C5         5.3436    1.4900    5.5432 C.2       1 RES1    0.0000
     13 C6         8.2213    2.4310    3.8699 C.ar      1 RES1    0.0000
     14 H4         7.6848    2.7222    3.1686 H         1 RES1    0.0000
     15 C7        10.3654    1.6936    4.6214 C.ar      1 RES1    0.0000
     16 H5        11.2533    1.4821    4.4467 H         1 RES1    0.0000
     17 C8         9.5461    2.1166    3.6147 C.ar      1 RES1    0.0000
     18 H6         9.8805    2.1941    2.7497 H         1 RES1    0.0000
     19 O4         8.9270    1.5835    8.3797 O.2       1 RES1    0.0000
@<TRIPOS>BOND
     1    1   12 2
     2    2    3 1
     3    4    6 1
     4    5    8 1
     5    6    7 1
     6    8    4 ar
     7    9    5 2
     8   10    8 ar
     9   11   10 1
    10   12    2 1
    11   13    4 ar
    12   14   13 1
    13   15   10 ar
    14   16   15 1
    15   17   13 ar
    16   18   17 1
    17   19    5 2
    18    6   12 1
    19   15   17 ar
@<TRIPOS>SUBSTRUCTURE
     1 RES1 1

@<TRIPOS>CRYSIN
   9.8022    7.2437   11.8817  90.0000  96.6710  90.0000 231 1

