# MOL2 file generated by ConQuest
# Please check atom types

@<TRIPOS>MOLECULE
ODEJEN
    48    40     2
SMALL
NO_CHARGES
****
Generated from CSD

@<TRIPOS>ATOM
      1 C1         6.4839    1.9860    9.4486 C.3       1 RES1    0.0000
      2 C2         6.3840    1.9792   11.0074 C.3       1 RES1    0.0000
      3 H1         5.4995    2.2532   11.2958 H         1 RES1    0.0000
      4 H2         6.5697    1.0962   11.3604 H         1 RES1    0.0000
      5 O1         7.3903    2.9348   11.4480 O.3       1 RES1    0.0000
      6 N1         7.6301    2.8502   12.8078 N.pl3     1 RES1    0.0000
      7 O2         6.7669    2.2175   13.4897 O.2       1 RES1    0.0000
      8 O3         8.4771    3.6128   13.1541 Du        2 SUP2    0.0000
      9 C3         6.4519    1.8588   10.9279 Du        2 SUP2    0.0000
     10 H3         5.5382    1.7754   11.2419 Du        2 SUP2    0.0000
     11 H4         6.9505    1.0772   11.2122 Du        2 SUP2    0.0000
     12 O4         7.0555    3.0707   11.4521 Du        2 SUP2    0.0000
     13 N2         7.2108    3.1553   12.8253 Du        2 SUP2    0.0000
     14 O5         7.2939    1.9708   13.3832 Du        2 SUP2    0.0000
     15 O6         7.8098    4.1192   13.1797 O.2       1 RES1    0.0000
     16 C4         7.8867    1.5300    9.0283 C.3       1 RES1    0.0000
     17 H5         8.5625    2.0400    9.5007 H         1 RES1    0.0000
     18 H6         8.0103    0.5898    9.2326 H         1 RES1    0.0000
     19 O7         7.9942    1.7528    7.6038 O.3       1 RES1    0.0000
     20 N3         9.2902    1.6414    7.1082 N.pl3     1 RES1    0.0000
     21 O8        10.1315    1.2364    7.8500 O.2       1 RES1    0.0000
     22 O9         9.3928    1.9720    5.9635 O.2       1 RES1    0.0000
     23 C5         5.4012    1.0725    8.8761 C.3       1 RES1    0.0000
     24 H7         4.5205    1.4418    9.0479 H         1 RES1    0.0000
     25 H8         5.5141    0.9711    7.9186 H         1 RES1    0.0000
     26 O10        5.5531   -0.2028    9.5405 O.3       1 RES1    0.0000
     27 N4         4.5168   -1.0911    9.2673 N.pl3     1 RES1    0.0000
     28 O11        3.7192   -0.7874    8.4283 O.2       1 RES1    0.0000
     29 O12        4.5738   -2.0745    9.9592 O.2       1 RES1    0.0000
     30 C6         6.2268    3.4002    8.9204 C.3       1 RES1    0.0000
     31 H9         6.9262    4.0013    9.2204 H         1 RES1    0.0000
     32 H10        6.2191    3.3983    7.9510 H         1 RES1    0.0000
     33 O13        4.9520    3.8340    9.4253 O.3       1 RES1    0.0000
     34 C7         4.6159    5.1075    9.1502 C.2       1 RES1    0.0000
     35 O14        5.3632    5.8577    8.5869 O.2       1 RES1    0.0000
     36 C8         3.2475    5.4278    9.6658 C.3       1 RES1    0.0000
     37 H11        3.2095    5.2143   10.6112 H         1 RES1    0.0000
     38 H12        2.6007    4.8663    9.2096 H         1 RES1    0.0000
     39 C9         2.8566    6.8842    9.4751 C.3       1 RES1    0.0000
     40 H13        2.0686    7.0671   10.0115 H         1 RES1    0.0000
     41 H14        3.5748    7.4449    9.8093 H         1 RES1    0.0000
     42 C10        2.5668    7.2724    8.0417 C.3       1 RES1    0.0000
     43 H15        2.5517    8.2408    7.9793 H         1 RES1    0.0000
     44 H16        3.2915    6.9539    7.4820 H         1 RES1    0.0000
     45 C11        1.2818    6.7397    7.5065 C.2       1 RES1    0.0000
     46 O15        0.4689    6.1316    8.1844 O.2       1 RES1    0.0000
     47 O16        1.0901    6.9976    6.2329 O.3       1 RES1    0.0000
     48 H17        0.4137    6.6132    5.9754 H         1 RES1    0.0000
@<TRIPOS>BOND
     1    1    2 1
     2    2    3 1
     3    4    2 1
     4    5    2 1
     5    6    5 1
     6    7    6 2
     7   15    6 2
     8   16    1 1
     9   17   16 1
    10   18   16 1
    11   19   16 1
    12   20   19 1
    13   21   20 2
    14   22   20 2
    15   23    1 1
    16   24   23 1
    17   25   23 1
    18   26   23 1
    19   27   26 1
    20   28   27 2
    21   29   27 2
    22   30    1 1
    23   31   30 1
    24   32   30 1
    25   33   30 1
    26   34   33 1
    27   35   34 2
    28   36   34 1
    29   37   36 1
    30   38   36 1
    31   39   36 1
    32   40   39 1
    33   41   39 1
    34   42   39 1
    35   43   42 1
    36   44   42 1
    37   45   42 1
    38   46   45 2
    39   47   45 1
    40   48   47 1
@<TRIPOS>SUBSTRUCTURE
     1 RES1 1
     2 SUP2 8

@<TRIPOS>CRYSIN
  10.3592   11.9156   13.4905  90.0000  92.6370  90.0000 231 1

