# MOL2 file generated by ConQuest
# Please check atom types

@<TRIPOS>MOLECULE
ODEVEY
    52    55     1
SMALL
NO_CHARGES
****
Generated from CSD

@<TRIPOS>ATOM
      1 O1         0.4675    0.6393   11.7528 O.3       1 RES1    0.0000
      2 O2        -1.2033    3.7442   12.0217 O.3       1 RES1    0.0000
      3 O3        -1.4882    0.3653   10.7292 O.2       1 RES1    0.0000
      4 O4         0.0293    2.5773   14.1992 O.3       1 RES1    0.0000
      5 O5        -1.2607    3.4906   15.7971 O.2       1 RES1    0.0000
      6 O6        -4.8435    0.7204   17.6119 O.2       1 RES1    0.0000
      7 O7        -5.0271   -1.3293   17.0706 O.2       1 RES1    0.0000
      8 O8         0.1224   -2.2628   13.7932 O.2       1 RES1    0.0000
      9 O9        -1.4901   -3.4297   14.5670 O.2       1 RES1    0.0000
     10 N1        -1.4097    3.3282   10.6563 N.3       1 RES1    0.0000
     11 N2        -4.4479   -0.2740   17.0567 N.pl3     1 RES1    0.0000
     12 N3        -0.9233   -2.3744   14.3917 N.pl3     1 RES1    0.0000
     13 C1        -0.5399    1.0553   10.9686 C.2       1 RES1    0.0000
     14 C2         0.9111    2.9528   11.3017 C.3       1 RES1    0.0000
     15 C3         1.5067    1.6540   11.8430 C.3       1 RES1    0.0000
     16 C4         0.2185    3.9472   12.2351 C.3       1 RES1    0.0000
     17 C5        -0.2621    2.4454   10.4481 C.3       1 RES1    0.0000
     18 C6         0.4472    3.9066   13.7255 C.3       1 RES1    0.0000
     19 C7         1.8736    4.2009   14.1176 C.3       1 RES1    0.0000
     20 C8        -1.2985    4.5154    9.7732 C.3       1 RES1    0.0000
     21 C9        -2.3386    5.5606   10.0300 C.ar      1 RES1    0.0000
     22 C10       -3.4511    5.6823    9.2336 C.ar      1 RES1    0.0000
     23 C11       -4.3747    6.6970    9.4297 C.ar      1 RES1    0.0000
     24 C12       -4.2030    7.5900   10.4620 C.ar      1 RES1    0.0000
     25 C13       -3.0997    7.4885   11.2514 C.ar      1 RES1    0.0000
     26 C14       -2.1690    6.4941   11.0432 C.ar      1 RES1    0.0000
     27 C15       -0.8969    2.5570   15.1569 C.2       1 RES1    0.0000
     28 C16       -1.4873    1.1771   15.3321 C.ar      1 RES1    0.0000
     29 C17       -2.6154    1.0756   16.1146 C.ar      1 RES1    0.0000
     30 C18       -3.2018   -0.1624   16.2638 C.ar      1 RES1    0.0000
     31 C19       -2.6848   -1.3191   15.7121 C.ar      1 RES1    0.0000
     32 C20       -1.5455   -1.1568   14.9660 C.ar      1 RES1    0.0000
     33 C21       -0.9406    0.0507   14.7387 C.ar      1 RES1    0.0000
     34 H1         2.2582    1.3861   11.3225 H         1 RES1    0.0000
     35 H2         1.7722    1.7585   12.7487 H         1 RES1    0.0000
     36 H3         1.5462    3.3901   10.7552 H         1 RES1    0.0000
     37 H4         0.4339    4.8117   11.9315 H         1 RES1    0.0000
     38 H5        -0.0218    2.4160    9.5286 H         1 RES1    0.0000
     39 H6        -0.1132    4.5530   14.1315 H         1 RES1    0.0000
     40 H7         2.1140    5.0603   13.8157 H         1 RES1    0.0000
     41 H8         1.9579    4.1491   15.0614 H         1 RES1    0.0000
     42 H9         2.4484    3.5484   13.7186 H         1 RES1    0.0000
     43 H10       -0.4422    4.8980    9.9016 H         1 RES1    0.0000
     44 H11       -1.3818    4.2181    8.8727 H         1 RES1    0.0000
     45 H12       -3.5904    5.0451    8.5344 H         1 RES1    0.0000
     46 H13       -5.1249    6.7640    8.8519 H         1 RES1    0.0000
     47 H14       -4.8461    8.2668   10.6199 H         1 RES1    0.0000
     48 H15       -2.9700    8.1034   11.9575 H         1 RES1    0.0000
     49 H16       -1.4011    6.4403   11.6001 H         1 RES1    0.0000
     50 H17       -2.9823    1.8366   16.5414 H         1 RES1    0.0000
     51 H18       -3.0916   -2.1765   15.8422 H         1 RES1    0.0000
     52 H19       -0.1678    0.1136   14.1905 H         1 RES1    0.0000
@<TRIPOS>BOND
     1    1   13 1
     2    2   10 1
     3    3   13 2
     4    4   18 1
     5    5   27 2
     6    6   11 2
     7    7   11 2
     8    8   12 2
     9    9   12 2
    10   10   17 1
    11   11   30 1
    12   12   32 1
    13   13   17 1
    14   14   15 1
    15   15    1 1
    16   16    2 1
    17   17   14 1
    18   18   16 1
    19   19   18 1
    20   20   10 1
    21   21   20 1
    22   22   21 ar
    23   23   22 ar
    24   24   23 ar
    25   25   24 ar
    26   26   21 ar
    27   27    4 1
    28   28   27 1
    29   29   28 ar
    30   30   29 ar
    31   31   30 ar
    32   32   31 ar
    33   33   28 ar
    34   34   15 1
    35   35   15 1
    36   36   14 1
    37   37   16 1
    38   38   17 1
    39   39   18 1
    40   40   19 1
    41   41   19 1
    42   42   19 1
    43   43   20 1
    44   44   20 1
    45   45   22 1
    46   46   23 1
    47   47   24 1
    48   48   25 1
    49   49   26 1
    50   50   29 1
    51   51   31 1
    52   52   33 1
    53   14   16 1
    54   25   26 ar
    55   32   33 ar
@<TRIPOS>SUBSTRUCTURE
     1 RES1 1

@<TRIPOS>CRYSIN
   5.8770   10.1470   17.4531  90.0000  96.2340  90.0000   4 1

