# MOL2 file generated by ConQuest
# Please check atom types

@<TRIPOS>MOLECULE
ODISEZ
    69    71     1
SMALL
NO_CHARGES
****
Generated from CSD

@<TRIPOS>ATOM
      1 N1         2.8154   -2.9229   -0.2018 N.pl3     1 RES1    0.0000
      2 O1         0.4907    2.1780    2.6133 O.3       1 RES1    0.0000
      3 O2         1.9086   -3.7221   -0.2497 O.2       1 RES1    0.0000
      4 O3         3.9495   -3.1543   -0.5690 O.2       1 RES1    0.0000
      5 O4         3.2483    5.1246    3.4411 O.3       1 RES1    0.0000
      6 H1         3.1462    5.8671    3.4434 H         1 RES1    0.0000
      7 C1         1.5961    2.3173    1.7057 C.3       1 RES1    0.0000
      8 H2         1.2875    2.8485    0.9293 H         1 RES1    0.0000
      9 C2         2.7355    3.0646    2.3522 C.3       1 RES1    0.0000
     10 H3         3.5141    3.1000    1.7422 H         1 RES1    0.0000
     11 C3         2.2555    4.4729    2.6760 C.3       1 RES1    0.0000
     12 H4         2.1366    4.9675    1.8266 H         1 RES1    0.0000
     13 C4         0.9392    4.3797    3.3590 C.2       1 RES1    0.0000
     14 H5         0.6352    5.1210    3.8504 H         1 RES1    0.0000
     15 C5         0.1805    3.3078    3.3066 C.2       1 RES1    0.0000
     16 H6        -0.6316    3.3219    3.7809 H         1 RES1    0.0000
     17 C6         1.9368    0.9456    1.2154 C.ar      1 RES1    0.0000
     18 C7         0.9739   -0.0413    1.2291 C.ar      1 RES1    0.0000
     19 H7         0.1214    0.1476    1.5780 H         1 RES1    0.0000
     20 C8         1.2448   -1.3033    0.7377 C.ar      1 RES1    0.0000
     21 H8         0.5784   -1.9667    0.7309 H         1 RES1    0.0000
     22 C9         2.4946   -1.5689    0.2622 C.ar      1 RES1    0.0000
     23 C10        3.4688   -0.6068    0.2155 C.ar      1 RES1    0.0000
     24 H9         4.3223   -0.8016   -0.1254 H         1 RES1    0.0000
     25 C11        3.1660    0.6481    0.6796 C.ar      1 RES1    0.0000
     26 H10        3.8176    1.3233    0.6294 H         1 RES1    0.0000
     27 O5         3.0788    2.3645    3.5540 O.3       1 RES1    0.0000
     28 O6         4.0349    3.2452    6.0008 O.3       1 RES1    0.0000
     29 O7         6.0962    1.4154    7.0680 O.3       1 RES1    0.0000
     30 O8         8.0917    0.9645    5.0237 O.3       1 RES1    0.0000
     31 O9         5.0007    1.2301    3.1800 O.3       1 RES1    0.0000
     32 O10        6.3906   -1.1663    2.8368 O.3       1 RES1    0.0000
     33 O11        2.9029    2.0694    7.5082 O.2       1 RES1    0.0000
     34 O12        6.4970    3.4412    7.9414 O.2       1 RES1    0.0000
     35 O13        8.1560   -0.8984    6.2768 O.2       1 RES1    0.0000
     36 O14        7.0770   -2.0423    0.9087 O.2       1 RES1    0.0000
     37 C12        4.4217    2.3256    3.8573 C.3       1 RES1    0.0000
     38 H11        4.8638    3.1720    3.5973 H         1 RES1    0.0000
     39 C13        4.5531    2.0859    5.3521 C.3       1 RES1    0.0000
     40 H12        4.0340    1.2856    5.6166 H         1 RES1    0.0000
     41 C14        6.0104    1.9089    5.7249 C.3       1 RES1    0.0000
     42 H13        6.4868    2.7730    5.6497 H         1 RES1    0.0000
     43 C15        6.6729    0.8736    4.8458 C.3       1 RES1    0.0000
     44 H14        6.3559   -0.0331    5.0875 H         1 RES1    0.0000
     45 C16        6.4026    1.1474    3.3818 C.3       1 RES1    0.0000
     46 H15        6.8080    2.0187    3.1424 H         1 RES1    0.0000
     47 C17        6.9336    0.0980    2.4491 C.3       1 RES1    0.0000
     48 H16        6.6742    0.3069    1.5279 H         1 RES1    0.0000
     49 H17        7.9117    0.0720    2.4970 H         1 RES1    0.0000
     50 C18        3.1664    3.1118    6.9882 C.2       1 RES1    0.0000
     51 C19        2.6008    4.4351    7.3748 C.3       1 RES1    0.0000
     52 H18        3.3224    5.0679    7.5127 H         1 RES1    0.0000
     53 H19        2.0924    4.3419    8.1957 H         1 RES1    0.0000
     54 H20        2.0190    4.7574    6.6690 H         1 RES1    0.0000
     55 C20        6.3380    2.2630    8.0851 C.2       1 RES1    0.0000
     56 C21        6.3446    1.5193    9.3610 C.3       1 RES1    0.0000
     57 H21        6.8516    0.6989    9.2549 H         1 RES1    0.0000
     58 H22        5.4332    1.3045    9.6152 H         1 RES1    0.0000
     59 H23        6.7523    2.0647   10.0519 H         1 RES1    0.0000
     60 C22        8.7186   -0.0012    5.7374 C.2       1 RES1    0.0000
     61 C23       10.1891    0.2432    5.7181 C.3       1 RES1    0.0000
     62 H24       10.3648    1.1711    5.9404 H         1 RES1    0.0000
     63 H25       10.5374    0.0508    4.8344 H         1 RES1    0.0000
     64 H26       10.6208   -0.3317    6.3691 H         1 RES1    0.0000
     65 C24        6.5665   -2.1698    1.9771 C.2       1 RES1    0.0000
     66 C25        6.0198   -3.4471    2.5301 C.3       1 RES1    0.0000
     67 H27        6.3313   -3.5651    3.4411 H         1 RES1    0.0000
     68 H28        6.3234   -4.1908    1.9862 H         1 RES1    0.0000
     69 H29        5.0504   -3.4152    2.5210 H         1 RES1    0.0000
@<TRIPOS>BOND
     1    1    3 2
     2    2    7 1
     3    4    1 2
     4    5    6 1
     5    7    8 1
     6    9    7 1
     7   10    9 1
     8   11    5 1
     9   12   11 1
    10   13   11 1
    11   14   13 1
    12   15    2 1
    13   16   15 1
    14   17    7 1
    15   18   17 ar
    16   19   18 1
    17   20   18 ar
    18   21   20 1
    19   22    1 1
    20   23   22 ar
    21   24   23 1
    22   25   17 ar
    23   26   25 1
    24   27    9 1
    25   28   39 1
    26   29   41 1
    27   30   43 1
    28   31   37 1
    29   32   47 1
    30   33   50 2
    31   34   55 2
    32   35   60 2
    33   36   65 2
    34   37   27 1
    35   38   37 1
    36   39   37 1
    37   40   39 1
    38   41   39 1
    39   42   41 1
    40   43   41 1
    41   44   43 1
    42   45   31 1
    43   46   45 1
    44   47   45 1
    45   48   47 1
    46   49   47 1
    47   50   28 1
    48   51   50 1
    49   52   51 1
    50   53   51 1
    51   54   51 1
    52   55   29 1
    53   56   55 1
    54   57   56 1
    55   58   56 1
    56   59   56 1
    57   60   30 1
    58   61   60 1
    59   62   61 1
    60   63   61 1
    61   64   61 1
    62   65   32 1
    63   66   65 1
    64   67   66 1
    65   68   66 1
    66   69   66 1
    67    9   11 1
    68   13   15 2
    69   20   22 ar
    70   23   25 ar
    71   43   45 1
@<TRIPOS>SUBSTRUCTURE
     1 RES1 1

@<TRIPOS>CRYSIN
  10.0292   11.8050   12.1720  90.0000 110.4900  90.0000   4 1

