# MOL2 file generated by ConQuest
# Please check atom types

@<TRIPOS>MOLECULE
ODOGIZ
    73    74     1
SMALL
NO_CHARGES
****
Generated from CSD

@<TRIPOS>ATOM
      1 O1        -0.1236    1.7823    2.3857 O.2       1 RES1    0.0000
      2 O2         1.1099   -0.1081    2.1787 O.3       1 RES1    0.0000
      3 O3         2.5006    3.0577    4.2211 O.2       1 RES1    0.0000
      4 O4         2.6157    5.1015    3.2567 O.3       1 RES1    0.0000
      5 O5         5.0851    3.9149   -0.2945 O.3       1 RES1    0.0000
      6 O6         5.6595    5.6293    1.0408 O.2       1 RES1    0.0000
      7 O7         6.9333    3.5948   -4.7830 O.2       1 RES1    0.0000
      8 O8         8.7673    4.6990   -5.1791 O.2       1 RES1    0.0000
      9 O9         9.3331    8.9060   -2.8417 O.2       1 RES1    0.0000
     10 O10        8.7742    8.9443   -0.7568 O.2       1 RES1    0.0000
     11 N1         2.0654    1.8532    1.7516 N.am      1 RES1    0.0000
     12 N2         7.7555    4.4672   -4.5248 N.pl3     1 RES1    0.0000
     13 N3         8.7649    8.4416   -1.8655 N.pl3     1 RES1    0.0000
     14 C1         3.3347    1.1202    1.5390 C.3       1 RES1    0.0000
     15 H1         3.0920    0.2366    1.1387 H         1 RES1    0.0000
     16 C2         4.1844    1.8549    0.4964 C.3       1 RES1    0.0000
     17 H2         5.0953    1.4675    0.4891 H         1 RES1    0.0000
     18 H3         3.7879    1.7185   -0.4010 H         1 RES1    0.0000
     19 C3         4.2765    3.3315    0.7758 C.3       1 RES1    0.0000
     20 H4         4.7165    3.4860    1.6606 H         1 RES1    0.0000
     21 C4         2.9024    3.9498    0.7672 C.3       1 RES1    0.0000
     22 H5         2.4774    3.8115   -0.1164 H         1 RES1    0.0000
     23 H6         2.9722    4.9248    0.9274 H         1 RES1    0.0000
     24 C5         2.0496    3.3060    1.8569 C.3       1 RES1    0.0000
     25 H7         1.1067    3.5981    1.6967 H         1 RES1    0.0000
     26 C6         4.0799    0.8209    2.8454 C.3       1 RES1    0.0000
     27 H8         4.5245    1.6476    3.1597 H         1 RES1    0.0000
     28 H9         3.4236    0.5497    3.5358 H         1 RES1    0.0000
     29 C7         5.1203   -0.2722    2.6968 C.3       1 RES1    0.0000
     30 H10        4.6877   -1.0822    2.3260 H         1 RES1    0.0000
     31 H11        5.8113    0.0241    2.0526 H         1 RES1    0.0000
     32 C8         5.7867   -0.6252    4.0029 C.3       1 RES1    0.0000
     33 H12        6.4469   -1.3334    3.8521 H         1 RES1    0.0000
     34 H13        5.1115   -0.9398    4.6395 H         1 RES1    0.0000
     35 H14        6.2337    0.1676    4.3661 H         1 RES1    0.0000
     36 C9         0.9196    1.2152    2.1391 C.2       1 RES1    0.0000
     37 C10        0.0404   -1.0302    2.5870 C.3       1 RES1    0.0000
     38 C11       -0.4246   -0.7034    3.9743 C.3       1 RES1    0.0000
     39 H15        0.3365   -0.7376    4.5909 H         1 RES1    0.0000
     40 H16       -1.1014   -1.3558    4.2543 H         1 RES1    0.0000
     41 H17       -0.8136    0.1958    3.9854 H         1 RES1    0.0000
     42 C12       -1.0736   -0.9961    1.6041 C.3       1 RES1    0.0000
     43 H18       -0.7281   -1.2048    0.7117 H         1 RES1    0.0000
     44 H19       -1.4771   -0.1028    1.5985 H         1 RES1    0.0000
     45 H20       -1.7513   -1.6580    1.8549 H         1 RES1    0.0000
     46 C13        0.7792   -2.3559    2.5835 C.3       1 RES1    0.0000
     47 H21        1.4992   -2.3309    3.2478 H         1 RES1    0.0000
     48 H22        1.1615   -2.5144    1.6945 H         1 RES1    0.0000
     49 H23        0.1552   -3.0783    2.8049 H         1 RES1    0.0000
     50 C14        2.4251    3.7742    3.2632 C.2       1 RES1    0.0000
     51 C15        3.1786    5.8016    4.4413 C.3       1 RES1    0.0000
     52 C16        4.5631    5.2507    4.7021 C.3       1 RES1    0.0000
     53 H24        5.1149    5.3605    3.8996 H         1 RES1    0.0000
     54 H25        4.4993    4.2995    4.9276 H         1 RES1    0.0000
     55 H26        4.9726    5.7368    5.4483 H         1 RES1    0.0000
     56 C17        3.2462    7.2377    3.9517 C.3       1 RES1    0.0000
     57 H27        2.3392    7.5733    3.7957 H         1 RES1    0.0000
     58 H28        3.7565    7.2741    3.1156 H         1 RES1    0.0000
     59 H29        3.6877    7.7931    4.6282 H         1 RES1    0.0000
     60 C18        2.2506    5.6734    5.6231 C.3       1 RES1    0.0000
     61 H30        1.3752    6.0487    5.3930 H         1 RES1    0.0000
     62 H31        2.6240    6.1605    6.3871 H         1 RES1    0.0000
     63 H32        2.1486    4.7267    5.8573 H         1 RES1    0.0000
     64 C19        5.7252    5.0464   -0.0141 C.2       1 RES1    0.0000
     65 C20        6.5633    5.5170   -1.1549 C.ar      1 RES1    0.0000
     66 C21        6.7012    4.7878   -2.3257 C.ar      1 RES1    0.0000
     67 H33        6.2296    3.9723   -2.4480 H         1 RES1    0.0000
     68 C22        7.5399    5.2719   -3.3127 C.ar      1 RES1    0.0000
     69 C23        8.2230    6.4639   -3.1920 C.ar      1 RES1    0.0000
     70 H34        8.7936    6.7808   -3.8826 H         1 RES1    0.0000
     71 C24        8.0423    7.1722   -2.0332 C.ar      1 RES1    0.0000
     72 C25        7.2403    6.7227   -1.0023 C.ar      1 RES1    0.0000
     73 H35        7.1525    7.2284   -0.2033 H         1 RES1    0.0000
@<TRIPOS>BOND
     1    1   36 2
     2    2   36 1
     3    3   50 2
     4    4   50 1
     5    5   19 1
     6    6   64 2
     7    7   12 2
     8    8   12 2
     9    9   13 2
    10   10   13 2
    11   11   14 1
    12   12   68 1
    13   13   71 1
    14   14   15 1
    15   16   14 1
    16   17   16 1
    17   18   16 1
    18   19   16 1
    19   20   19 1
    20   21   19 1
    21   22   21 1
    22   23   21 1
    23   24   11 1
    24   25   24 1
    25   26   14 1
    26   27   26 1
    27   28   26 1
    28   29   26 1
    29   30   29 1
    30   31   29 1
    31   32   29 1
    32   33   32 1
    33   34   32 1
    34   35   32 1
    35   36   11 1
    36   37    2 1
    37   38   37 1
    38   39   38 1
    39   40   38 1
    40   41   38 1
    41   42   37 1
    42   43   42 1
    43   44   42 1
    44   45   42 1
    45   46   37 1
    46   47   46 1
    47   48   46 1
    48   49   46 1
    49   50   24 1
    50   51    4 1
    51   52   51 1
    52   53   52 1
    53   54   52 1
    54   55   52 1
    55   56   51 1
    56   57   56 1
    57   58   56 1
    58   59   56 1
    59   60   51 1
    60   61   60 1
    61   62   60 1
    62   63   60 1
    63   64    5 1
    64   65   64 1
    65   66   65 ar
    66   67   66 1
    67   68   66 ar
    68   69   68 ar
    69   70   69 1
    70   71   69 ar
    71   72   65 ar
    72   73   72 1
    73   21   24 1
    74   71   72 ar
@<TRIPOS>SUBSTRUCTURE
     1 RES1 1

@<TRIPOS>CRYSIN
  10.4052   12.2560   12.4804  95.7630 110.5870 110.5280   2 1

