# MOL2 file generated by ConQuest
# Please check atom types

@<TRIPOS>MOLECULE
ODOHOF
    46    47     1
SMALL
NO_CHARGES
****
Generated from CSD

@<TRIPOS>ATOM
      1 O1         3.8208    3.6848   13.5162 O.2       1 RES1    0.0000
      2 O2         2.1255    2.3530   12.9826 O.3       1 RES1    0.0000
      3 O3         0.7698   -2.8360    8.1521 O.2       1 RES1    0.0000
      4 O4        -0.9218   -2.6422    9.4526 O.2       1 RES1    0.0000
      5 N1         0.1927   -2.3173    9.0909 N.pl3     1 RES1    0.0000
      6 C1         2.6918    3.3395   13.6784 C.2       1 RES1    0.0000
      7 C2         1.7291    3.8980   14.6420 C.2       1 RES1    0.0000
      8 C3         1.9647    4.8778   15.5153 C.2       1 RES1    0.0000
      9 C4         2.9503    1.7656   11.9600 C.3       1 RES1    0.0000
     10 C5         2.1542    0.7325   11.2115 C.ar      1 RES1    0.0000
     11 C6         2.6908    0.2284   10.0420 C.ar      1 RES1    0.0000
     12 C7         2.0552   -0.7649    9.3341 C.ar      1 RES1    0.0000
     13 C8         0.8674   -1.2433    9.8175 C.ar      1 RES1    0.0000
     14 C9         0.2906   -0.7592   10.9683 C.ar      1 RES1    0.0000
     15 C10        0.9520    0.2342   11.6637 C.ar      1 RES1    0.0000
     16 H1         0.8781    3.4894   14.6265 H         1 RES1    0.0000
     17 H2         1.2308    5.2026   16.0922 H         1 RES1    0.0000
     18 H3         3.7651    1.3203   12.4122 H         1 RES1    0.0000
     19 H4         3.1953    2.4625   11.3519 H         1 RES1    0.0000
     20 H5         3.5129    0.5768    9.7146 H         1 RES1    0.0000
     21 H6         2.4270   -1.1181    8.5357 H         1 RES1    0.0000
     22 H7        -0.5471   -1.0955   11.2646 H         1 RES1    0.0000
     23 H8         0.5726    0.5795   12.4621 H         1 RES1    0.0000
     24 O1B        1.3407    6.7938   17.6703 O.2       1 RES1    0.0000
     25 O2B        3.0359    8.1256   18.2039 O.3       1 RES1    0.0000
     26 O3B        4.3916   13.3146   23.0343 O.2       1 RES1    0.0000
     27 O4B        6.0833   13.1208   21.7339 O.2       1 RES1    0.0000
     28 N1B        4.9688   12.7959   22.0956 N.pl3     1 RES1    0.0000
     29 C1B        2.4697    7.1391   17.5081 C.2       1 RES1    0.0000
     30 C2B        3.4324    6.5806   16.5444 C.2       1 RES1    0.0000
     31 C3B        3.1968    5.6008   15.6712 C.2       1 RES1    0.0000
     32 C4B        2.2112    8.7130   19.2265 C.3       1 RES1    0.0000
     33 C5B        3.0073    9.7461   19.9749 C.ar      1 RES1    0.0000
     34 C6B        2.4707   10.2502   21.1444 C.ar      1 RES1    0.0000
     35 C7B        3.1063   11.2435   21.8524 C.ar      1 RES1    0.0000
     36 C8B        4.2941   11.7219   21.3690 C.ar      1 RES1    0.0000
     37 C9B        4.8709   11.2378   20.2182 C.ar      1 RES1    0.0000
     38 C10B       4.2095   10.2444   19.5227 C.ar      1 RES1    0.0000
     39 H1B        4.2834    6.9892   16.5600 H         1 RES1    0.0000
     40 H2B        3.9306    5.2760   15.0943 H         1 RES1    0.0000
     41 H3B        1.3964    9.1583   18.7743 H         1 RES1    0.0000
     42 H4B        1.9662    8.0161   19.8346 H         1 RES1    0.0000
     43 H5B        1.6485    9.9018   21.4719 H         1 RES1    0.0000
     44 H6B        2.7345   11.5967   22.6507 H         1 RES1    0.0000
     45 H7B        5.7086   11.5741   19.9219 H         1 RES1    0.0000
     46 H8B        4.5888    9.8991   18.7244 H         1 RES1    0.0000
@<TRIPOS>BOND
     1    1    6 2
     2    2    6 1
     3    3    5 2
     4    4    5 2
     5    5   13 1
     6    6    7 1
     7    7    8 2
     8    8   17 1
     9    9    2 1
    10   10    9 1
    11   11   10 ar
    12   12   11 ar
    13   13   12 ar
    14   14   13 ar
    15   15   10 ar
    16   16    7 1
    17   18    9 1
    18   19    9 1
    19   20   11 1
    20   21   12 1
    21   22   14 1
    22   23   15 1
    23   24   29 2
    24   25   29 1
    25   26   28 2
    26   27   28 2
    27   28   36 1
    28   29   30 1
    29   30   31 2
    30   31    8 1
    31   32   25 1
    32   33   32 1
    33   34   33 ar
    34   35   34 ar
    35   36   35 ar
    36   37   36 ar
    37   38   33 ar
    38   39   30 1
    39   40   31 1
    40   41   32 1
    41   42   32 1
    42   43   34 1
    43   44   35 1
    44   45   37 1
    45   46   38 1
    46   14   15 ar
    47   37   38 ar
@<TRIPOS>SUBSTRUCTURE
     1 RES1 1

@<TRIPOS>CRYSIN
   5.7995    5.2393   31.1930  90.0000  91.1720  90.0000  14 1

