# MOL2 file generated by ConQuest
# Please check atom types

@<TRIPOS>MOLECULE
ODOVOS
    48    50     1
SMALL
NO_CHARGES
****
Generated from CSD

@<TRIPOS>ATOM
      1 O1         1.7252   10.2814    2.7713 O.2       1 RES1    0.0000
      2 N1         1.1905   11.1365    3.5398 N.3       1 RES1    0.0000
      3 C1         1.2787   12.5880    3.2821 C.3       1 RES1    0.0000
      4 C2         0.5031   10.7384    4.7966 C.3       1 RES1    0.0000
      5 C3         0.0823   12.0975    5.2951 C.ar      1 RES1    0.0000
      6 C4         0.5203   13.1080    4.4684 C.ar      1 RES1    0.0000
      7 C5        -0.6369   12.3669    6.4466 C.ar      1 RES1    0.0000
      8 C6         0.5375   12.9070    1.9346 C.3       1 RES1    0.0000
      9 C7         2.7524   13.0209    3.2933 C.3       1 RES1    0.0000
     10 C8        -0.7725    9.8444    4.4090 C.3       1 RES1    0.0000
     11 C9         1.5452   10.0951    5.7398 C.3       1 RES1    0.0000
     12 H1        -0.8168   11.5774    7.1916 H         1 RES1    0.0000
     13 H2        -0.3607   13.2568    2.1082 H         1 RES1    0.0000
     14 H3         0.9972   13.5383    1.4126 H         1 RES1    0.0000
     15 H4         0.4041   12.1042    1.4069 H         1 RES1    0.0000
     16 H5         3.0670   13.1027    4.1996 H         1 RES1    0.0000
     17 H6         3.3023   12.3749    2.8497 H         1 RES1    0.0000
     18 H7         2.8656   13.8626    2.8621 H         1 RES1    0.0000
     19 H8        -1.2216    9.5482    5.2077 H         1 RES1    0.0000
     20 H9        -1.3706   10.3283    3.8758 H         1 RES1    0.0000
     21 H10       -0.4892    9.0523    3.9330 H         1 RES1    0.0000
     22 H11        1.2630   10.2090    6.6561 H         1 RES1    0.0000
     23 H12        1.5915    9.1461    5.5751 H         1 RES1    0.0000
     24 H13        2.3920   10.4744    5.6256 H         1 RES1    0.0000
     25 C4B       -0.9129   13.6978    6.7334 C.ar      1 RES1    0.0000
     26 C1B       -1.6712   14.2178    7.9197 C.3       1 RES1    0.0000
     27 N1B       -1.5830   15.6693    7.6620 N.3       1 RES1    0.0000
     28 O1B       -2.1178   16.5244    8.4305 O.2       1 RES1    0.0000
     29 C2B       -0.8957   16.0674    6.4052 C.3       1 RES1    0.0000
     30 C3B       -0.4748   14.7083    5.9067 C.ar      1 RES1    0.0000
     31 C5B        0.2443   14.4389    4.7552 C.ar      1 RES1    0.0000
     32 H1B        0.4243   15.2284    4.0103 H         1 RES1    0.0000
     33 C8B        0.3800   16.9614    6.7928 C.3       1 RES1    0.0000
     34 H8B        0.8290   17.2576    5.9941 H         1 RES1    0.0000
     35 H9B        0.9780   16.4775    7.3260 H         1 RES1    0.0000
     36 H10B       0.0967   17.7535    7.2689 H         1 RES1    0.0000
     37 C9B       -1.9378   16.7107    5.4620 C.3       1 RES1    0.0000
     38 H11B      -1.6555   16.5968    4.5457 H         1 RES1    0.0000
     39 H12B      -1.9841   17.6597    5.6267 H         1 RES1    0.0000
     40 H13B      -2.7846   16.3314    5.5763 H         1 RES1    0.0000
     41 C6B       -0.9301   13.8988    9.2673 C.3       1 RES1    0.0000
     42 H2B       -0.0318   13.5490    9.0936 H         1 RES1    0.0000
     43 H3B       -1.3897   13.2675    9.7893 H         1 RES1    0.0000
     44 H4B       -0.7966   14.7016    9.7949 H         1 RES1    0.0000
     45 C7B       -3.1449   13.7849    7.9085 C.3       1 RES1    0.0000
     46 H5B       -3.4595   13.7031    7.0023 H         1 RES1    0.0000
     47 H6B       -3.6949   14.4309    8.3521 H         1 RES1    0.0000
     48 H7B       -3.2582   12.9432    8.3398 H         1 RES1    0.0000
@<TRIPOS>BOND
     1    1    2 1
     2    2    3 1
     3    3    6 1
     4    4    2 1
     5    5    4 1
     6    6    5 ar
     7    7    5 ar
     8    8    3 1
     9    9    3 1
    10   10    4 1
    11   11    4 1
    12   12    7 1
    13   13    8 1
    14   14    8 1
    15   15    8 1
    16   16    9 1
    17   17    9 1
    18   18    9 1
    19   19   10 1
    20   20   10 1
    21   21   10 1
    22   22   11 1
    23   23   11 1
    24   24   11 1
    25   25    7 ar
    26   26   25 1
    27   27   26 1
    28   28   27 1
    29   29   27 1
    30   30   25 ar
    31   31    6 ar
    32   32   31 1
    33   33   29 1
    34   34   33 1
    35   35   33 1
    36   36   33 1
    37   37   29 1
    38   38   37 1
    39   39   37 1
    40   40   37 1
    41   41   26 1
    42   42   41 1
    43   43   41 1
    44   44   41 1
    45   45   26 1
    46   46   45 1
    47   47   45 1
    48   48   45 1
    49   29   30 1
    50   30   31 ar
@<TRIPOS>SUBSTRUCTURE
     1 RES1 1

@<TRIPOS>CRYSIN
   6.3320   13.4029   11.2087  90.0000  92.0070  90.0000 231 1

