# MOL2 file generated by ConQuest
# Please check atom types

@<TRIPOS>MOLECULE
ODOVIM
    65    69     1
SMALL
NO_CHARGES
****
Generated from CSD

@<TRIPOS>ATOM
      1 O1         1.8034    4.2673    2.1659 O.2       1 RES1    0.0000
      2 N1         2.4479    3.3337    1.5805 N.2       1 RES1    0.0000
      3 C1         3.6535    3.6175    0.7481 C.3       1 RES1    0.0000
      4 C2         1.9421    1.9445    1.5469 C.3       1 RES1    0.0000
      5 C3         3.1364   -0.0356    0.3714 C.2       1 RES1    0.0000
      6 C4         4.1996   -0.4477   -0.4245 C.2       1 RES1    0.0000
      7 C5         5.1517    0.4801   -0.9037 C.2       1 RES1    0.0000
      8 C6         5.0180    1.8039   -0.5294 C.2       1 RES1    0.0000
      9 C7         3.9524    2.2064    0.2659 C.2       1 RES1    0.0000
     10 C8         3.0204    1.3028    0.7057 C.2       1 RES1    0.0000
     11 C9         3.2777    4.5679   -0.3802 C.3       1 RES1    0.0000
     12 C10        4.7557    4.1752    1.6159 C.3       1 RES1    0.0000
     13 C11        1.8425    1.3772    2.9452 C.3       1 RES1    0.0000
     14 C12        0.5877    1.9445    0.8566 C.3       1 RES1    0.0000
     15 C13        6.3056   -0.0000   -1.7568 C.3       1 RES1    0.0000
     16 C14        6.4986    0.6530   -2.9570 C.3       1 RES1    0.0000
     17 H1         2.4769   -0.6676    0.6609 H         1 RES1    0.0000
     18 H2         4.2954   -1.3772   -0.6662 H         1 RES1    0.0000
     19 H3         5.6587    2.4569   -0.8324 H         1 RES1    0.0000
     20 H4         2.9990    5.4004   -0.0360 H         1 RES1    0.0000
     21 H5         4.0571    4.7134   -0.9391 H         1 RES1    0.0000
     22 H6         2.5954    4.1929   -0.9208 H         1 RES1    0.0000
     23 H7         4.5602    4.0394    2.5379 H         1 RES1    0.0000
     24 H8         5.5843    3.6983    1.4237 H         1 RES1    0.0000
     25 H9         4.8970    5.0884    1.4461 H         1 RES1    0.0000
     26 H10        1.9484    2.0706    3.5837 H         1 RES1    0.0000
     27 H11        0.9988    0.9601    3.0584 H         1 RES1    0.0000
     28 H12        2.5336    0.7274    3.0690 H         1 RES1    0.0000
     29 H13       -0.1110    1.9413    1.5098 H         1 RES1    0.0000
     30 H14        0.4855    2.7026    0.2965 H         1 RES1    0.0000
     31 H15        0.4969    1.1509    0.3207 H         1 RES1    0.0000
     32 H16        6.9123    1.4790   -2.7837 H         1 RES1    0.0000
     33 H17        7.1821   -0.0598   -3.4976 H         1 RES1    0.0000
     34 C5A        7.4596   -0.4801   -0.9037 C.2       1 RES1    0.0000
     35 C4A        8.4117    0.4477   -0.4245 C.2       1 RES1    0.0000
     36 C3A        9.4749    0.0356    0.3714 C.2       1 RES1    0.0000
     37 C8A        9.5909   -1.3028    0.7057 C.2       1 RES1    0.0000
     38 C2A       10.6692   -1.9445    1.5469 C.3       1 RES1    0.0000
     39 N1A       10.1634   -3.3337    1.5805 N.2       1 RES1    0.0000
     40 O1A       10.8079   -4.2673    2.1659 O.2       1 RES1    0.0000
     41 C1A        8.9578   -3.6175    0.7481 C.3       1 RES1    0.0000
     42 C7A        8.6589   -2.2064    0.2659 C.2       1 RES1    0.0000
     43 C6A        7.5933   -1.8039   -0.5294 C.2       1 RES1    0.0000
     44 H3A        6.9526   -2.4569   -0.8324 H         1 RES1    0.0000
     45 C9A        9.3336   -4.5679   -0.3802 C.3       1 RES1    0.0000
     46 H4A        9.6123   -5.4004   -0.0360 H         1 RES1    0.0000
     47 H5A        8.5542   -4.7134   -0.9391 H         1 RES1    0.0000
     48 H6A       10.0159   -4.1929   -0.9208 H         1 RES1    0.0000
     49 C10A       7.8556   -4.1752    1.6159 C.3       1 RES1    0.0000
     50 H7A        8.0511   -4.0394    2.5379 H         1 RES1    0.0000
     51 H8A        7.0270   -3.6983    1.4237 H         1 RES1    0.0000
     52 H9A        7.7143   -5.0884    1.4461 H         1 RES1    0.0000
     53 C11A      10.7688   -1.3772    2.9452 C.3       1 RES1    0.0000
     54 H10A      10.6629   -2.0706    3.5837 H         1 RES1    0.0000
     55 H11A      11.6125   -0.9601    3.0584 H         1 RES1    0.0000
     56 H12A      10.0777   -0.7274    3.0690 H         1 RES1    0.0000
     57 C12A      12.0236   -1.9445    0.8566 C.3       1 RES1    0.0000
     58 H13A      12.7223   -1.9413    1.5098 H         1 RES1    0.0000
     59 H14A      12.1258   -2.7026    0.2965 H         1 RES1    0.0000
     60 H15A      12.1144   -1.1509    0.3207 H         1 RES1    0.0000
     61 H1A       10.1344    0.6676    0.6609 H         1 RES1    0.0000
     62 H2A        8.3159    1.3772   -0.6662 H         1 RES1    0.0000
     63 C14A       6.1127   -0.6530   -2.9570 C.3       1 RES1    0.0000
     64 H16A       5.6990   -1.4790   -2.7837 H         1 RES1    0.0000
     65 H17A       5.4292    0.0598   -3.4976 H         1 RES1    0.0000
@<TRIPOS>BOND
     1    1    2 1
     2    2    3 1
     3    3    9 1
     4    4    2 1
     5    5    6 1
     6    6    7 1
     7    7    8 1
     8    8    9 1
     9    9   10 1
    10   10    4 1
    11   11    3 1
    12   12    3 1
    13   13    4 1
    14   14    4 1
    15   15    7 1
    16   16   15 1
    17   17    5 1
    18   18    6 1
    19   19    8 1
    20   20   11 1
    21   21   11 1
    22   22   11 1
    23   23   12 1
    24   24   12 1
    25   25   12 1
    26   26   13 1
    27   27   13 1
    28   28   13 1
    29   29   14 1
    30   30   14 1
    31   31   14 1
    32   32   16 1
    33   33   16 1
    34   34   15 1
    35   35   34 1
    36   36   35 1
    37   37   36 1
    38   38   37 1
    39   39   38 1
    40   40   39 1
    41   41   39 1
    42   42   37 1
    43   43   34 1
    44   44   43 1
    45   45   41 1
    46   46   45 1
    47   47   45 1
    48   48   45 1
    49   49   41 1
    50   50   49 1
    51   51   49 1
    52   52   49 1
    53   53   38 1
    54   54   53 1
    55   55   53 1
    56   56   53 1
    57   57   38 1
    58   58   57 1
    59   59   57 1
    60   60   57 1
    61   61   36 1
    62   62   35 1
    63   63   15 1
    64   64   63 1
    65   65   63 1
    66    5   10 1
    67   16   63 1
    68   41   42 1
    69   42   43 1
@<TRIPOS>SUBSTRUCTURE
     1 RES1 1

@<TRIPOS>CRYSIN
  12.6113   16.1640    5.8952  90.0000  90.0000  90.0000  34 1

