# MOL2 file generated by ConQuest
# Please check atom types

@<TRIPOS>MOLECULE
ODOWOW
    45    49     1
SMALL
NO_CHARGES
****
Generated from CSD

@<TRIPOS>ATOM
      1 O1         2.5079    3.2464   12.1301 O.3       1 RES1    0.0000
      2 C1         3.8603    5.1166   11.7743 C.ar      1 RES1    0.0000
      3 C2         3.6487    2.0088    9.2450 C.ar      1 RES1    0.0000
      4 C3         5.1127    7.1266   11.5334 C.ar      1 RES1    0.0000
      5 O2         7.0311    7.5073   12.7487 O.2       1 RES1    0.0000
      6 C4         2.4245    2.0326    8.5703 C.ar      1 RES1    0.0000
      7 C5         2.9535    5.5790   10.8354 C.ar      1 RES1    0.0000
      8 H1         2.2104    5.0704   10.6041 H         1 RES1    0.0000
      9 O3         4.5155    3.2690   13.1087 O.2       1 RES1    0.0000
     10 C6         2.1292    0.6122   10.3796 C.3       1 RES1    0.0000
     11 C7         3.1720    6.8102   10.2482 C.ar      1 RES1    0.0000
     12 N1         6.2656    7.9543   11.9275 N.pl3     1 RES1    0.0000
     13 C8         2.5547   -0.3792    8.3240 C.2       1 RES1    0.0000
     14 H2         2.3211   -0.9397    7.6191 H         1 RES1    0.0000
     15 C9         4.2599    4.0539    8.1980 C.ar      1 RES1    0.0000
     16 H3         4.8830    4.7320    8.0694 H         1 RES1    0.0000
     17 C10        4.9689    5.8951   12.1150 C.ar      1 RES1    0.0000
     18 H4         5.5976    5.5834   12.7254 H         1 RES1    0.0000
     19 O4         1.2000    6.6473    9.0575 O.2       1 RES1    0.0000
     20 O5         6.3901    9.0405   11.4061 O.2       1 RES1    0.0000
     21 C11        3.6854   -0.4151    8.9836 C.2       1 RES1    0.0000
     22 H5         4.3869   -1.0078    8.8358 H         1 RES1    0.0000
     23 C12        3.6835    3.7855   12.4244 C.2       1 RES1    0.0000
     24 C13        3.6500    0.7017   10.0512 C.3       1 RES1    0.0000
     25 H6         4.2793    0.6330   10.7998 H         1 RES1    0.0000
     26 C14        1.4283    1.2479   11.5265 C.3       1 RES1    0.0000
     27 H7         0.5547    1.6444   11.3253 H         1 RES1    0.0000
     28 C15        1.6778    0.7384    8.9056 C.3       1 RES1    0.0000
     29 H8         0.7163    0.7060    8.7195 H         1 RES1    0.0000
     30 C16        1.5112   -0.2651   11.4047 C.3       1 RES1    0.0000
     31 H9         2.1017   -0.7356   12.0138 H         1 RES1    0.0000
     32 H10        0.7038   -0.7448   11.1638 H         1 RES1    0.0000
     33 C17        4.2331    7.6154   10.5794 C.ar      1 RES1    0.0000
     34 H11        4.3565    8.4485   10.1839 H         1 RES1    0.0000
     35 C18        3.0543    4.0921    7.5178 C.ar      1 RES1    0.0000
     36 H12        2.8662    4.7956    6.9403 H         1 RES1    0.0000
     37 C19        2.1264    3.0724    7.7040 C.ar      1 RES1    0.0000
     38 H13        1.3141    3.0885    7.2510 H         1 RES1    0.0000
     39 C20        2.1970    1.9031   12.6119 C.3       1 RES1    0.0000
     40 H14        1.6698    1.9466   13.4248 H         1 RES1    0.0000
     41 H15        3.0124    1.4115   12.7952 H         1 RES1    0.0000
     42 N2         2.2088    7.2880    9.2574 N.pl3     1 RES1    0.0000
     43 O6         2.4858    8.3160    8.6634 O.2       1 RES1    0.0000
     44 C21        4.5480    3.0077    9.0726 C.ar      1 RES1    0.0000
     45 H16        5.3536    2.9956    9.5366 H         1 RES1    0.0000
@<TRIPOS>BOND
     1    1   23 1
     2    2    7 ar
     3    3    6 ar
     4    4   12 1
     5    5   12 2
     6    6   28 1
     7    7    8 1
     8    9   23 2
     9   10   24 1
    10   11    7 ar
    11   12   20 2
    12   13   14 1
    13   15   16 1
    14   17    2 ar
    15   18   17 1
    16   19   42 2
    17   21   13 2
    18   22   21 1
    19   23    2 1
    20   24    3 1
    21   25   24 1
    22   26   10 1
    23   27   26 1
    24   28   10 1
    25   29   28 1
    26   30   10 1
    27   31   30 1
    28   32   30 1
    29   33    4 ar
    30   34   33 1
    31   35   15 ar
    32   36   35 1
    33   37    6 ar
    34   38   37 1
    35   39    1 1
    36   40   39 1
    37   41   39 1
    38   42   11 1
    39   43   42 2
    40   44    3 ar
    41   45   44 1
    42    4   17 ar
    43   11   33 ar
    44   13   28 1
    45   15   44 ar
    46   21   24 1
    47   26   30 1
    48   26   39 1
    49   35   37 ar
@<TRIPOS>SUBSTRUCTURE
     1 RES1 1

@<TRIPOS>CRYSIN
   5.9026   11.4783   13.7222  86.6060  87.1130  81.0050   2 1

