# MOL2 file generated by ConQuest
# Please check atom types

@<TRIPOS>MOLECULE
ODULEE
   163   153     2
SMALL
NO_CHARGES
****
Generated from CSD

@<TRIPOS>ATOM
      1 C1         5.9631   -2.0846    2.3950 C.ar      1 RES1    0.0000
      2 C2         5.0607   -1.2461    1.7700 C.ar      1 RES1    0.0000
      3 H1         4.1499   -1.4286    1.7989 H         1 RES1    0.0000
      4 C3         5.5304   -0.1300    1.0979 C.ar      1 RES1    0.0000
      5 H2         4.9357    0.4309    0.6539 H         1 RES1    0.0000
      6 C4         6.8712    0.1475    1.0919 C.ar      1 RES1    0.0000
      7 H3         7.1745    0.9006    0.6395 H         1 RES1    0.0000
      8 C5         7.7869   -0.6619    1.7398 C.ar      1 RES1    0.0000
      9 H4         8.6934   -0.4542    1.7410 H         1 RES1    0.0000
     10 C6         7.3105   -1.7935    2.3865 C.ar      1 RES1    0.0000
     11 C7         8.0349   -2.8804    3.0574 C.ar      1 RES1    0.0000
     12 C8         9.3814   -3.0260    3.3192 C.ar      1 RES1    0.0000
     13 H5         9.9855   -2.3544    3.0960 H         1 RES1    0.0000
     14 C9         9.8021   -4.1693    3.9080 C.ar      1 RES1    0.0000
     15 H6        10.7032   -4.2741    4.1095 H         1 RES1    0.0000
     16 C10        8.9086   -5.1922    4.2192 C.ar      1 RES1    0.0000
     17 H7         9.2299   -5.9860    4.5788 H         1 RES1    0.0000
     18 C11        7.5650   -5.0447    4.0045 C.ar      1 RES1    0.0000
     19 H8         6.9658   -5.7143    4.2410 H         1 RES1    0.0000
     20 C12        7.1239   -3.8587    3.4205 C.ar      1 RES1    0.0000
     21 C13        5.7073   -3.4142    3.0923 C.3       1 RES1    0.0000
     22 H9         5.2956   -4.0470    2.4662 H         1 RES1    0.0000
     23 C14        4.8294   -3.2609    4.3302 C.3       1 RES1    0.0000
     24 H10        5.3018   -2.7679    5.0192 H         1 RES1    0.0000
     25 H11        4.0155   -2.7815    4.1095 H         1 RES1    0.0000
     26 O1         4.5161   -4.6046    4.7948 O.3       1 RES1    0.0000
     27 C15        3.3743   -4.7554    5.4680 C.2       1 RES1    0.0000
     28 O2         2.6202   -3.8506    5.7407 O.2       1 RES1    0.0000
     29 N1         3.1855   -6.0431    5.8167 N.am      1 RES1    0.0000
     30 H12        3.8621   -6.5722    5.8613 H         1 RES1    0.0000
     31 C16        1.8439   -6.5586    6.1207 C.3       1 RES1    0.0000
     32 C17        1.9747   -8.0862    6.4344 C.3       1 RES1    0.0000
     33 H13        2.3331   -8.5055    5.6237 H         1 RES1    0.0000
     34 C18        2.9360   -8.4162    7.5481 C.3       1 RES1    0.0000
     35 H14        3.7837   -8.0008    7.3731 H         1 RES1    0.0000
     36 H15        3.0508   -9.3673    7.6000 H         1 RES1    0.0000
     37 H16        2.5855   -8.0901    8.3806 H         1 RES1    0.0000
     38 C19        0.6320   -8.7364    6.6999 C.3       1 RES1    0.0000
     39 H17        0.0260   -8.5229    5.9868 H         1 RES1    0.0000
     40 H18        0.2783   -8.4104    7.5312 H         1 RES1    0.0000
     41 H19        0.7425   -9.6895    6.7506 H         1 RES1    0.0000
     42 C20        0.9460   -6.3451    4.8985 C.3       1 RES1    0.0000
     43 H20        1.3279   -6.7935    4.1396 H         1 RES1    0.0000
     44 H21        0.8759   -5.4057    4.7139 H         1 RES1    0.0000
     45 H22        0.0730   -6.7042    5.0759 H         1 RES1    0.0000
     46 C21        1.2453   -5.8451    7.3562 C.2       1 RES1    0.0000
     47 O3         0.0542   -5.6770    7.4600 O.2       1 RES1    0.0000
     48 N2         2.1296   -5.4792    8.2853 N.am      1 RES1    0.0000
     49 H23        2.9637   -5.5780    8.0982 H         1 RES1    0.0000
     50 C22        1.7912   -4.9185    9.6064 C.3       1 RES1    0.0000
     51 C23        3.1481   -4.4837   10.2302 C.3       1 RES1    0.0000
     52 H24        3.5986   -3.9247    9.5630 H         1 RES1    0.0000
     53 C24        4.0629   -5.6464   10.5125 C.3       1 RES1    0.0000
     54 H25        4.1570   -6.1782    9.7186 H         1 RES1    0.0000
     55 H26        3.6903   -6.1821   11.2159 H         1 RES1    0.0000
     56 H27        4.9237   -5.3164   10.7816 H         1 RES1    0.0000
     57 C25        2.9878   -3.6277   11.4777 C.3       1 RES1    0.0000
     58 H28        2.4037   -2.8901   11.2871 H         1 RES1    0.0000
     59 H29        3.8466   -3.2939   11.7492 H         1 RES1    0.0000
     60 H30        2.6116   -4.1576   12.1848 H         1 RES1    0.0000
     61 C26        1.0541   -5.9608   10.4438 C.3       1 RES1    0.0000
     62 H31        1.6100   -6.7372   10.5511 H         1 RES1    0.0000
     63 H32        0.2401   -6.2112   10.0010 H         1 RES1    0.0000
     64 H33        0.8490   -5.5920   11.3064 H         1 RES1    0.0000
     65 C27        0.8865   -3.6840    9.4435 C.2       1 RES1    0.0000
     66 O4         0.1290   -3.3428   10.3448 O.2       1 RES1    0.0000
     67 N3         1.0149   -2.9781    8.3082 N.am      1 RES1    0.0000
     68 H34        1.5314   -3.2789    7.6916 H         1 RES1    0.0000
     69 C28        0.3096   -1.7199    8.0814 C.3       1 RES1    0.0000
     70 C29        0.4632   -1.3738    6.5756 C.3       1 RES1    0.0000
     71 H35        1.2509   -1.8294    6.2414 H         1 RES1    0.0000
     72 H36       -0.3028   -1.7389    6.1051 H         1 RES1    0.0000
     73 C30        0.5808    0.1083    6.2124 C.3       1 RES1    0.0000
     74 C31        1.0137    0.1844    4.7356 C.3       1 RES1    0.0000
     75 H37        1.8267   -0.3106    4.6150 H         1 RES1    0.0000
     76 H38        1.1571    1.1005    4.4907 H         1 RES1    0.0000
     77 H39        0.3249   -0.1922    4.1818 H         1 RES1    0.0000
     78 C32       -0.7056    0.8948    6.3838 C.3       1 RES1    0.0000
     79 H40       -0.5564    1.8110    6.1388 H         1 RES1    0.0000
     80 H41       -0.9863    0.8502    7.3007 H         1 RES1    0.0000
     81 H42       -1.3873    0.5202    5.8227 H         1 RES1    0.0000
     82 N4         1.6485    0.7195    7.0486 N.3       1 RES1    0.0000
     83 O5         2.1467    1.8228    6.6396 O.2       1 RES1    0.0000
     84 C33        2.0765    0.1611    8.3492 C.3       1 RES1    0.0000
     85 C34        3.3209   -0.6988    8.1357 C.3       1 RES1    0.0000
     86 H43        4.0196   -0.1611    7.7568 H         1 RES1    0.0000
     87 H44        3.1129   -1.4189    7.5372 H         1 RES1    0.0000
     88 H45        3.6119   -1.0559    8.9778 H         1 RES1    0.0000
     89 C35        2.4098    1.3257    9.2951 C.3       1 RES1    0.0000
     90 H46        1.6267    1.8653    9.4278 H         1 RES1    0.0000
     91 H47        3.1054    1.8634    8.9078 H         1 RES1    0.0000
     92 H48        2.7058    0.9783   10.1397 H         1 RES1    0.0000
     93 C36        0.8884   -0.5939    8.9513 C.3       1 RES1    0.0000
     94 H49        0.1815    0.0427    9.1359 H         1 RES1    0.0000
     95 H50        1.1657   -0.9763    9.7995 H         1 RES1    0.0000
     96 C37       -1.1975   -1.8960    8.3902 C.2       1 RES1    0.0000
     97 O6        -1.8485   -0.9532    8.8258 O.2       1 RES1    0.0000
     98 N5        -1.7592   -3.0681    8.0705 N.am      1 RES1    0.0000
     99 H51       -1.2507   -3.7246    7.8461 H         1 RES1    0.0000
    100 C38       -3.2144   -3.2725    8.0898 C.3       1 RES1    0.0000
    101 C39       -3.4868   -4.7826    7.8111 C.3       1 RES1    0.0000
    102 H52       -3.0378   -4.9923    6.9641 H         1 RES1    0.0000
    103 C40       -2.9163   -5.7357    8.8379 C.3       1 RES1    0.0000
    104 H53       -1.9855   -5.5416    8.9718 H         1 RES1    0.0000
    105 H54       -3.0139   -6.6382    8.5266 H         1 RES1    0.0000
    106 H55       -3.3866   -5.6308    9.6679 H         1 RES1    0.0000
    107 C41       -4.9572   -5.0874    7.5975 C.3       1 RES1    0.0000
    108 H56       -5.3183   -4.4818    6.9460 H         1 RES1    0.0000
    109 H57       -5.4298   -4.9825    8.4276 H         1 RES1    0.0000
    110 H58       -5.0556   -5.9899    7.2850 H         1 RES1    0.0000
    111 C42       -3.8508   -2.3894    7.0293 C.3       1 RES1    0.0000
    112 H59       -3.4796   -2.6029    6.1702 H         1 RES1    0.0000
    113 H60       -3.6772   -1.4674    7.2332 H         1 RES1    0.0000
    114 H61       -4.7996   -2.5408    7.0148 H         1 RES1    0.0000
    115 C43       -3.8150   -2.9251    9.4737 C.2       1 RES1    0.0000
    116 O7        -4.9684   -2.5802    9.5630 O.2       1 RES1    0.0000
    117 N6        -3.0174   -3.0951   10.5523 N.am      1 RES1    0.0000
    118 H62       -2.1981   -3.3234   10.4269 H         1 RES1    0.0000
    119 C44       -3.4898   -2.9076   11.9242 C.3       1 RES1    0.0000
    120 C45       -2.2723   -3.1755   12.8472 C.3       1 RES1    0.0000
    121 H63       -1.5282   -2.6398   12.5033 H         1 RES1    0.0000
    122 C46       -1.8239   -4.6215   12.8254 C.3       1 RES1    0.0000
    123 H64       -1.6685   -4.8952   11.9193 H         1 RES1    0.0000
    124 H65       -2.5070   -5.1728   13.2140 H         1 RES1    0.0000
    125 H66       -1.0139   -4.7127   13.3322 H         1 RES1    0.0000
    126 C47       -2.5265   -2.7213   14.2829 C.3       1 RES1    0.0000
    127 H67       -2.8092   -1.8032   14.2817 H         1 RES1    0.0000
    128 H68       -1.7173   -2.8047   14.7921 H         1 RES1    0.0000
    129 H69       -3.2108   -3.2667   14.6751 H         1 RES1    0.0000
    130 C48       -4.6368   -3.8529   12.2306 C.3       1 RES1    0.0000
    131 H70       -4.3502   -4.7593   12.0919 H         1 RES1    0.0000
    132 H71       -5.3752   -3.6588   11.6503 H         1 RES1    0.0000
    133 H72       -4.9081   -3.7403   13.1440 H         1 RES1    0.0000
    134 C49       -3.9511   -1.4596   12.1474 C.2       1 RES1    0.0000
    135 O8        -4.8135   -1.2255   12.9847 O.2       1 RES1    0.0000
    136 N7        -3.3240   -0.5045   11.4560 N.am      1 RES1    0.0000
    137 H73       -2.8377   -0.7671   10.7973 H         1 RES1    0.0000
    138 C50       -3.3708    0.9162   11.6889 C.3       1 RES1    0.0000
    139 C51       -2.3949    1.6304   10.7611 C.3       1 RES1    0.0000
    140 H74       -1.4955    1.4325   11.0301 H         1 RES1    0.0000
    141 H75       -2.5434    2.5776   10.8093 H         1 RES1    0.0000
    142 H76       -2.5326    1.3296    9.8598 H         1 RES1    0.0000
    143 C52       -4.7906    1.2442   11.2485 C.3       1 RES1    0.0000
    144 H77       -4.9267    0.9336   10.3496 H         1 RES1    0.0000
    145 H78       -4.9248    2.1933   11.2823 H         1 RES1    0.0000
    146 H79       -5.4152    0.8113   11.8349 H         1 RES1    0.0000
    147 C53       -3.1173    1.3956   13.1114 C.3       1 RES1    0.0000
    148 H80       -2.2165    1.1821   13.3660 H         1 RES1    0.0000
    149 H81       -3.7295    0.9627   13.7098 H         1 RES1    0.0000
    150 H82       -3.2446    2.3467   13.1560 H         1 RES1    0.0000
    151 C54       -3.9032    0.8948   11.3342 Du        2 SUP2    0.0000
    152 C55       -2.9922    1.6285   10.3629 Du        2 SUP2    0.0000
    153 H83       -3.0539    1.2228    9.4966 Du        2 SUP2    0.0000
    154 H84       -2.0852    1.5800   10.6754 Du        2 SUP2    0.0000
    155 H85       -3.2606    2.5485   10.3050 Du        2 SUP2    0.0000
    156 C56       -5.3218    0.9511   10.7478 Du        2 SUP2    0.0000
    157 H86       -5.9288    0.4930   11.3342 Du        2 SUP2    0.0000
    158 H87       -5.3301    0.5299    9.8863 Du        2 SUP2    0.0000
    159 H88       -5.5948    1.8672   10.6585 Du        2 SUP2    0.0000
    160 C57       -3.8743    1.4655   12.7531 Du        2 SUP2    0.0000
    161 H89       -4.4669    0.9608   13.3141 Du        2 SUP2    0.0000
    162 H90       -4.1556    2.3835   12.7338 Du        2 SUP2    0.0000
    163 H91       -2.9802    1.4130   13.1005 Du        2 SUP2    0.0000
@<TRIPOS>BOND
     1    1    2 ar
     2    2    3 1
     3    4    2 ar
     4    5    4 1
     5    6    4 ar
     6    7    6 1
     7    8    6 ar
     8    9    8 1
     9   10    1 ar
    10   11   10 1
    11   12   11 ar
    12   13   12 1
    13   14   12 ar
    14   15   14 1
    15   16   14 ar
    16   17   16 1
    17   18   16 ar
    18   19   18 1
    19   20   11 ar
    20   21    1 1
    21   22   21 1
    22   23   21 1
    23   24   23 1
    24   25   23 1
    25   26   23 1
    26   27   26 1
    27   28   27 2
    28   29   27 1
    29   30   29 1
    30   31   29 1
    31   32   31 1
    32   33   32 1
    33   34   32 1
    34   35   34 1
    35   36   34 1
    36   37   34 1
    37   38   32 1
    38   39   38 1
    39   40   38 1
    40   41   38 1
    41   42   31 1
    42   43   42 1
    43   44   42 1
    44   45   42 1
    45   46   31 1
    46   47   46 2
    47   48   46 1
    48   49   48 1
    49   50   48 1
    50   51   50 1
    51   52   51 1
    52   53   51 1
    53   54   53 1
    54   55   53 1
    55   56   53 1
    56   57   51 1
    57   58   57 1
    58   59   57 1
    59   60   57 1
    60   61   50 1
    61   62   61 1
    62   63   61 1
    63   64   61 1
    64   65   50 1
    65   66   65 2
    66   67   65 1
    67   68   67 1
    68   69   67 1
    69   70   69 1
    70   71   70 1
    71   72   70 1
    72   73   70 1
    73   74   73 1
    74   75   74 1
    75   76   74 1
    76   77   74 1
    77   78   73 1
    78   79   78 1
    79   80   78 1
    80   81   78 1
    81   82   73 1
    82   83   82 1
    83   84   82 1
    84   85   84 1
    85   86   85 1
    86   87   85 1
    87   88   85 1
    88   89   84 1
    89   90   89 1
    90   91   89 1
    91   92   89 1
    92   93   69 1
    93   94   93 1
    94   95   93 1
    95   96   69 1
    96   97   96 2
    97   98   96 1
    98   99   98 1
    99  100   98 1
   100  101  100 1
   101  102  101 1
   102  103  101 1
   103  104  103 1
   104  105  103 1
   105  106  103 1
   106  107  101 1
   107  108  107 1
   108  109  107 1
   109  110  107 1
   110  111  100 1
   111  112  111 1
   112  113  111 1
   113  114  111 1
   114  115  100 1
   115  116  115 2
   116  117  115 1
   117  118  117 1
   118  119  117 1
   119  120  119 1
   120  121  120 1
   121  122  120 1
   122  123  122 1
   123  124  122 1
   124  125  122 1
   125  126  120 1
   126  127  126 1
   127  128  126 1
   128  129  126 1
   129  130  119 1
   130  131  130 1
   131  132  130 1
   132  133  130 1
   133  134  119 1
   134  135  134 2
   135  136  134 1
   136  137  136 1
   137  138  136 1
   138  139  138 1
   139  140  139 1
   140  141  139 1
   141  142  139 1
   142  143  138 1
   143  144  143 1
   144  145  143 1
   145  146  143 1
   146  147  138 1
   147  148  147 1
   148  149  147 1
   149  150  147 1
   150    8   10 ar
   151   18   20 ar
   152   20   21 1
   153   84   93 1
@<TRIPOS>SUBSTRUCTURE
     1 RES1 1
     2 SUP2 151

@<TRIPOS>CRYSIN
  11.7020   19.4100   12.7310  90.0000 108.6100  90.0000   4 1

