# MOL2 file generated by ConQuest
# Please check atom types

@<TRIPOS>MOLECULE
OFAHAH
    64    70     2
SMALL
USER_CHARGES
****
Generated from CSD

@<TRIPOS>ATOM
      1 C1         7.7971    9.6243    6.8045 C.3       1 RES1    0.0000
      2 H1         7.3889   10.4301    6.4259 H         1 RES1    0.0000
      3 C2         9.3020    9.8282    7.0501 C.3       1 RES1    0.0000
      4 H2         9.7318   10.0631    6.2128 H         1 RES1    0.0000
      5 H3         9.4265   10.5655    7.6675 H         1 RES1    0.0000
      6 C3         9.9658    8.5934    7.6163 C.3       1 RES1    0.0000
      7 H4        10.9099    8.7850    7.7903 H         1 RES1    0.0000
      8 C4         9.2572    8.1807    8.9653 C.3       1 RES1    0.0000
      9 H5         9.6654    7.3797    9.3285 H         1 RES1    0.0000
     10 H6         9.3402    8.8927    9.6185 H         1 RES1    0.0000
     11 C5         7.7821    7.9278    8.6379 C.3       1 RES1    0.0000
     12 H7         7.3159    7.6448    9.4513 H         1 RES1    0.0000
     13 C6         9.8645    7.4955    6.6476 C.3       1 RES1    0.0000
     14 H8        10.2860    6.6995    7.0126 H         1 RES1    0.0000
     15 H9        10.3275    7.7345    5.8308 H         1 RES1    0.0000
     16 C7         7.1748    9.2736    8.1399 C.3       1 RES1    0.0000
     17 H10        6.2124    9.1847    8.0444 H         1 RES1    0.0000
     18 H11        7.3540    9.9734    8.7845 H         1 RES1    0.0000
     19 C8         8.3927    7.1978    6.3390 C.3       1 RES1    0.0000
     20 H12        8.3164    6.4646    5.6926 H         1 RES1    0.0000
     21 C9         7.5863    8.4050    5.8802 C.3       1 RES1    0.0000
     22 C10        7.5747    6.9059    7.5788 C.3       1 RES1    0.0000
     23 N1         7.6726    5.4214    7.9796 N.pl3     1 RES1    0.0000
     24 N2         7.7954    8.6953    4.4511 N.pl3     1 RES1    0.0000
     25 N3         6.1892    7.0135    7.0467 N.pl3     1 RES1    1.0000
     26 N4         6.1859    7.8773    6.0422 N.pl3     1 RES1    1.0000
     27 O1         8.2550    9.7809    4.1254 O.2       1 RES1    0.0000
     28 O2         7.5034    7.7647    3.6308 O.2       1 RES1    0.0000
     29 O3         8.0426    5.2200    9.1529 O.2       1 RES1    0.0000
     30 O4         7.4619    4.6091    7.1746 O.2       1 RES1    0.0000
     31 O5         5.1306    6.5486    7.5583 O.2       1 RES1   -1.0000
     32 O6         5.1803    8.4213    5.5323 O.2       1 RES1   -1.0000
     33 C11        3.8363    5.8064   11.7587 C.3       2 RES2    0.0000
     34 H13        3.6787    6.7582   11.9327 H         2 RES2    0.0000
     35 C12        4.1947    5.0813   13.0907 C.3       2 RES2    0.0000
     36 H14        5.0144    5.4589   13.4488 H         2 RES2    0.0000
     37 H15        3.4895    5.2363   13.7387 H         2 RES2    0.0000
     38 C13        4.3756    3.5969   12.8962 C.3       2 RES2    0.0000
     39 H16        4.5747    3.1336   13.7387 H         2 RES2    0.0000
     40 C14        3.0332    3.0586   12.2192 C.3       2 RES2    0.0000
     41 H17        3.1012    2.0961   12.0879 H         2 RES2    0.0000
     42 H18        2.2832    3.2225   12.8127 H         2 RES2    0.0000
     43 C15        2.7810    3.7192   10.9009 C.3       2 RES2    0.0000
     44 H19        1.9845    3.3424   10.4695 H         2 RES2    0.0000
     45 C16        2.6250    5.2037   11.1056 C.3       2 RES2    0.0000
     46 H20        2.4790    5.6335   10.2460 H         2 RES2    0.0000
     47 H21        1.8468    5.3733   11.6581 H         2 RES2    0.0000
     48 C17        5.0492    5.6449   10.8208 C.3       2 RES2    0.0000
     49 H22        4.8949    6.1261    9.9919 H         2 RES2    0.0000
     50 H23        5.8441    6.0103   11.2403 H         2 RES2    0.0000
     51 C18        5.4442    3.3481   11.8406 C.3       2 RES2    0.0000
     52 C19        5.2533    4.1417   10.5274 C.3       2 RES2    0.0000
     53 H24        6.0100    4.0014    9.9186 H         2 RES2    0.0000
     54 C20        4.0570    3.4232   10.0567 C.3       2 RES2    0.0000
     55 N5         6.8878    3.4174   12.3420 N.pl3     2 RES2    0.0000
     56 N6         3.8081    3.5414    8.5168 N.pl3     2 RES2    0.0000
     57 N7         4.5000    2.0056   10.2222 N.pl3     2 RES2    1.0000
     58 N8         5.3330    1.9404   11.2471 N.pl3     2 RES2    1.0000
     59 O7         7.7191    3.1972   11.5063 O.2       2 RES2    0.0000
     60 O8         6.9209    3.6581   13.5409 O.2       2 RES2    0.0000
     61 O9         4.8435    3.3563    7.8380 O.2       2 RES2    0.0000
     62 O10        2.7611    3.8987    8.1331 O.2       2 RES2    0.0000
     63 O11        4.0155    1.0024    9.6492 O.2       2 RES2   -1.0000
     64 O12        5.7262    0.8817   11.7792 O.2       2 RES2   -1.0000
@<TRIPOS>BOND
     1    1    2 1
     2    3    1 1
     3    4    3 1
     4    5    3 1
     5    6    3 1
     6    7    6 1
     7    8    6 1
     8    9    8 1
     9   10    8 1
    10   11    8 1
    11   12   11 1
    12   13    6 1
    13   14   13 1
    14   15   13 1
    15   16    1 1
    16   17   16 1
    17   18   16 1
    18   19   13 1
    19   20   19 1
    20   21    1 1
    21   22   11 1
    22   23   22 1
    23   24   21 1
    24   25   22 1
    25   26   21 1
    26   27   24 2
    27   28   24 2
    28   29   23 2
    29   30   23 2
    30   31   25 1
    31   32   26 1
    32   33   34 1
    33   35   33 1
    34   36   35 1
    35   37   35 1
    36   38   35 1
    37   39   38 1
    38   40   38 1
    39   41   40 1
    40   42   40 1
    41   43   40 1
    42   44   43 1
    43   45   33 1
    44   46   45 1
    45   47   45 1
    46   48   33 1
    47   49   48 1
    48   50   48 1
    49   51   38 1
    50   52   48 1
    51   53   52 1
    52   54   43 1
    53   55   51 1
    54   56   54 1
    55   57   54 1
    56   58   51 1
    57   59   55 2
    58   60   55 2
    59   61   56 2
    60   62   56 2
    61   63   57 1
    62   64   58 1
    63   11   16 1
    64   19   21 1
    65   19   22 1
    66   25   26 2
    67   43   45 1
    68   51   52 1
    69   52   54 1
    70   57   58 2
@<TRIPOS>SUBSTRUCTURE
     1 RES1 1
     2 RES2 33

@<TRIPOS>CRYSIN
  16.5930    8.1562   17.0540  90.0000  90.0000  90.0000  29 1

