# MOL2 file generated by ConQuest
# Please check atom types

@<TRIPOS>MOLECULE
OFAMUG
    70    71     1
SMALL
NO_CHARGES
****
Generated from CSD

@<TRIPOS>ATOM
      1 O1         3.8735   -2.2848    9.4852 O.2       1 RES1    0.0000
      2 O2         3.5798   -3.7274    7.9254 O.2       1 RES1    0.0000
      3 O3         2.9650   -2.2970    3.4471 O.2       1 RES1    0.0000
      4 O4         2.3127   -0.2905    3.0353 O.2       1 RES1    0.0000
      5 O5        -2.6880   10.5061   -0.3421 O.3       1 RES1    0.0000
      6 O6        -0.4047   10.7331    0.7767 O.3       1 RES1    0.0000
      7 N1         3.6226   -2.5753    8.3486 N.pl3     1 RES1    0.0000
      8 N2         2.7529   -1.1668    3.7860 N.pl3     1 RES1    0.0000
      9 N3         2.9817    1.6306    4.7053 N.pl3     1 RES1    0.0000
     10 H1         2.7001    1.4988    3.9027 H         1 RES1    0.0000
     11 N4         3.3129    2.9146    5.1350 N.2       1 RES1    0.0000
     12 C1         3.4326   -1.4817    7.3952 C.ar      1 RES1    0.0000
     13 C2         3.1757   -1.7966    6.0851 C.ar      1 RES1    0.0000
     14 H2         3.1262   -2.6851    5.8160 H         1 RES1    0.0000
     15 C3         2.9898   -0.7689    5.1690 C.ar      1 RES1    0.0000
     16 C4         3.1088    0.5980    5.5646 C.ar      1 RES1    0.0000
     17 C5         3.3537    0.8446    6.9315 C.ar      1 RES1    0.0000
     18 H3         3.4112    1.7209    7.2379 H         1 RES1    0.0000
     19 C6         3.5069   -0.1904    7.8070 C.ar      1 RES1    0.0000
     20 H4         3.6661   -0.0049    8.7053 H         1 RES1    0.0000
     21 C7         3.1851    3.7958    4.2643 C.2       1 RES1    0.0000
     22 H5         2.8499    3.5614    3.4293 H         1 RES1    0.0000
     23 C8         3.5631    5.2457    4.5253 C.3       1 RES1    0.0000
     24 H6         3.8802    5.3263    5.4398 H         1 RES1    0.0000
     25 H7         4.2950    5.4898    3.9384 H         1 RES1    0.0000
     26 C9         2.4352    6.2172    4.3194 C.3       1 RES1    0.0000
     27 C10        1.3179    5.8242    5.3101 C.3       1 RES1    0.0000
     28 H8         1.1039    4.8942    5.2015 H         1 RES1    0.0000
     29 H9         0.5332    6.3515    5.1366 H         1 RES1    0.0000
     30 H10        1.6150    5.9805    6.2083 H         1 RES1    0.0000
     31 C11        1.9067    6.1294    2.9007 C.2       1 RES1    0.0000
     32 H11        2.5643    6.2099    2.2456 H         1 RES1    0.0000
     33 C12        0.7339    5.9634    2.4434 C.2       1 RES1    0.0000
     34 H12        0.0502    5.9121    3.0726 H         1 RES1    0.0000
     35 C13        0.3332    5.8389    1.0312 C.3       1 RES1    0.0000
     36 H13        1.1513    5.8950    0.4945 H         1 RES1    0.0000
     37 C14       -0.3077    4.4988    0.7248 C.3       1 RES1    0.0000
     38 H14        0.2529    3.7933    1.0523 H         1 RES1    0.0000
     39 H15       -0.4175    4.4060   -0.2254 H         1 RES1    0.0000
     40 H16       -1.1674    4.4499    1.1512 H         1 RES1    0.0000
     41 C15       -0.5673    7.0667    0.6291 C.ar      1 RES1    0.0000
     42 C16       -1.7963    6.9349    0.0259 C.ar      1 RES1    0.0000
     43 H17       -2.1401    6.0879   -0.1492 H         1 RES1    0.0000
     44 C17       -2.5108    8.0480   -0.3146 C.ar      1 RES1    0.0000
     45 H18       -3.3310    7.9479   -0.7410 H         1 RES1    0.0000
     46 C18       -2.0404    9.3295   -0.0422 C.ar      1 RES1    0.0000
     47 C19       -0.8282    9.4686    0.5788 C.ar      1 RES1    0.0000
     48 C20       -0.1037    8.2994    0.9080 C.ar      1 RES1    0.0000
     49 H19        0.7198    8.3873    1.3328 H         1 RES1    0.0000
     50 C21       -3.7464   10.5061   -1.2096 C.3       1 RES1    0.0000
     51 H20       -3.4815   10.1106   -2.0430 H         1 RES1    0.0000
     52 H21       -4.0367   11.4092   -1.3636 H         1 RES1    0.0000
     53 H22       -4.4716   10.0008   -0.8318 H         1 RES1    0.0000
     54 C22        0.6958   10.9576    1.6263 C.3       1 RES1    0.0000
     55 H23        1.4544   10.4597    1.3052 H         1 RES1    0.0000
     56 H24        0.4803   10.6696    2.5148 H         1 RES1    0.0000
     57 H25        0.9098   11.8926    1.6344 H         1 RES1    0.0000
     58 C23        2.7228    7.5842    4.7069 C.3       1 RES1    0.0000
     59 H26        3.2306    7.5183    5.5322 H         1 RES1    0.0000
     60 H27        1.8705    7.9747    4.9469 H         1 RES1    0.0000
     61 C24        3.4253    8.6241    3.8881 C.3       1 RES1    0.0000
     62 H28        2.9643    8.7388    3.0450 H         1 RES1    0.0000
     63 H29        4.3318    8.3311    3.6968 H         1 RES1    0.0000
     64 C25        3.4721    9.9349    4.6177 C.3       1 RES1    0.0000
     65 H30        2.6553   10.4450    4.4994 H         1 RES1    0.0000
     66 H31        3.6501    9.8177    5.5646 H         1 RES1    0.0000
     67 C26        4.6295   10.5573    3.9076 C.3       1 RES1    0.0000
     68 H32        4.6047   11.5118    4.0130 H         1 RES1    0.0000
     69 H33        4.5827   10.3450    2.9655 H         1 RES1    0.0000
     70 H34        5.4537   10.2180    4.2627 H         1 RES1    0.0000
@<TRIPOS>BOND
     1    1    7 2
     2    2    7 2
     3    3    8 2
     4    4    8 2
     5    5   46 1
     6    6   47 1
     7    7   12 1
     8    8   15 1
     9    9   10 1
    10   11    9 1
    11   12   13 ar
    12   13   14 1
    13   15   13 ar
    14   16    9 1
    15   17   16 ar
    16   18   17 1
    17   19   12 ar
    18   20   19 1
    19   21   11 2
    20   22   21 1
    21   23   21 1
    22   24   23 1
    23   25   23 1
    24   26   23 1
    25   27   26 1
    26   28   27 1
    27   29   27 1
    28   30   27 1
    29   31   26 1
    30   32   31 1
    31   33   31 2
    32   34   33 1
    33   35   33 1
    34   36   35 1
    35   37   35 1
    36   38   37 1
    37   39   37 1
    38   40   37 1
    39   41   35 1
    40   42   41 ar
    41   43   42 1
    42   44   42 ar
    43   45   44 1
    44   46   44 ar
    45   47   46 ar
    46   48   41 ar
    47   49   48 1
    48   50    5 1
    49   51   50 1
    50   52   50 1
    51   53   50 1
    52   54    6 1
    53   55   54 1
    54   56   54 1
    55   57   54 1
    56   58   26 1
    57   59   58 1
    58   60   58 1
    59   61   58 1
    60   62   61 1
    61   63   61 1
    62   64   61 1
    63   65   64 1
    64   66   64 1
    65   67   64 1
    66   68   67 1
    67   69   67 1
    68   70   67 1
    69   15   16 ar
    70   17   19 ar
    71   47   48 ar
@<TRIPOS>SUBSTRUCTURE
     1 RES1 1

@<TRIPOS>CRYSIN
   6.6900   24.4100   16.2140  90.0000  90.0000  90.0000  29 1

