# MOL2 file generated by ConQuest
# Please check atom types

@<TRIPOS>MOLECULE
OFAPET
    57    60     1
SMALL
NO_CHARGES
****
Generated from CSD

@<TRIPOS>ATOM
      1 C1        -7.2423    5.0564    0.6904 C.3       1 RES1    0.0000
      2 C2        -7.2970    4.3841    2.0406 C.3       1 RES1    0.0000
      3 H1        -7.1632    5.0300    2.7511 H         1 RES1    0.0000
      4 H2        -8.1511    3.9451    2.1721 H         1 RES1    0.0000
      5 C3        -5.1253    4.0081    1.3278 C.3       1 RES1    0.0000
      6 C4        -4.1991    4.7658    2.2696 C.3       1 RES1    0.0000
      7 H3        -4.7204    5.3925    2.7957 H         1 RES1    0.0000
      8 H4        -3.5560    5.2736    1.7500 H         1 RES1    0.0000
      9 C5        -3.4535    3.8165    3.2061 C.3       1 RES1    0.0000
     10 H5        -4.0969    3.3885    3.7926 H         1 RES1    0.0000
     11 H6        -2.8499    4.3339    3.7598 H         1 RES1    0.0000
     12 C6        -2.6546    2.7361    2.4807 C.3       1 RES1    0.0000
     13 C7        -3.6027    2.0137    1.5071 C.3       1 RES1    0.0000
     14 H7        -3.0805    1.3992    0.9683 H         1 RES1    0.0000
     15 H8        -4.2336    1.4879    2.0236 H         1 RES1    0.0000
     16 C8        -4.3853    2.9328    0.5770 C.3       1 RES1    0.0000
     17 H9        -3.7723    3.3473   -0.0509 H         1 RES1    0.0000
     18 H10       -5.0193    2.4051    0.0689 H         1 RES1    0.0000
     19 C9        -1.4366    3.3840    1.7828 C.3       1 RES1    0.0000
     20 H11       -1.7538    3.9489    1.0606 H         1 RES1    0.0000
     21 H12       -0.9765    3.9521    2.4192 H         1 RES1    0.0000
     22 C10       -0.4458    2.3749    1.2186 C.3       1 RES1    0.0000
     23 H13       -0.8655    1.8890    0.4910 H         1 RES1    0.0000
     24 H14        0.3217    2.8473    0.8580 H         1 RES1    0.0000
     25 C11        0.0233    1.3909    2.2675 C.3       1 RES1    0.0000
     26 C12       -1.1476    0.7237    2.9431 C.3       1 RES1    0.0000
     27 H15       -0.8256    0.1491    3.6548 H         1 RES1    0.0000
     28 H16       -1.6171    0.1703    2.2993 H         1 RES1    0.0000
     29 C13       -2.1020    1.7469    3.5169 C.3       1 RES1    0.0000
     30 H17       -1.6427    2.2463    4.2105 H         1 RES1    0.0000
     31 H18       -2.8442    1.2822    3.9316 H         1 RES1    0.0000
     32 C14        1.8221    1.0920    3.6664 C.3       1 RES1    0.0000
     33 H19        1.4178    0.5078    4.3272 H         1 RES1    0.0000
     34 H20        2.5908    1.5284    4.0631 H         1 RES1    0.0000
     35 C15        2.2261    0.3079    2.4287 C.3       1 RES1    0.0000
     36 C16       -7.6700    6.5173    0.7180 C.3       1 RES1    0.0000
     37 H21       -7.0692    7.0154    1.2769 H         1 RES1    0.0000
     38 H22       -8.5611    6.5835    1.0659 H         1 RES1    0.0000
     39 H23       -7.6472    6.8740   -0.1729 H         1 RES1    0.0000
     40 C17       -8.0116    4.2677   -0.3765 C.3       1 RES1    0.0000
     41 H24       -7.7525    4.5756   -1.2483 H         1 RES1    0.0000
     42 H25       -8.9540    4.4008   -0.2556 H         1 RES1    0.0000
     43 H26       -7.8066    3.3338   -0.2938 H         1 RES1    0.0000
     44 C18        3.2912    1.0020    1.6089 C.3       1 RES1    0.0000
     45 H27        3.3965    0.5457    0.7700 H         1 RES1    0.0000
     46 H28        4.1225    0.9898    2.0872 H         1 RES1    0.0000
     47 H29        3.0264    1.9108    1.4466 H         1 RES1    0.0000
     48 C19        2.5994   -1.1171    2.7214 C.3       1 RES1    0.0000
     49 H30        1.8791   -1.5496    3.1839 H         1 RES1    0.0000
     50 H31        3.3880   -1.1351    3.2698 H         1 RES1    0.0000
     51 H32        2.7730   -1.5779    1.8974 H         1 RES1    0.0000
     52 N1        -5.8037    4.9561    0.4253 N.3       1 RES1    0.0000
     53 N2         0.9301    0.3734    1.7192 N.3       1 RES1    0.0000
     54 O1        -5.2041    5.5892   -0.4815 O.2       1 RES1    0.0000
     55 O2        -6.2171    3.4129    2.0162 O.3       1 RES1    0.0000
     56 O3         0.8718    2.0638    3.1966 O.3       1 RES1    0.0000
     57 O4         0.5808   -0.4094    0.7912 O.2       1 RES1    0.0000
@<TRIPOS>BOND
     1    1    2 1
     2    2    3 1
     3    4    2 1
     4    5    6 1
     5    6    7 1
     6    8    6 1
     7    9    6 1
     8   10    9 1
     9   11    9 1
    10   12    9 1
    11   13   12 1
    12   14   13 1
    13   15   13 1
    14   16    5 1
    15   17   16 1
    16   18   16 1
    17   19   12 1
    18   20   19 1
    19   21   19 1
    20   22   19 1
    21   23   22 1
    22   24   22 1
    23   25   22 1
    24   26   25 1
    25   27   26 1
    26   28   26 1
    27   29   12 1
    28   30   29 1
    29   31   29 1
    30   32   33 1
    31   34   32 1
    32   35   32 1
    33   36    1 1
    34   37   36 1
    35   38   36 1
    36   39   36 1
    37   40    1 1
    38   41   40 1
    39   42   40 1
    40   43   40 1
    41   44   35 1
    42   45   44 1
    43   46   44 1
    44   47   44 1
    45   48   35 1
    46   49   48 1
    47   50   48 1
    48   51   48 1
    49   52    1 1
    50   53   25 1
    51   54   52 1
    52   55    2 1
    53   56   25 1
    54   57   53 1
    55    5   52 1
    56    5   55 1
    57   13   16 1
    58   26   29 1
    59   32   56 1
    60   35   53 1
@<TRIPOS>SUBSTRUCTURE
     1 RES1 1

@<TRIPOS>CRYSIN
  28.4705    6.4273   10.6058  90.0000  90.0000  90.0000  33 1

