# MOL2 file generated by ConQuest
# Please check atom types

@<TRIPOS>MOLECULE
OFEBIK
   122   126     2
SMALL
NO_CHARGES
****
Generated from CSD

@<TRIPOS>ATOM
      1 N1         3.4802   11.9485    3.9194 N.am      1 RES1    0.0000
      2 N2         5.3627    9.3608    1.4438 N.1       1 RES1    0.0000
      3 N3         1.2220   15.5808   -1.9788 N.pl3     1 RES1    0.0000
      4 O1         5.4308   12.9579    3.3317 O.2       1 RES1    0.0000
      5 O2         2.5285   16.7015    2.5887 O.3       1 RES1    0.0000
      6 O3         4.3817   17.7553    1.8966 O.2       1 RES1    0.0000
      7 O4         1.3978   17.4810    0.1881 O.3       1 RES1    0.0000
      8 O5        -0.4954   16.7459    1.1237 O.2       1 RES1    0.0000
      9 O6         0.7052   14.6507   -2.5738 O.2       1 RES1    0.0000
     10 O7         1.2024   16.7379   -2.3808 O.2       1 RES1    0.0000
     11 C1         3.1741   13.6936    0.5699 C.ar      1 RES1    0.0000
     12 C2         3.2146   14.6258    1.6137 C.ar      1 RES1    0.0000
     13 H1         3.6782   14.4148    2.4151 H         1 RES1    0.0000
     14 C3         2.5860   15.8478    1.4874 C.ar      1 RES1    0.0000
     15 C4         1.9422   16.2142    0.3174 C.ar      1 RES1    0.0000
     16 C5         1.9103   15.2871   -0.7118 C.ar      1 RES1    0.0000
     17 C6         2.5034   14.0496   -0.6005 C.ar      1 RES1    0.0000
     18 H2         2.4555   13.4349   -1.3233 H         1 RES1    0.0000
     19 C7         3.8058   12.3656    0.6016 C.2       1 RES1    0.0000
     20 H3         3.8472   11.9078   -0.2293 H         1 RES1    0.0000
     21 C8         4.3285   11.7167    1.6500 C.2       1 RES1    0.0000
     22 C9         4.4489   12.2642    3.0530 C.2       1 RES1    0.0000
     23 C10        3.5511   12.4986    5.2776 C.3       1 RES1    0.0000
     24 H4         4.4986   12.6543    5.5183 H         1 RES1    0.0000
     25 H5         3.1775   11.8400    5.9161 H         1 RES1    0.0000
     26 C11        2.7812   13.8036    5.3927 C.3       1 RES1    0.0000
     27 H6         3.1653   14.4657    4.7795 H         1 RES1    0.0000
     28 H7         2.8401   14.1386    6.3118 H         1 RES1    0.0000
     29 H8         1.8418   13.6520    5.1611 H         1 RES1    0.0000
     30 C12        2.2880   11.1566    3.5884 C.3       1 RES1    0.0000
     31 H9         2.1679   11.1501    2.6059 H         1 RES1    0.0000
     32 H10        1.4918   11.5895    3.9880 H         1 RES1    0.0000
     33 C13        2.3747    9.7322    4.0842 C.3       1 RES1    0.0000
     34 H11        3.1037    9.2694    3.6207 H         1 RES1    0.0000
     35 H12        1.5286    9.2717    3.9048 H         1 RES1    0.0000
     36 H13        2.5481    9.7321    5.0495 H         1 RES1    0.0000
     37 C14        4.8921   10.4099    1.4885 C.1       1 RES1    0.0000
     38 C15        3.5119   17.6454    2.7163 C.2       1 RES1    0.0000
     39 C16        3.3245   18.4794    3.9202 C.ar      1 RES1    0.0000
     40 C17        4.0922   19.6097    4.0674 C.ar      1 RES1    0.0000
     41 H14        4.7352   19.8349    3.4055 H         1 RES1    0.0000
     42 C18        3.9284   20.4239    5.1794 C.ar      1 RES1    0.0000
     43 H15        4.4485   21.2117    5.2768 H         1 RES1    0.0000
     44 C19        3.0089   20.0800    6.1373 C.ar      1 RES1    0.0000
     45 H16        2.8855   20.6446    6.8902 H         1 RES1    0.0000
     46 C20        2.2700   18.9416    6.0236 C.ar      1 RES1    0.0000
     47 H17        1.6602   18.7000    6.7096 H         1 RES1    0.0000
     48 C21        2.4066   18.1348    4.9039 C.ar      1 RES1    0.0000
     49 H18        1.8763   17.3517    4.8100 H         1 RES1    0.0000
     50 C22        0.0669   17.6040    0.5228 C.2       1 RES1    0.0000
     51 C23       -0.5007   18.8754    0.0631 C.ar      1 RES1    0.0000
     52 C24        0.0609   19.5879   -0.9837 C.ar      1 RES1    0.0000
     53 H19        0.8588   19.2839   -1.4004 H         1 RES1    0.0000
     54 C25       -0.5650   20.7650   -1.4213 C.ar      1 RES1    0.0000
     55 H20       -0.2078   21.2572   -2.1513 H         1 RES1    0.0000
     56 C26       -1.7164   21.2023   -0.7732 C.ar      1 RES1    0.0000
     57 H21       -2.1357   22.0052   -1.0594 H         1 RES1    0.0000
     58 C27       -2.2616   20.4904    0.2780 C.ar      1 RES1    0.0000
     59 H22       -3.0388   20.8121    0.7205 H         1 RES1    0.0000
     60 C28       -1.6693   19.3073    0.6819 C.ar      1 RES1    0.0000
     61 H23       -2.0594   18.7921    1.3780 H         1 RES1    0.0000
     62 N4         6.6281   10.2352    6.0490 N.am      2 RES2    0.0000
     63 N5         4.8447   13.0394    8.5047 N.1       2 RES2    0.0000
     64 N6         9.2021    7.0305   11.9488 N.pl3     2 RES2    0.0000
     65 O8         4.6320    9.4102    6.7307 O.2       2 RES2    0.0000
     66 O9         7.4698    5.5804    7.6083 O.3       2 RES2    0.0000
     67 O10        5.5076    4.8762    8.4286 O.2       2 RES2    0.0000
     68 O11        8.8004    4.9623    9.8996 O.3       2 RES2    0.0000
     69 O12       10.8983    5.7046    9.6236 O.2       2 RES2    0.0000
     70 O13        9.2720    5.8969   12.4071 O.2       2 RES2    0.0000
     71 O14        9.7224    8.0051   12.4712 O.2       2 RES2    0.0000
     72 C29        7.0756    8.7572    9.4296 C.ar      2 RES2    0.0000
     73 C30        6.9327    7.7571    8.4615 C.ar      2 RES2    0.0000
     74 H24        6.4095    7.9216    7.6858 H         2 RES2    0.0000
     75 C31        7.5456    6.5358    8.6269 C.ar      2 RES2    0.0000
     76 C32        8.3005    6.2391    9.7563 C.ar      2 RES2    0.0000
     77 C33        8.4391    7.2436   10.7060 C.ar      2 RES2    0.0000
     78 C34        7.8463    8.4771   10.5537 C.ar      2 RES2    0.0000
     79 H25        7.9653    9.1417   11.2213 H         2 RES2    0.0000
     80 C35        6.4434   10.0736    9.3673 C.2       2 RES2    0.0000
     81 H26        6.4441   10.5711   10.1760 H         2 RES2    0.0000
     82 C36        5.8614   10.6717    8.3129 C.2       2 RES2    0.0000
     83 C37        5.6671   10.0543    6.9491 C.2       2 RES2    0.0000
     84 C38        6.4685    9.6788    4.6921 C.3       2 RES2    0.0000
     85 H27        6.8627   10.3066    4.0347 H         2 RES2    0.0000
     86 H28        5.5035    9.5929    4.4873 H         2 RES2    0.0000
     87 C39        7.1328    8.3212    4.5439 C.3       2 RES2    0.0000
     88 H29        8.0867    8.3996    4.7552 H         2 RES2    0.0000
     89 H30        7.0270    8.0058    3.6227 H         2 RES2    0.0000
     90 H31        6.7130    7.6834    5.1591 H         2 RES2    0.0000
     91 C40        7.8764   10.9765    6.3260 C.3       2 RES2    0.0000
     92 H32        8.6134   10.5695    5.8065 H         2 RES2    0.0000
     93 H33        8.0981   10.8840    7.2860 H         2 RES2    0.0000
     94 C41        7.7885   12.4460    5.9841 C.3       2 RES2    0.0000
     95 H34        7.5950   12.5491    5.0292 H         2 RES2    0.0000
     96 H35        8.6414   12.8822    6.1921 H         2 RES2    0.0000
     97 H36        7.0725   12.8622    6.5087 H         2 RES2    0.0000
     98 C42        5.3014   11.9876    8.4550 C.1       2 RES2    0.0000
     99 C43        6.3563    4.7834    7.5868 C.2       2 RES2    0.0000
    100 C44        6.3857    3.8292    6.4811 C.ar      2 RES2    0.0000
    101 C45        7.2613    3.9509    5.4257 C.ar      2 RES2    0.0000
    102 H37        7.8467    4.6966    5.3701 H         2 RES2    0.0000
    103 C46        7.2752    2.9598    4.4325 C.ar      2 RES2    0.0000
    104 H38        7.8603    3.0409    3.6877 H         2 RES2    0.0000
    105 C47        6.4516    1.8791    4.5340 C.ar      2 RES2    0.0000
    106 H39        6.4873    1.2012    3.8703 H         2 RES2    0.0000
    107 C48        5.5832    1.7565    5.5629 C.ar      2 RES2    0.0000
    108 H40        5.0102    1.0012    5.6198 H         2 RES2    0.0000
    109 C49        5.5376    2.7457    6.5312 C.ar      2 RES2    0.0000
    110 H41        4.9103    2.6753    7.2414 H         2 RES2    0.0000
    111 C50       10.1727    4.8325    9.9989 C.2       2 RES2    0.0000
    112 C51       10.5669    3.5528   10.5970 C.ar      2 RES2    0.0000
    113 C52        9.6786    2.7867   11.3349 C.ar      2 RES2    0.0000
    114 H42        8.7725    3.0597   11.4201 H         2 RES2    0.0000
    115 C53       10.1136    1.6240   11.9460 C.ar      2 RES2    0.0000
    116 H43        9.5049    1.0980   12.4511 H         2 RES2    0.0000
    117 C54       11.4112    1.2337   11.8258 C.ar      2 RES2    0.0000
    118 H44       11.7016    0.4340   12.2482 H         2 RES2    0.0000
    119 C55       12.3075    1.9818   11.0995 C.ar      2 RES2    0.0000
    120 H45       13.2091    1.6927   11.0183 H         2 RES2    0.0000
    121 C56       11.9022    3.1595   10.4819 C.ar      2 RES2    0.0000
    122 H46       12.5213    3.6874    9.9914 H         2 RES2    0.0000
@<TRIPOS>BOND
     1    1   22 1
     2    2   37 3
     3    3    9 2
     4    4   22 2
     5    5   14 1
     6    6   38 2
     7    7   15 1
     8    8   50 2
     9   10    3 2
    10   11   12 ar
    11   12   13 1
    12   14   12 ar
    13   15   14 ar
    14   16    3 1
    15   17   11 ar
    16   18   17 1
    17   19   11 1
    18   20   19 1
    19   21   19 2
    20   22   21 1
    21   23    1 1
    22   24   23 1
    23   25   23 1
    24   26   23 1
    25   27   26 1
    26   28   26 1
    27   29   26 1
    28   30    1 1
    29   31   30 1
    30   32   30 1
    31   33   30 1
    32   34   33 1
    33   35   33 1
    34   36   33 1
    35   37   21 1
    36   38    5 1
    37   39   38 1
    38   40   39 ar
    39   41   40 1
    40   42   40 ar
    41   43   42 1
    42   44   42 ar
    43   45   44 1
    44   46   44 ar
    45   47   46 1
    46   48   39 ar
    47   49   48 1
    48   50    7 1
    49   51   50 1
    50   52   51 ar
    51   53   52 1
    52   54   52 ar
    53   55   54 1
    54   56   54 ar
    55   57   56 1
    56   58   56 ar
    57   59   58 1
    58   60   51 ar
    59   61   60 1
    60   62   83 1
    61   63   98 3
    62   64   70 2
    63   65   83 2
    64   66   75 1
    65   67   99 2
    66   68   76 1
    67   69  111 2
    68   71   64 2
    69   72   73 ar
    70   73   74 1
    71   75   73 ar
    72   76   75 ar
    73   77   64 1
    74   78   72 ar
    75   79   78 1
    76   80   72 1
    77   81   80 1
    78   82   80 2
    79   83   82 1
    80   84   62 1
    81   85   84 1
    82   86   84 1
    83   87   84 1
    84   88   87 1
    85   89   87 1
    86   90   87 1
    87   91   62 1
    88   92   91 1
    89   93   91 1
    90   94   91 1
    91   95   94 1
    92   96   94 1
    93   97   94 1
    94   98   82 1
    95   99   66 1
    96  100   99 1
    97  101  100 ar
    98  102  101 1
    99  103  101 ar
   100  104  103 1
   101  105  103 ar
   102  106  105 1
   103  107  105 ar
   104  108  107 1
   105  109  100 ar
   106  110  109 1
   107  111   68 1
   108  112  111 1
   109  113  112 ar
   110  114  113 1
   111  115  113 ar
   112  116  115 1
   113  117  115 ar
   114  118  117 1
   115  119  117 ar
   116  120  119 1
   117  121  112 ar
   118  122  121 1
   119   15   16 ar
   120   16   17 ar
   121   46   48 ar
   122   58   60 ar
   123   76   77 ar
   124   77   78 ar
   125  107  109 ar
   126  119  121 ar
@<TRIPOS>SUBSTRUCTURE
     1 RES1 1
     2 RES2 62

@<TRIPOS>CRYSIN
   8.8839   14.1085   20.5846  82.1170  84.3760  88.9120   2 1

