# MOL2 file generated by ConQuest
# Please check atom types

@<TRIPOS>MOLECULE
OFEBAC
    51    51     1
SMALL
NO_CHARGES
****
Generated from CSD

@<TRIPOS>ATOM
      1 O1        -4.0124    5.8162   -1.4425 O.2       1 RES1    0.0000
      2 O2        -0.6273    0.5262    2.5410 O.3       1 RES1    0.0000
      3 O3         0.6178    1.9473    3.7571 O.2       1 RES1    0.0000
      4 O4         1.7703    0.3357    1.4279 O.3       1 RES1    0.0000
      5 H1         2.4802    0.2989    0.9809 H         1 RES1    0.0000
      6 O5         2.6630    2.6245   -1.9037 O.2       1 RES1    0.0000
      7 O6         3.2583    1.0262   -0.5807 O.2       1 RES1    0.0000
      8 N1        -4.0860    4.9596   -3.5335 N.am      1 RES1    0.0000
      9 N2        -0.4339    4.2606   -3.8246 N.1       1 RES1    0.0000
     10 N3         2.4393    1.8698   -0.9777 N.pl3     1 RES1    0.0000
     11 C1        -1.0714    2.8673   -0.2915 C.ar      1 RES1    0.0000
     12 C2        -1.3249    2.1148    0.8729 C.ar      1 RES1    0.0000
     13 H2        -2.1793    2.1644    1.2856 H         1 RES1    0.0000
     14 C3        -0.3570    1.3115    1.4204 C.ar      1 RES1    0.0000
     15 C4         0.9128    1.1756    0.8367 C.ar      1 RES1    0.0000
     16 C5         1.1493    1.9340   -0.3067 C.ar      1 RES1    0.0000
     17 C6         0.1920    2.7751   -0.8562 C.ar      1 RES1    0.0000
     18 H3         0.4044    3.2922   -1.6250 H         1 RES1    0.0000
     19 C7        -2.1618    3.6915   -0.8235 C.2       1 RES1    0.0000
     20 H4        -2.9028    3.8057   -0.2392 H         1 RES1    0.0000
     21 C8        -2.2710    4.3084   -2.0117 C.2       1 RES1    0.0000
     22 C9        -3.5371    5.0922   -2.3149 C.2       1 RES1    0.0000
     23 C10       -3.7953    3.8842   -4.4785 C.3       1 RES1    0.0000
     24 H5        -4.6251    3.3728   -4.6506 H         1 RES1    0.0000
     25 H6        -3.1384    3.2661   -4.0720 H         1 RES1    0.0000
     26 C11       -3.2455    4.3920   -5.7958 C.3       1 RES1    0.0000
     27 H7        -3.8983    4.9925   -6.2129 H         1 RES1    0.0000
     28 H8        -3.0716    3.6337   -6.3919 H         1 RES1    0.0000
     29 H9        -2.4101    4.8789   -5.6355 H         1 RES1    0.0000
     30 C12       -5.2727    5.7758   -3.8257 C.3       1 RES1    0.0000
     31 H10       -5.8913    5.7352   -3.0536 H         1 RES1    0.0000
     32 H11       -5.7423    5.3950   -4.6092 H         1 RES1    0.0000
     33 C13       -4.9296    7.2186   -4.1084 C.3       1 RES1    0.0000
     34 H12       -4.4957    7.6115   -3.3223 H         1 RES1    0.0000
     35 H13       -5.7497    7.7157   -4.3112 H         1 RES1    0.0000
     36 H14       -4.3214    7.2657   -4.8751 H         1 RES1    0.0000
     37 C14       -1.2412    4.2855   -3.0087 C.1       1 RES1    0.0000
     38 C15        0.0349    0.9114    3.6926 C.2       1 RES1    0.0000
     39 C16       -0.0151   -0.1405    4.7809 C.3       1 RES1    0.0000
     40 C17        1.3035   -0.9293    4.6382 C.3       1 RES1    0.0000
     41 H15        1.3457   -1.3373    3.7486 H         1 RES1    0.0000
     42 H16        1.3407   -1.6302    5.3215 H         1 RES1    0.0000
     43 H17        2.0623   -0.3195    4.7535 H         1 RES1    0.0000
     44 C18       -1.1935   -1.1018    4.6407 C.3       1 RES1    0.0000
     45 H18       -2.0323   -0.5957    4.6613 H         1 RES1    0.0000
     46 H19       -1.1810   -1.7445    5.3816 H         1 RES1    0.0000
     47 H20       -1.1233   -1.5836    3.7900 H         1 RES1    0.0000
     48 C19       -0.0595    0.5686    6.1283 C.3       1 RES1    0.0000
     49 H21        0.7016    1.1822    6.1995 H         1 RES1    0.0000
     50 H22       -0.0114   -0.0946    6.8476 H         1 RES1    0.0000
     51 H23       -0.8955    1.0743    6.2048 H         1 RES1    0.0000
@<TRIPOS>BOND
     1    1   22 2
     2    2   14 1
     3    3   38 2
     4    4    5 1
     5    6   10 2
     6    7   10 2
     7    8   22 1
     8    9   37 3
     9   10   16 1
    10   11   12 ar
    11   12   13 1
    12   14   12 ar
    13   15    4 1
    14   16   15 ar
    15   17   11 ar
    16   18   17 1
    17   19   11 1
    18   20   19 1
    19   21   19 2
    20   22   21 1
    21   23    8 1
    22   24   23 1
    23   25   23 1
    24   26   23 1
    25   27   26 1
    26   28   26 1
    27   29   26 1
    28   30    8 1
    29   31   30 1
    30   32   30 1
    31   33   30 1
    32   34   33 1
    33   35   33 1
    34   36   33 1
    35   37   21 1
    36   38    2 1
    37   39   38 1
    38   40   39 1
    39   41   40 1
    40   42   40 1
    41   43   40 1
    42   44   39 1
    43   45   44 1
    44   46   44 1
    45   47   44 1
    46   48   39 1
    47   49   48 1
    48   50   48 1
    49   51   48 1
    50   14   15 ar
    51   16   17 ar
@<TRIPOS>SUBSTRUCTURE
     1 RES1 1

@<TRIPOS>CRYSIN
   7.7920    9.2656   14.1102 108.2230  92.4530  95.3200   2 1

