# MOL2 file generated by ConQuest
# Please check atom types

@<TRIPOS>MOLECULE
OFENAR
    69    46     2
SMALL
NO_CHARGES
****
Generated from CSD

@<TRIPOS>ATOM
      1 O1        14.8547    1.9054   11.4492 O.2       1 RES1    0.0000
      2 N1        10.7610    0.5921   10.8767 N.pl3     1 RES1    0.0000
      3 O2        13.6044    3.3402   10.4008 O.2       1 RES1    0.0000
      4 N2        11.4835    1.7242   10.6085 N.2       1 RES1    0.0000
      5 N3        12.8184    0.1323   11.5799 N.2       1 RES1    0.0000
      6 N4        13.7931    2.2696   10.9558 N.pl3     1 RES1    0.0000
      7 C1        12.6675    1.3426   11.0572 C.2       1 RES1    0.0000
      8 C2        11.5707   -0.3622   11.4584 C.2       1 RES1    0.0000
      9 C3         9.4136    0.4097   10.6179 C.2       1 RES1    0.0000
     10 C4         8.9161   -0.8060   10.9840 C.2       1 RES1    0.0000
     11 H1         7.9967   -0.9891   10.8269 H         1 RES1    0.0000
     12 C5        11.0349   -1.5973   11.8257 C.2       1 RES1    0.0000
     13 H2        11.5754   -2.2682   12.2276 H         1 RES1    0.0000
     14 C6         9.7157   -1.8058   11.5888 C.2       1 RES1    0.0000
     15 H3         9.3227   -2.6351   11.8336 H         1 RES1    0.0000
     16 C7         6.8425    3.0034    8.5156 C.ar      1 RES1    0.0000
     17 C8         6.3573    2.3311    9.6321 C.ar      1 RES1    0.0000
     18 H4         5.4433    2.4146    9.8762 H         1 RES1    0.0000
     19 C9         7.2090    1.5351   10.3897 C.ar      1 RES1    0.0000
     20 H5         6.8762    1.0760   11.1498 H         1 RES1    0.0000
     21 C10        8.5470    1.4128   10.0312 C.ar      1 RES1    0.0000
     22 C11        9.0316    2.0851    8.9152 C.ar      1 RES1    0.0000
     23 H6         9.9456    2.0009    8.6712 H         1 RES1    0.0000
     24 C12        8.1801    2.8804    8.1579 C.ar      1 RES1    0.0000
     25 H7         8.5130    3.3402    7.3950 H         1 RES1    0.0000
     26 N5         6.5361    5.1894    7.0094 N.3       1 RES1    0.0000
     27 C13        6.0391    4.3126    6.0121 C.3       1 RES1    0.0000
     28 H8         5.0604    4.2177    6.1214 H         1 RES1    0.0000
     29 H9         6.4460    3.4184    6.1341 H         1 RES1    0.0000
     30 C14        5.9715    6.5147    6.7926 C.3       1 RES1    0.0000
     31 H10        6.3479    7.1549    7.4484 H         1 RES1    0.0000
     32 H11        4.9880    6.4886    6.9120 H         1 RES1    0.0000
     33 C15        6.3370    6.9858    5.2800 C.3       1 RES1    0.0000
     34 H12        5.9191    7.8593    5.0741 H         1 RES1    0.0000
     35 H13        7.3162    7.0654    5.1656 H         1 RES1    0.0000
     36 O3         5.8560    6.0529    4.5095 O.3       1 RES1    0.0000
     37 C16        6.3388    4.8058    4.6114 C.3       1 RES1    0.0000
     38 H14        7.3151    4.8031    4.4487 H         1 RES1    0.0000
     39 H15        5.9087    4.2177    3.9428 H         1 RES1    0.0000
     40 C17        5.8500    3.6837    7.6213 C.3       1 RES1    0.0000
     41 H16        5.3742    2.9947    7.0925 H         1 RES1    0.0000
     42 H17        5.1801    4.1462    8.1831 H         1 RES1    0.0000
     43 C18        6.2047    4.7417    8.3448 Du        2 SUP2    0.0000
     44 H18        5.2515    4.4763    8.3661 Du        2 SUP2    0.0000
     45 H19        6.3203    5.4982    8.9737 Du        2 SUP2    0.0000
     46 C19        8.3994    3.4953    8.4772 Du        2 SUP2    0.0000
     47 H20        8.7675    4.1368    7.8806 Du        2 SUP2    0.0000
     48 C20        7.0567    3.5634    8.8296 Du        2 SUP2    0.0000
     49 C21        6.5191    2.6258    9.7033 Du        2 SUP2    0.0000
     50 H21        5.6015    2.6719    9.9448 Du        2 SUP2    0.0000
     51 C22        7.3234    1.6193   10.2244 Du        2 SUP2    0.0000
     52 H22        6.9570    0.9777   10.8218 Du        2 SUP2    0.0000
     53 C23        8.6667    1.5511    9.8711 Du        2 SUP2    0.0000
     54 C24        9.2035    2.4888    8.9991 Du        2 SUP2    0.0000
     55 H23       10.1230    2.4427    8.7576 Du        2 SUP2    0.0000
     56 C25        5.4715    4.9829    5.6105 Du        2 SUP2    0.0000
     57 H24        4.6163    5.2255    6.0503 Du        2 SUP2    0.0000
     58 H25        5.3054    4.1429    5.1122 Du        2 SUP2    0.0000
     59 C26        6.7482    5.9206    7.4230 Du        2 SUP2    0.0000
     60 H26        5.9309    6.2627    7.8628 Du        2 SUP2    0.0000
     61 H27        7.4252    5.7448    8.1246 Du        2 SUP2    0.0000
     62 C27        7.2677    6.9404    6.4748 Du        2 SUP2    0.0000
     63 H28        7.5201    7.7631    6.9629 Du        2 SUP2    0.0000
     64 H29        8.0723    6.5942    6.0096 Du        2 SUP2    0.0000
     65 O4         6.2327    7.2318    5.5164 Du        2 SUP2    0.0000
     66 C28        5.7574    6.1017    4.5301 Du        2 SUP2    0.0000
     67 H30        6.4704    5.8343    3.8945 Du        2 SUP2    0.0000
     68 H31        4.9436    6.3576    4.0293 Du        2 SUP2    0.0000
     69 N6         6.4369    4.6534    6.7010 Du        2 SUP2    0.0000
@<TRIPOS>BOND
     1    1    6 2
     2    2    4 1
     3    3    6 2
     4    4    7 2
     5    5    7 1
     6    6    7 1
     7    8    2 1
     8    9    2 1
     9   10    9 2
    10   11   10 1
    11   12    8 1
    12   13   12 1
    13   14   10 1
    14   15   14 1
    15   16   17 ar
    16   17   18 1
    17   19   17 ar
    18   20   19 1
    19   21    9 1
    20   22   21 ar
    21   23   22 1
    22   24   16 ar
    23   25   24 1
    24   26   27 1
    25   27   28 1
    26   29   27 1
    27   30   26 1
    28   31   30 1
    29   32   30 1
    30   33   30 1
    31   34   33 1
    32   35   33 1
    33   36   33 1
    34   37   27 1
    35   38   37 1
    36   39   37 1
    37   40   16 1
    38   41   40 1
    39   42   40 1
    40    5    8 2
    41   12   14 2
    42   19   21 ar
    43   22   24 ar
    44   26   40 1
    45   27   40 1
    46   36   37 1
@<TRIPOS>SUBSTRUCTURE
     1 RES1 1
     2 SUP2 43

@<TRIPOS>CRYSIN
  18.9470    6.6831   25.5389  90.0000  95.5020  90.0000  15 1

