# MOL2 file generated by ConQuest
# Please check atom types

@<TRIPOS>MOLECULE
OFEWOL
    41    42     1
SMALL
NO_CHARGES
****
Generated from CSD

@<TRIPOS>ATOM
      1 N1         0.7460    5.2677    6.2350 N.ar      1 RES1    0.0000
      2 C1         1.7612    4.9355    7.0896 C.ar      1 RES1    0.0000
      3 N2         2.9765    5.1886    6.6627 N.3       1 RES1    0.0000
      4 N3         1.6424    4.3788    8.3022 N.ar      1 RES1    0.0000
      5 C2         0.4093    4.0908    8.7153 C.ar      1 RES1    0.0000
      6 N4         0.2667    3.5046    9.8996 N.3       1 RES1    0.0000
      7 C3        -0.7486    4.4065    7.9253 C.ar      1 RES1    0.0000
      8 N5        -2.0448    4.2140    8.2554 N.2       1 RES1    0.0000
      9 O1        -2.2985    3.6582    9.3741 O.2       1 RES1    0.0000
     10 C4        -0.4598    4.9977    6.6575 C.ar      1 RES1    0.0000
     11 O2        -1.5020    5.2750    5.8670 O.3       1 RES1    0.0000
     12 C5        -1.1907    5.8078    4.5550 C.3       1 RES1    0.0000
     13 C6        -2.4624    5.8249    3.7654 C.ar      1 RES1    0.0000
     14 C7        -3.3705    6.8611    3.9412 C.ar      1 RES1    0.0000
     15 C8        -4.5574    6.8716    3.2358 C.ar      1 RES1    0.0000
     16 C9        -4.8275    5.8835    2.3324 C.ar      1 RES1    0.0000
     17 C10       -3.9316    4.8462    2.1362 C.ar      1 RES1    0.0000
     18 C11       -2.7473    4.8101    2.8605 C.ar      1 RES1    0.0000
     19 C12        1.3943    3.1533   10.7317 C.3       1 RES1    0.0000
     20 O3         0.7537    4.9071   12.2569 O.2       1 RES1    0.0000
     21 C13        1.5172    4.0427   11.9389 C.2       1 RES1    0.0000
     22 O4         2.6277    3.7263   12.6194 O.3       1 RES1    0.0000
     23 C14        2.9134    4.5873   13.7524 C.3       1 RES1    0.0000
     24 C15        4.2601    4.2276   14.3063 C.3       1 RES1    0.0000
     25 H1         3.6698    4.9940    7.1671 H         1 RES1    0.0000
     26 H2         3.0971    5.5544    5.8713 H         1 RES1    0.0000
     27 H3        -0.5452    3.3231   10.1876 H         1 RES1    0.0000
     28 H4        -0.5159    5.2396    4.1055 H         1 RES1    0.0000
     29 H5        -0.8253    6.7247    4.6355 H         1 RES1    0.0000
     30 H6        -3.1743    7.5641    4.5491 H         1 RES1    0.0000
     31 H7        -5.1878    7.5678    3.3793 H         1 RES1    0.0000
     32 H8        -5.6360    5.9080    1.8331 H         1 RES1    0.0000
     33 H9        -4.1265    4.1609    1.5081 H         1 RES1    0.0000
     34 H10       -2.1346    4.0939    2.7380 H         1 RES1    0.0000
     35 H11        2.2243    3.2179   10.1964 H         1 RES1    0.0000
     36 H12        1.2975    2.2145   11.0295 H         1 RES1    0.0000
     37 H13        2.2193    4.4696   14.4483 H         1 RES1    0.0000
     38 H14        2.9083    5.5346   13.4659 H         1 RES1    0.0000
     39 H15        4.2466    3.3002   14.6226 H         1 RES1    0.0000
     40 H16        4.4762    4.8235   15.0545 H         1 RES1    0.0000
     41 H17        4.9384    4.3239   13.6064 H         1 RES1    0.0000
@<TRIPOS>BOND
     1    1    2 ar
     2    2    3 1
     3    3   25 1
     4    4    2 ar
     5    5    4 ar
     6    6    5 1
     7    7    5 ar
     8    8    7 1
     9    9    8 2
    10   10    1 ar
    11   11   10 1
    12   12   11 1
    13   13   12 1
    14   14   13 ar
    15   15   14 ar
    16   16   15 ar
    17   17   16 ar
    18   18   13 ar
    19   19    6 1
    20   20   21 2
    21   21   19 1
    22   22   21 1
    23   23   22 1
    24   24   23 1
    25   26    3 1
    26   27    6 1
    27   28   12 1
    28   29   12 1
    29   30   14 1
    30   31   15 1
    31   32   16 1
    32   33   17 1
    33   34   18 1
    34   35   19 1
    35   36   19 1
    36   37   23 1
    37   38   23 1
    38   39   24 1
    39   40   24 1
    40   41   24 1
    41    7   10 ar
    42   17   18 ar
@<TRIPOS>SUBSTRUCTURE
     1 RES1 1

@<TRIPOS>CRYSIN
   7.3525    7.5420   14.9454  91.7970 100.4670 106.1020   2 1

