# MOL2 file generated by ConQuest
# Please check atom types

@<TRIPOS>MOLECULE
OFEWIF
    84    88     2
SMALL
NO_CHARGES
****
Generated from CSD

@<TRIPOS>ATOM
      1 N1         7.2383   10.7475    5.3829 N.ar      1 RES1    0.0000
      2 C1         6.1627   10.2774    6.0871 C.ar      1 RES1    0.0000
      3 N2         5.9488    8.9790    5.9627 N.3       1 RES1    0.0000
      4 N3         5.3302   10.9792    6.8631 N.ar      1 RES1    0.0000
      5 C2         5.5894   12.2864    6.9943 C.ar      1 RES1    0.0000
      6 C3         3.6553   11.7691    9.6089 C.ar      1 RES1    0.0000
      7 C4         2.5009   11.3231   10.2164 C.ar      1 RES1    0.0000
      8 C5         2.5389   10.6058   11.3962 C.ar      1 RES1    0.0000
      9 C6         3.7387   10.3216   11.9945 C.ar      1 RES1    0.0000
     10 C7         4.8899   10.7651   11.4079 C.ar      1 RES1    0.0000
     11 C8         4.8627   11.4878   10.2233 C.ar      1 RES1    0.0000
     12 C9         3.5423   12.5370    8.3198 C.3       1 RES1    0.0000
     13 N4         4.7911   13.0233    7.7550 N.3       1 RES1    0.0000
     14 C10        6.7066   12.9136    6.3267 C.ar      1 RES1    0.0000
     15 N5         7.0677   14.2083    6.3411 N.2       1 RES1    0.0000
     16 O1         6.3770   15.0043    7.0624 O.2       1 RES1    0.0000
     17 C11        7.4812   12.0245    5.5070 C.ar      1 RES1    0.0000
     18 C12       10.0353   12.6165    3.0559 C.ar      1 RES1    0.0000
     19 C13        9.5214   13.0972    1.8608 C.ar      1 RES1    0.0000
     20 C14       10.2273   14.0285    1.1135 C.ar      1 RES1    0.0000
     21 C15       11.4442   14.4911    1.5550 C.ar      1 RES1    0.0000
     22 C16       11.9712   14.0022    2.7301 C.ar      1 RES1    0.0000
     23 C17       11.2833   13.0707    3.4798 C.ar      1 RES1    0.0000
     24 C18        9.2210   11.7007    3.9026 C.3       1 RES1    0.0000
     25 O2         8.5021   12.5683    4.8322 O.3       1 RES1    0.0000
     26 N6        13.7754   11.1705    5.2572 N.ar      2 RES2    0.0000
     27 C19       14.8108   11.7237    4.5593 C.ar      2 RES2    0.0000
     28 N7        14.9423   13.0270    4.7153 N.3       2 RES2    0.0000
     29 N8        15.6926   11.0925    3.7659 N.ar      2 RES2    0.0000
     30 C20       15.5147    9.7752    3.6089 C.ar      2 RES2    0.0000
     31 C21       17.6321    9.1353    0.7553 C.ar      2 RES2    0.0000
     32 C22       18.6598    8.2570    0.4251 C.ar      2 RES2    0.0000
     33 C23       18.7415    7.7100   -0.8454 C.ar      2 RES2    0.0000
     34 C24       17.8079    8.0314   -1.8053 C.ar      2 RES2    0.0000
     35 C25       16.6967    9.4674   -0.2274 C.ar      2 RES2    0.0000
     36 C26       16.7818    8.9119   -1.4902 C.ar      2 RES2    0.0000
     37 C27       17.4964    9.6945    2.1440 C.3       2 RES2    0.0000
     38 N9        16.3494    9.1046    2.8295 N.3       2 RES2    0.0000
     39 C28       14.4299    9.0684    4.2707 C.ar      2 RES2    0.0000
     40 N10       14.1207    7.7605    4.1858 N.2       2 RES2    0.0000
     41 O3        14.8532    7.0236    3.4468 O.2       2 RES2    0.0000
     42 C29       13.6166    9.8908    5.1056 C.ar      2 RES2    0.0000
     43 C30       11.0179    9.0963    7.4597 C.ar      2 RES2    0.0000
     44 C31       11.4696    8.4667    8.6017 C.ar      2 RES2    0.0000
     45 C32       10.7389    7.4521    9.1868 C.ar      2 RES2    0.0000
     46 C33        9.5319    7.0825    8.6430 C.ar      2 RES2    0.0000
     47 C34        9.0443    7.7326    7.5249 C.ar      2 RES2    0.0000
     48 C35        9.7919    8.7246    6.9287 C.ar      2 RES2    0.0000
     49 C36       11.8947   10.0757    6.7423 C.3       2 RES2    0.0000
     50 O4        12.6410    9.2712    5.7735 O.3       2 RES2    0.0000
     51 H1         5.3092    8.5744    6.4166 H         1 RES1    0.0000
     52 H2         6.4527    8.4595    5.5047 H         1 RES1    0.0000
     53 H3         1.6609   11.5127    9.8146 H         1 RES1    0.0000
     54 H4         1.7291   10.3088   11.7955 H         1 RES1    0.0000
     55 H5         3.7682    9.8251   12.8038 H         1 RES1    0.0000
     56 H6         5.7256   10.5747   11.8186 H         1 RES1    0.0000
     57 H7         5.6747   11.7893    9.8334 H         1 RES1    0.0000
     58 H8         3.1039   11.9550    7.6492 H         1 RES1    0.0000
     59 H9         2.9474   13.3139    8.4709 H         1 RES1    0.0000
     60 H10        5.0303   13.8524    7.9280 H         1 RES1    0.0000
     61 H11        8.6790   12.7861    1.5512 H         1 RES1    0.0000
     62 H12        9.8681   14.3481    0.2935 H         1 RES1    0.0000
     63 H13       11.9186   15.1432    1.0523 H         1 RES1    0.0000
     64 H14       12.8196   14.3107    3.0270 H         1 RES1    0.0000
     65 H15       11.6604   12.7380    4.2868 H         1 RES1    0.0000
     66 H16        8.5868   11.1827    3.3456 H         1 RES1    0.0000
     67 H17        9.8032   11.0691    4.3937 H         1 RES1    0.0000
     68 H18       15.5862   13.4048    4.2658 H         2 RES2    0.0000
     69 H19       14.2703   13.5063    5.1756 H         2 RES2    0.0000
     70 H20       19.3127    8.0306    1.0775 H         2 RES2    0.0000
     71 H21       19.4468    7.1086   -1.0565 H         2 RES2    0.0000
     72 H22       17.8649    7.6538   -2.6748 H         2 RES2    0.0000
     73 H23       15.9977   10.0790   -0.0273 H         2 RES2    0.0000
     74 H24       16.1337    9.1343   -2.1486 H         2 RES2    0.0000
     75 H25       18.3212    9.5057    2.6580 H         2 RES2    0.0000
     76 H26       17.3833   10.6762    2.0941 H         2 RES2    0.0000
     77 H27       16.2028    8.2444    2.7167 H         2 RES2    0.0000
     78 H28       12.2944    8.7347    8.9908 H         2 RES2    0.0000
     79 H29       11.0690    7.0124    9.9613 H         2 RES2    0.0000
     80 H30        9.0309    6.3777    9.0369 H         2 RES2    0.0000
     81 H31        8.1960    7.4961    7.1691 H         2 RES2    0.0000
     82 H32        9.4654    9.1570    6.1483 H         2 RES2    0.0000
     83 H33       11.3505   10.7631    6.2824 H         2 RES2    0.0000
     84 H34       12.5103   10.5252    7.3746 H         2 RES2    0.0000
@<TRIPOS>BOND
     1    1    2 ar
     2    2    3 1
     3    3   51 1
     4    4    2 ar
     5    5    4 ar
     6    6    7 ar
     7    7    8 ar
     8    8    9 ar
     9    9   10 ar
    10   10   11 ar
    11   11    6 ar
    12   12    6 1
    13   13    5 1
    14   14    5 ar
    15   15   14 1
    16   16   15 2
    17   17    1 ar
    18   18   19 ar
    19   19   20 ar
    20   20   21 ar
    21   21   22 ar
    22   22   23 ar
    23   23   18 ar
    24   24   18 1
    25   25   17 1
    26   26   27 ar
    27   27   28 1
    28   28   68 1
    29   29   27 ar
    30   30   29 ar
    31   31   32 ar
    32   32   33 ar
    33   33   34 ar
    34   34   36 ar
    35   35   31 ar
    36   36   35 ar
    37   37   31 1
    38   38   30 1
    39   39   30 ar
    40   40   39 1
    41   41   40 2
    42   42   26 ar
    43   43   44 ar
    44   44   45 ar
    45   45   46 ar
    46   46   47 ar
    47   47   48 ar
    48   48   43 ar
    49   49   43 1
    50   50   42 1
    51   52    3 1
    52   53    7 1
    53   54    8 1
    54   55    9 1
    55   56   10 1
    56   57   11 1
    57   58   12 1
    58   59   12 1
    59   60   13 1
    60   61   19 1
    61   62   20 1
    62   63   21 1
    63   64   22 1
    64   65   23 1
    65   66   24 1
    66   67   24 1
    67   69   28 1
    68   70   32 1
    69   71   33 1
    70   72   34 1
    71   73   35 1
    72   74   36 1
    73   75   37 1
    74   76   37 1
    75   77   38 1
    76   78   44 1
    77   79   45 1
    78   80   46 1
    79   81   47 1
    80   82   48 1
    81   83   49 1
    82   84   49 1
    83   12   13 1
    84   14   17 ar
    85   24   25 1
    86   37   38 1
    87   39   42 ar
    88   49   50 1
@<TRIPOS>SUBSTRUCTURE
     1 RES1 1
     2 RES2 26

@<TRIPOS>CRYSIN
  11.6770   13.3620   21.4780  90.0000 102.5800  90.0000 231 1

