# MOL2 file generated by ConQuest
# Please check atom types

@<TRIPOS>MOLECULE
OFEXEC
   108   112     2
SMALL
NO_CHARGES
****
Generated from CSD

@<TRIPOS>ATOM
      1 N1         1.0980   -2.2937    0.4565 N.ar      1 RES1    0.0000
      2 C1         1.7735   -2.8017    1.5360 C.ar      1 RES1    0.0000
      3 N2         2.1363   -4.0725    1.4159 N.3       1 RES1    0.0000
      4 N3         2.0839   -2.1710    2.6811 N.ar      1 RES1    0.0000
      5 C2         1.7679   -0.8789    2.7274 C.ar      1 RES1    0.0000
      6 N4         2.0602   -0.1777    3.8239 N.3       1 RES1    0.0000
      7 C3         1.1095   -0.1907    1.6442 C.ar      1 RES1    0.0000
      8 N5         0.7191    1.0855    1.5776 N.2       1 RES1    0.0000
      9 O1         0.9657    1.8418    2.5915 O.2       1 RES1    0.0000
     10 C4         0.7951   -1.0277    0.5241 C.ar      1 RES1    0.0000
     11 O2         0.1521   -0.4298   -0.4811 O.3       1 RES1    0.0000
     12 C5        -0.1265   -1.2047   -1.6793 C.3       1 RES1    0.0000
     13 C6         1.0703   -1.1928   -2.6103 C.ar      1 RES1    0.0000
     14 C7         1.9978   -2.1974   -2.5814 C.ar      1 RES1    0.0000
     15 C8         3.0855   -2.1906   -3.4364 C.ar      1 RES1    0.0000
     16 C9         3.2483   -1.1417   -4.3280 C.ar      1 RES1    0.0000
     17 C10        2.3169   -0.1254   -4.3564 C.ar      1 RES1    0.0000
     18 C11        1.2345   -0.1443   -3.5155 C.ar      1 RES1    0.0000
     19 C12        2.5891   -0.7823    5.0268 C.3       1 RES1    0.0000
     20 C13        3.0429    0.3217    6.0068 C.3       1 RES1    0.0000
     21 C14        4.2559    1.0949    5.5579 C.ar      1 RES1    0.0000
     22 C15        5.5210    0.6749    5.8992 C.ar      1 RES1    0.0000
     23 C16        6.6543    1.3755    5.5018 C.ar      1 RES1    0.0000
     24 C17        6.5146    2.5259    4.7555 C.ar      1 RES1    0.0000
     25 C18        5.2587    2.9713    4.4048 C.ar      1 RES1    0.0000
     26 C19        4.1376    2.2620    4.8025 C.ar      1 RES1    0.0000
     27 C20        1.5115   -1.6242    5.7309 C.2       1 RES1    0.0000
     28 O3         0.3449   -1.5371    5.5184 O.2       1 RES1    0.0000
     29 O4         2.0787   -2.3824    6.6518 O.3       1 RES1    0.0000
     30 C21        1.1670   -3.1435    7.5105 C.3       1 RES1    0.0000
     31 C22        1.9829   -3.7786    8.5625 C.3       1 RES1    0.0000
     32 N6         3.1482    1.9515   -0.6873 N.ar      2 RES2    0.0000
     33 C23        2.3540    2.4533   -1.6699 C.ar      2 RES2    0.0000
     34 N7         1.0600    2.3933   -1.4352 N.3       2 RES2    0.0000
     35 N8         2.7512    3.0523   -2.8194 N.ar      2 RES2    0.0000
     36 C24        4.0481    2.9881   -3.0847 C.ar      2 RES2    0.0000
     37 N9         4.5082    3.5706   -4.1931 N.3       2 RES2    0.0000
     38 C25        4.9880    2.3482   -2.2001 C.ar      2 RES2    0.0000
     39 N10        6.2919    2.1456   -2.3781 N.2       2 RES2    0.0000
     40 O5         6.8135    2.5389   -3.4936 O.2       2 RES2    0.0000
     41 C26        4.4265    1.9295   -0.9401 C.ar      2 RES2    0.0000
     42 O6         5.3014    1.5093   -0.0354 O.3       2 RES2    0.0000
     43 C27        4.8076    1.0467    1.2615 C.3       2 RES2    0.0000
     44 C28        5.1318   -0.3967    1.4226 C.ar      2 RES2    0.0000
     45 C29        4.7788   -1.3300    0.4692 C.ar      2 RES2    0.0000
     46 C30        5.1036   -2.6778    0.6879 C.ar      2 RES2    0.0000
     47 C31        5.7502   -3.0796    1.8518 C.ar      2 RES2    0.0000
     48 C32        6.0829   -2.1500    2.7801 C.ar      2 RES2    0.0000
     49 C33        5.7818   -0.8295    2.5764 C.ar      2 RES2    0.0000
     50 C34        3.6720    4.4119   -5.0330 C.3       2 RES2    0.0000
     51 C35        4.5814    5.2580   -5.9376 C.3       2 RES2    0.0000
     52 C36        3.8203    6.3090   -6.7056 C.ar      2 RES2    0.0000
     53 C37        3.5029    6.1282   -8.0449 C.ar      2 RES2    0.0000
     54 C38        2.7960    7.1071   -8.7311 C.ar      2 RES2    0.0000
     55 C39        2.3829    8.2503   -8.0899 C.ar      2 RES2    0.0000
     56 C40        2.7015    8.4379   -6.7575 C.ar      2 RES2    0.0000
     57 C41        3.4201    7.4722   -6.0829 C.ar      2 RES2    0.0000
     58 C42        2.7471    3.5514   -5.8759 C.2       2 RES2    0.0000
     59 O7         3.1245    2.6496   -6.5568 O.2       2 RES2    0.0000
     60 O8         1.4942    3.9247   -5.7535 O.3       2 RES2    0.0000
     61 C43        0.4844    3.1171   -6.4269 C.3       2 RES2    0.0000
     62 C44        0.2806    3.5628   -7.8028 C.3       2 RES2    0.0000
     63 H1         2.7514   -4.4160    1.9419 H         1 RES1    0.0000
     64 H2         1.8784   -4.5122    0.6929 H         1 RES1    0.0000
     65 H3         1.9255    0.6921    3.8154 H         1 RES1    0.0000
     66 H4        -0.9119   -0.8233   -2.1456 H         1 RES1    0.0000
     67 H5        -0.3409   -2.1377   -1.4276 H         1 RES1    0.0000
     68 H6         1.8936   -2.9117   -1.9620 H         1 RES1    0.0000
     69 H7         3.7168   -2.9001   -3.4130 H         1 RES1    0.0000
     70 H8         3.9943   -1.1227   -4.9158 H         1 RES1    0.0000
     71 H9         2.4265    0.5957   -4.9658 H         1 RES1    0.0000
     72 H10        0.5950    0.5579   -3.5499 H         1 RES1    0.0000
     73 H11        3.3683   -1.3633    4.7939 H         1 RES1    0.0000
     74 H12        2.2938    0.9560    6.1380 H         1 RES1    0.0000
     75 H13        3.2396   -0.0946    6.8827 H         1 RES1    0.0000
     76 H14        5.6223   -0.1135    6.4185 H         1 RES1    0.0000
     77 H15        7.5185    1.0642    5.7423 H         1 RES1    0.0000
     78 H16        7.2839    3.0119    4.4833 H         1 RES1    0.0000
     79 H17        5.1619    3.7634    3.8905 H         1 RES1    0.0000
     80 H18        3.2745    2.5759    4.5568 H         1 RES1    0.0000
     81 H19        0.6924   -3.8322    6.9812 H         1 RES1    0.0000
     82 H20        0.4944   -2.5400    7.9163 H         1 RES1    0.0000
     83 H21        2.4043   -3.0852    9.1118 H         1 RES1    0.0000
     84 H22        2.6754   -4.3331    8.1467 H         1 RES1    0.0000
     85 H23        1.4099   -4.3396    9.1269 H         1 RES1    0.0000
     86 H24        0.4542    2.5714   -2.0555 H         2 RES2    0.0000
     87 H25        0.7496    1.9240   -0.7564 H         2 RES2    0.0000
     88 H26        5.3476    3.4407   -4.4232 H         2 RES2    0.0000
     89 H27        3.8283    1.1785    1.3141 H         2 RES2    0.0000
     90 H28        5.2309    1.5687    1.9887 H         2 RES2    0.0000
     91 H29        4.3235   -1.0649   -0.3223 H         2 RES2    0.0000
     92 H30        4.8791   -3.3264    0.0317 H         2 RES2    0.0000
     93 H31        5.9555   -3.9957    1.9954 H         2 RES2    0.0000
     94 H32        6.5282   -2.4153    3.5766 H         2 RES2    0.0000
     95 H33        6.0227   -0.1931    3.2393 H         2 RES2    0.0000
     96 H34        3.1252    5.0176   -4.4549 H         2 RES2    0.0000
     97 H35        5.2709    5.6992   -5.3816 H         2 RES2    0.0000
     98 H36        5.0451    4.6621   -6.5788 H         2 RES2    0.0000
     99 H37        3.7685    5.3332   -8.4907 H         2 RES2    0.0000
    100 H38        2.5968    6.9855   -9.6528 H         2 RES2    0.0000
    101 H39        1.8819    8.9067   -8.5592 H         2 RES2    0.0000
    102 H40        2.4269    9.2283   -6.3083 H         2 RES2    0.0000
    103 H41        3.6441    7.6119   -5.1696 H         2 RES2    0.0000
    104 H42       -0.3704    3.1793   -5.9310 H         2 RES2    0.0000
    105 H43        0.7690    2.1690   -6.4269 H         2 RES2    0.0000
    106 H44        1.1084    3.4380   -8.3120 H         2 RES2    0.0000
    107 H45        0.0352    4.5112   -7.8044 H         2 RES2    0.0000
    108 H46       -0.4383    3.0384   -8.2118 H         2 RES2    0.0000
@<TRIPOS>BOND
     1    1    2 ar
     2    2    3 1
     3    3   63 1
     4    4    2 ar
     5    5    4 ar
     6    6    5 1
     7    7    5 ar
     8    8    7 1
     9    9    8 2
    10   10    1 ar
    11   11   10 1
    12   12   11 1
    13   13   12 1
    14   14   13 ar
    15   15   14 ar
    16   16   15 ar
    17   17   16 ar
    18   18   13 ar
    19   19    6 1
    20   20   19 1
    21   21   20 1
    22   22   21 ar
    23   23   22 ar
    24   24   23 ar
    25   25   24 ar
    26   26   21 ar
    27   27   19 1
    28   28   27 2
    29   29   27 1
    30   30   29 1
    31   31   30 1
    32   32   33 ar
    33   33   34 1
    34   34   86 1
    35   35   33 ar
    36   36   35 ar
    37   37   36 1
    38   38   36 ar
    39   39   38 1
    40   40   39 2
    41   41   32 ar
    42   42   41 1
    43   43   42 1
    44   44   43 1
    45   45   44 ar
    46   46   45 ar
    47   47   46 ar
    48   48   47 ar
    49   49   44 ar
    50   50   37 1
    51   51   50 1
    52   52   51 1
    53   53   52 ar
    54   54   53 ar
    55   55   54 ar
    56   56   55 ar
    57   57   52 ar
    58   58   50 1
    59   59   58 2
    60   60   58 1
    61   61   60 1
    62   62   61 1
    63   64    3 1
    64   65    6 1
    65   66   12 1
    66   67   12 1
    67   68   14 1
    68   69   15 1
    69   70   16 1
    70   71   17 1
    71   72   18 1
    72   73   19 1
    73   74   20 1
    74   75   20 1
    75   76   22 1
    76   77   23 1
    77   78   24 1
    78   79   25 1
    79   80   26 1
    80   81   30 1
    81   82   30 1
    82   83   31 1
    83   84   31 1
    84   85   31 1
    85   87   34 1
    86   88   37 1
    87   89   43 1
    88   90   43 1
    89   91   45 1
    90   92   46 1
    91   93   47 1
    92   94   48 1
    93   95   49 1
    94   96   50 1
    95   97   51 1
    96   98   51 1
    97   99   53 1
    98  100   54 1
    99  101   55 1
   100  102   56 1
   101  103   57 1
   102  104   61 1
   103  105   61 1
   104  106   62 1
   105  107   62 1
   106  108   62 1
   107    7   10 ar
   108   17   18 ar
   109   25   26 ar
   110   38   41 ar
   111   48   49 ar
   112   56   57 ar
@<TRIPOS>SUBSTRUCTURE
     1 RES1 1
     2 RES2 32

@<TRIPOS>CRYSIN
   7.9899    8.4278   17.0042  99.9100  90.5610 111.4880   1 1

