# MOL2 file generated by ConQuest
# Please check atom types

@<TRIPOS>MOLECULE
OFEXIG
   114   118     2
SMALL
NO_CHARGES
****
Generated from CSD

@<TRIPOS>ATOM
      1 N1         5.5109    7.7893    5.7036 N.ar      1 RES1    0.0000
      2 C1         6.3972    6.7626    5.4705 C.ar      1 RES1    0.0000
      3 C2         7.3831    0.5516    0.9871 C.3       1 RES1    0.0000
      4 C3         6.4004   -0.5526    1.2169 C.3       1 RES1    0.0000
      5 C4         7.4540    3.7908    6.0098 C.ar      1 RES1    0.0000
      6 C5         8.2184    3.0763    5.0961 C.ar      1 RES1    0.0000
      7 C6         7.8055    1.8112    4.6761 C.ar      1 RES1    0.0000
      8 C7         6.6390    1.2692    5.1567 C.ar      1 RES1    0.0000
      9 C8         5.8781    1.9715    6.0617 C.ar      1 RES1    0.0000
     10 C9         6.2928    3.2318    6.4916 C.ar      1 RES1    0.0000
     11 C10        7.9136    5.1505    6.5012 C.3       1 RES1    0.0000
     12 N2         6.8637    6.1560    6.5520 N.3       1 RES1    0.0000
     13 N3         6.8336    6.3136    4.2805 N.ar      1 RES1    0.0000
     14 N4         6.7750    6.5210    1.9997 N.3       1 RES1    0.0000
     15 C11        6.3715    6.9391    3.2012 C.ar      1 RES1    0.0000
     16 C12        5.4555    8.0571    3.2968 C.ar      1 RES1    0.0000
     17 N5         4.8907    8.7447    2.2953 N.2       1 RES1    0.0000
     18 O1         5.2127    8.3974    1.0917 O.2       1 RES1    0.0000
     19 C13        5.0897    8.4097    4.6444 C.ar      1 RES1    0.0000
     20 C14        3.1079   11.1457    5.9801 C.ar      1 RES1    0.0000
     21 C15        2.6236   11.7099    7.1496 C.ar      1 RES1    0.0000
     22 C16        1.9375   12.9084    7.1241 C.ar      1 RES1    0.0000
     23 C17        1.7321   13.5659    5.9373 C.ar      1 RES1    0.0000
     24 C18        2.1858   13.0131    4.7728 C.ar      1 RES1    0.0000
     25 C19        2.8772   11.7996    4.7909 C.ar      1 RES1    0.0000
     26 C20        3.8664    9.8492    6.0746 C.3       1 RES1    0.0000
     27 O2         4.2715    9.4604    4.7508 O.3       1 RES1    0.0000
     28 C21        7.6122    5.3456    1.8129 C.3       1 RES1    0.0000
     29 C22        6.7827    4.0765    1.8743 C.3       1 RES1    0.0000
     30 C23        7.5493    2.8760    1.4067 C.2       1 RES1    0.0000
     31 O3         8.6908    2.8588    1.0538 O.2       1 RES1    0.0000
     32 O4         6.7623    1.7806    1.4281 O.3       1 RES1    0.0000
     33 N6         3.7177    9.3559   -2.4654 N.ar      2 RES2    0.0000
     34 C24        3.2873   10.3641   -1.6299 C.ar      2 RES2    0.0000
     35 C25        4.5756   17.5205   -4.5555 C.3       2 RES2    0.0000
     36 C26        5.8098   18.2563   -4.1575 C.3       2 RES2    0.0000
     37 C27        1.6757   11.2554    0.9730 C.ar      2 RES2    0.0000
     38 C28        1.0721   12.4897    1.2205 C.ar      2 RES2    0.0000
     39 C29       -0.2713   12.5771    1.5337 C.ar      2 RES2    0.0000
     40 C30       -1.0563   11.4373    1.5959 C.ar      2 RES2    0.0000
     41 C31       -0.4589   10.2052    1.3424 C.ar      2 RES2    0.0000
     42 C32        0.8772   10.1134    1.0482 C.ar      2 RES2    0.0000
     43 C33        3.1485   11.1591    0.6790 C.3       2 RES2    0.0000
     44 N7         3.4817   10.1588   -0.3359 N.3       2 RES2    0.0000
     45 N8         2.7228   11.5288   -1.9796 N.ar      2 RES2    0.0000
     46 C34        2.5856   11.7544   -3.2849 C.ar      2 RES2    0.0000
     47 N9         2.0957   12.9360   -3.6669 N.3       2 RES2    0.0000
     48 C35        2.9683   10.7756   -4.2786 C.ar      2 RES2    0.0000
     49 N10        2.9050   10.8786   -5.6179 N.2       2 RES2    0.0000
     50 O5         2.4317   11.9798   -6.0898 O.2       2 RES2    0.0000
     51 C36        3.5498    9.5820   -3.7340 C.ar      2 RES2    0.0000
     52 C37        5.3958    6.9101   -5.3519 C.ar      2 RES2    0.0000
     53 C38        6.1521    5.7615   -5.1189 C.ar      2 RES2    0.0000
     54 C39        6.8229    5.1469   -6.1528 C.ar      2 RES2    0.0000
     55 C40        6.7688    5.6614   -7.4348 C.ar      2 RES2    0.0000
     56 C41        6.0203    6.7969   -7.6685 C.ar      2 RES2    0.0000
     57 C42        5.3354    7.4113   -6.6338 C.ar      2 RES2    0.0000
     58 C43        4.6939    7.5359   -4.1739 C.3       2 RES2    0.0000
     59 O6         3.9727    8.6986   -4.6478 O.3       2 RES2    0.0000
     60 C44        1.7559   13.9908   -2.7233 C.3       2 RES2    0.0000
     61 C45        2.9060   14.9532   -2.4902 C.3       2 RES2    0.0000
     62 C46        3.1936   15.8097   -3.6828 C.2       2 RES2    0.0000
     63 O7         2.5754   15.7820   -4.7153 O.2       2 RES2    0.0000
     64 O8         4.2236   16.6355   -3.4562 O.3       2 RES2    0.0000
     65 H1         8.2126    0.3841    1.5003 H         1 RES1    0.0000
     66 H2         7.6140    0.6104    0.0263 H         1 RES1    0.0000
     67 H3         6.2131   -0.6293    2.1762 H         1 RES1    0.0000
     68 H4         6.7741   -1.3965    0.8878 H         1 RES1    0.0000
     69 H5         5.5686   -0.3556    0.7378 H         1 RES1    0.0000
     70 H6         9.0233    3.4494    4.7561 H         1 RES1    0.0000
     71 H7         8.3336    1.3225    4.0554 H         1 RES1    0.0000
     72 H8         6.3587    0.4100    4.8644 H         1 RES1    0.0000
     73 H9         5.0706    1.5982    6.3940 H         1 RES1    0.0000
     74 H10        5.7680    3.7085    7.1241 H         1 RES1    0.0000
     75 H11        8.2971    5.0462    7.4087 H         1 RES1    0.0000
     76 H12        8.6347    5.4752    5.9068 H         1 RES1    0.0000
     77 H13        6.5231    6.3701    7.3344 H         1 RES1    0.0000
     78 H14        6.5243    6.9756    1.2899 H         1 RES1    0.0000
     79 H15        2.7651   11.2678    7.9779 H         1 RES1    0.0000
     80 H16        1.6058   13.2799    7.9330 H         1 RES1    0.0000
     81 H17        1.2770   14.4001    5.9254 H         1 RES1    0.0000
     82 H18        2.0295   13.4556    3.9472 H         1 RES1    0.0000
     83 H19        3.1908   11.4231    3.9766 H         1 RES1    0.0000
     84 H20        4.6624    9.9631    6.6523 H         1 RES1    0.0000
     85 H21        3.2909    9.1482    6.4714 H         1 RES1    0.0000
     86 H22        8.3065    5.3194    2.5180 H         1 RES1    0.0000
     87 H23        8.0665    5.4010    0.9358 H         1 RES1    0.0000
     88 H24        6.4837    3.9289    2.8057 H         1 RES1    0.0000
     89 H25        5.9767    4.1868    1.3101 H         1 RES1    0.0000
     90 H26        3.8380   18.1583   -4.7313 H         2 RES2    0.0000
     91 H27        4.7389   16.9960   -5.3779 H         2 RES2    0.0000
     92 H28        5.6371   18.7656   -3.3378 H         2 RES2    0.0000
     93 H29        6.0695   18.8705   -4.8752 H         2 RES2    0.0000
     94 H30        6.5344   17.6161   -3.9982 H         2 RES2    0.0000
     95 H31        1.5937   13.2826    1.1724 H         2 RES2    0.0000
     96 H32       -0.6598   13.4260    1.7076 H         2 RES2    0.0000
     97 H33       -1.9810   11.4952    1.8065 H         2 RES2    0.0000
     98 H34       -0.9847    9.4151    1.3735 H         2 RES2    0.0000
     99 H35        1.2657    9.2596    0.8924 H         2 RES2    0.0000
    100 H36        3.4721   12.0435    0.3743 H         2 RES2    0.0000
    101 H37        3.6279   10.9367    1.5158 H         2 RES2    0.0000
    102 H38        3.8247    9.3916   -0.0758 H         2 RES2    0.0000
    103 H39        1.9719   13.0825   -4.5256 H         2 RES2    0.0000
    104 H40        6.2047    5.4005   -4.2410 H         2 RES2    0.0000
    105 H41        7.3281    4.3605   -5.9826 H         2 RES2    0.0000
    106 H42        7.2394    5.2387   -8.1434 H         2 RES2    0.0000
    107 H43        5.9742    7.1591   -8.5455 H         2 RES2    0.0000
    108 H44        4.8167    8.1883   -6.8101 H         2 RES2    0.0000
    109 H45        4.0647    6.8865   -3.7693 H         2 RES2    0.0000
    110 H46        5.3545    7.8016   -3.4863 H         2 RES2    0.0000
    111 H47        1.4959   13.5826   -1.8607 H         2 RES2    0.0000
    112 H48        0.9761   14.4945   -3.0671 H         2 RES2    0.0000
    113 H49        2.6891   15.5360   -1.7199 H         2 RES2    0.0000
    114 H50        3.7183   14.4353   -2.2597 H         2 RES2    0.0000
@<TRIPOS>BOND
     1    1    2 ar
     2    2   12 1
     3    3    4 1
     4    4   67 1
     5    5    6 ar
     6    6    7 ar
     7    7    8 ar
     8    8    9 ar
     9    9   10 ar
    10   10    5 ar
    11   11    5 1
    12   12   11 1
    13   13    2 ar
    14   14   15 1
    15   15   13 ar
    16   16   15 ar
    17   17   16 1
    18   18   17 2
    19   19    1 ar
    20   20   21 ar
    21   21   22 ar
    22   22   23 ar
    23   23   24 ar
    24   24   25 ar
    25   25   20 ar
    26   26   20 1
    27   27   19 1
    28   28   14 1
    29   29   28 1
    30   30   29 1
    31   31   30 2
    32   32    3 1
    33   33   34 ar
    34   34   44 1
    35   35   36 1
    36   36   92 1
    37   37   38 ar
    38   38   39 ar
    39   39   40 ar
    40   40   41 ar
    41   41   42 ar
    42   42   37 ar
    43   43   37 1
    44   44   43 1
    45   45   34 ar
    46   46   45 ar
    47   47   46 1
    48   48   46 ar
    49   49   48 1
    50   50   49 2
    51   51   33 ar
    52   52   53 ar
    53   53   54 ar
    54   54   55 ar
    55   55   56 ar
    56   56   57 ar
    57   57   52 ar
    58   58   52 1
    59   59   51 1
    60   60   47 1
    61   61   60 1
    62   62   61 1
    63   63   62 2
    64   64   35 1
    65   65    3 1
    66   66    3 1
    67   68    4 1
    68   69    4 1
    69   70    6 1
    70   71    7 1
    71   72    8 1
    72   73    9 1
    73   74   10 1
    74   75   11 1
    75   76   11 1
    76   77   12 1
    77   78   14 1
    78   79   21 1
    79   80   22 1
    80   81   23 1
    81   82   24 1
    82   83   25 1
    83   84   26 1
    84   85   26 1
    85   86   28 1
    86   87   28 1
    87   88   29 1
    88   89   29 1
    89   90   35 1
    90   91   35 1
    91   93   36 1
    92   94   36 1
    93   95   38 1
    94   96   39 1
    95   97   40 1
    96   98   41 1
    97   99   42 1
    98  100   43 1
    99  101   43 1
   100  102   44 1
   101  103   47 1
   102  104   53 1
   103  105   54 1
   104  106   55 1
   105  107   56 1
   106  108   57 1
   107  109   58 1
   108  110   58 1
   109  111   60 1
   110  112   60 1
   111  113   61 1
   112  114   61 1
   113   16   19 ar
   114   26   27 1
   115   30   32 1
   116   48   51 ar
   117   58   59 1
   118   62   64 1
@<TRIPOS>SUBSTRUCTURE
     1 RES1 1
     2 RES2 33

@<TRIPOS>CRYSIN
   8.6595   16.3567   16.9014 105.2210 104.6960 100.3720   2 1

