# MOL2 file generated by ConQuest
# Please check atom types

@<TRIPOS>MOLECULE
OFEXAY
    88    90     2
SMALL
NO_CHARGES
****
Generated from CSD

@<TRIPOS>ATOM
      1 N1         7.8831    0.1993    2.7323 N.ar      1 RES1    0.0000
      2 C1         5.0476   -0.2990   10.1077 C.3       1 RES1    0.0000
      3 C2         4.1985   -1.3355    9.5434 C.3       1 RES1    0.0000
      4 C3         8.9035    0.0947    3.6606 C.ar      1 RES1    0.0000
      5 N2        10.1214    0.1794    3.1721 N.3       1 RES1    0.0000
      6 N3         8.7729   -0.1013    4.9815 N.ar      1 RES1    0.0000
      7 N4         7.3613   -0.4983    6.7461 N.3       1 RES1    0.0000
      8 C4         7.5301   -0.2442    5.4511 C.ar      1 RES1    0.0000
      9 C5         6.3760   -0.1379    4.5958 C.ar      1 RES1    0.0000
     10 N5         5.0791   -0.2625    4.9341 N.2       1 RES1    0.0000
     11 O1         4.8016   -0.5239    6.1534 O.2       1 RES1    0.0000
     12 C6         6.6760    0.0847    3.2100 C.ar      1 RES1    0.0000
     13 C7         4.6053   -0.0465    0.2666 C.ar      1 RES1    0.0000
     14 C8         4.2937   -1.3388   -0.1096 C.ar      1 RES1    0.0000
     15 C9         3.0612   -1.6196   -0.6929 C.ar      1 RES1    0.0000
     16 C10        2.1599   -0.6163   -0.9270 C.ar      1 RES1    0.0000
     17 C11        2.4674    0.6910   -0.5670 C.ar      1 RES1    0.0000
     18 C12        3.7029    0.9751    0.0162 C.ar      1 RES1    0.0000
     19 C13        5.9083    0.2409    0.9541 C.3       1 RES1    0.0000
     20 O2         5.6236    0.1410    2.3856 O.3       1 RES1    0.0000
     21 C14        8.4396   -0.6129    7.7178 C.3       1 RES1    0.0000
     22 C15        8.4169    0.5149    8.7274 C.3       1 RES1    0.0000
     23 C16        7.2212    0.6129    9.6151 C.2       1 RES1    0.0000
     24 O3         7.0597    1.4468   10.4420 O.2       1 RES1    0.0000
     25 O4         6.3055   -0.3571    9.3539 O.3       1 RES1    0.0000
     26 N6        -0.6203    3.4966    4.0558 N.ar      2 RES2    0.0000
     27 C17        2.5828    4.9800   -2.9637 C.3       2 RES2    0.0000
     28 C18        3.0876    3.5847   -2.8947 C.3       2 RES2    0.0000
     29 C19       -1.6234    3.5647    3.1247 C.ar      2 RES2    0.0000
     30 N7        -2.8513    3.4983    3.6255 N.3       2 RES2    0.0000
     31 N8        -1.4957    3.6827    1.8026 N.ar      2 RES2    0.0000
     32 C20       -0.2495    3.7674    1.3168 C.ar      2 RES2    0.0000
     33 N9        -0.0603    3.8870    0.0162 N.3       2 RES2    0.0000
     34 C21        0.9040    3.7059    2.1937 C.ar      2 RES2    0.0000
     35 N10        2.2028    3.7425    1.8432 N.2       2 RES2    0.0000
     36 O5         2.4882    3.8778    0.6076 O.2       2 RES2    0.0000
     37 C22        0.5884    3.5597    3.5767 C.ar      2 RES2    0.0000
     38 C23        2.6744    3.4916    6.5337 C.ar      2 RES2    0.0000
     39 C24        3.4619    2.3654    6.6325 C.ar      2 RES2    0.0000
     40 C25        4.7184    2.4618    7.2130 C.ar      2 RES2    0.0000
     41 C26        5.2002    3.6544    7.6610 C.ar      2 RES2    0.0000
     42 C27        4.4130    4.7856    7.5798 C.ar      2 RES2    0.0000
     43 C28        3.1588    4.7109    6.9952 C.ar      2 RES2    0.0000
     44 C29        1.3521    3.4268    5.8422 C.3       2 RES2    0.0000
     45 O6         1.6306    3.5182    4.4178 O.3       2 RES2    0.0000
     46 C30       -1.1204    3.9484   -0.9947 C.3       2 RES2    0.0000
     47 C31       -0.9906    5.1610   -1.8960 C.3       2 RES2    0.0000
     48 C32        0.1830    5.1212   -2.8243 C.2       2 RES2    0.0000
     49 O7         0.1126    5.2225   -4.0152 O.2       2 RES2    0.0000
     50 O8         1.3389    5.0780   -2.1747 O.3       2 RES2    0.0000
     51 H1         5.2102   -0.4668   11.0699 H         1 RES1    0.0000
     52 H2         4.6237    0.5914   10.0089 H         1 RES1    0.0000
     53 H3         3.9916   -1.1179    8.6110 H         1 RES1    0.0000
     54 H4         3.3660   -1.3920   10.0576 H         1 RES1    0.0000
     55 H5         4.6644   -2.1976    9.5826 H         1 RES1    0.0000
     56 H6        10.8156    0.1063    3.7080 H         1 RES1    0.0000
     57 H7        10.2427    0.3090    2.3101 H         1 RES1    0.0000
     58 H8         6.5370   -0.6030    7.0371 H         1 RES1    0.0000
     59 H9         4.9215   -2.0365    0.0298 H         1 RES1    0.0000
     60 H10        2.8446   -2.5132   -0.9297 H         1 RES1    0.0000
     61 H11        1.3245   -0.8123   -1.3357 H         1 RES1    0.0000
     62 H12        1.8392    1.3870   -0.7172 H         1 RES1    0.0000
     63 H13        3.9250    1.8704    0.2436 H         1 RES1    0.0000
     64 H14        6.5964   -0.4203    0.6888 H         1 RES1    0.0000
     65 H15        6.2318    1.1478    0.7254 H         1 RES1    0.0000
     66 H16        9.3077   -0.6080    7.2428 H         1 RES1    0.0000
     67 H17        8.3580   -1.4784    8.1928 H         1 RES1    0.0000
     68 H18        9.2178    0.4269    9.3025 H         1 RES1    0.0000
     69 H19        8.5020    1.3687    8.2348 H         1 RES1    0.0000
     70 H20        3.2615    5.6029   -2.6010 H         2 RES2    0.0000
     71 H21        2.4047    5.2275   -3.9056 H         2 RES2    0.0000
     72 H22        3.2285    3.3338   -1.9582 H         2 RES2    0.0000
     73 H23        3.9358    3.5199   -3.3819 H         2 RES2    0.0000
     74 H24        2.4317    2.9800   -3.2993 H         2 RES2    0.0000
     75 H25       -3.5478    3.5315    3.0882 H         2 RES2    0.0000
     76 H26       -2.9683    3.4202    4.4943 H         2 RES2    0.0000
     77 H27        0.7720    3.9318   -0.2680 H         2 RES2    0.0000
     78 H28        3.1467    1.5299    6.3077 H         2 RES2    0.0000
     79 H29        5.2534    1.6810    7.2983 H         2 RES2    0.0000
     80 H30        6.0741    3.7076    8.0291 H         2 RES2    0.0000
     81 H31        4.7308    5.6129    7.9222 H         2 RES2    0.0000
     82 H32        2.6291    5.4949    6.9085 H         2 RES2    0.0000
     83 H33        0.8937    2.5747    6.0506 H         2 RES2    0.0000
     84 H34        0.7726    4.1760    6.1304 H         2 RES2    0.0000
     85 H35       -1.9999    3.9734   -0.5413 H         2 RES2    0.0000
     86 H36       -1.0890    3.1279   -1.5482 H         2 RES2    0.0000
     87 H37       -1.8172    5.2458   -2.4346 H         2 RES2    0.0000
     88 H38       -0.9183    5.9700   -1.3289 H         2 RES2    0.0000
@<TRIPOS>BOND
     1    1    4 ar
     2    2    3 1
     3    3   53 1
     4    4    5 1
     5    5   56 1
     6    6    4 ar
     7    7    8 1
     8    8    6 ar
     9    9    8 ar
    10   10    9 1
    11   11   10 2
    12   12    1 ar
    13   13   14 ar
    14   14   15 ar
    15   15   16 ar
    16   16   17 ar
    17   17   18 ar
    18   18   13 ar
    19   19   13 1
    20   20   12 1
    21   21    7 1
    22   22   21 1
    23   23   22 1
    24   24   23 2
    25   25    2 1
    26   26   29 ar
    27   27   28 1
    28   28   72 1
    29   29   30 1
    30   30   75 1
    31   31   29 ar
    32   32   31 ar
    33   33   32 1
    34   34   32 ar
    35   35   34 1
    36   36   35 2
    37   37   26 ar
    38   38   39 ar
    39   39   40 ar
    40   40   41 ar
    41   41   42 ar
    42   42   43 ar
    43   43   38 ar
    44   44   38 1
    45   45   37 1
    46   46   33 1
    47   47   46 1
    48   48   47 1
    49   49   48 2
    50   50   27 1
    51   51    2 1
    52   52    2 1
    53   54    3 1
    54   55    3 1
    55   57    5 1
    56   58    7 1
    57   59   14 1
    58   60   15 1
    59   61   16 1
    60   62   17 1
    61   63   18 1
    62   64   19 1
    63   65   19 1
    64   66   21 1
    65   67   21 1
    66   68   22 1
    67   69   22 1
    68   70   27 1
    69   71   27 1
    70   73   28 1
    71   74   28 1
    72   76   30 1
    73   77   33 1
    74   78   39 1
    75   79   40 1
    76   80   41 1
    77   81   42 1
    78   82   43 1
    79   83   44 1
    80   84   44 1
    81   85   46 1
    82   86   46 1
    83   87   47 1
    84   88   47 1
    85    9   12 ar
    86   19   20 1
    87   23   25 1
    88   34   37 ar
    89   44   45 1
    90   48   50 1
@<TRIPOS>SUBSTRUCTURE
     1 RES1 1
     2 RES2 26

@<TRIPOS>CRYSIN
   7.4830   16.6110   13.5378  90.0000  91.5420  90.0000   4 1

