# MOL2 file generated by ConQuest
# Please check atom types

@<TRIPOS>MOLECULE
OFEXAY01
    44    45     1
SMALL
NO_CHARGES
****
Generated from CSD

@<TRIPOS>ATOM
      1 N1         4.4294   12.9887    2.3640 N.ar      1 RES1    0.0000
      2 C1         4.2773   14.0483    3.2150 C.ar      1 RES1    0.0000
      3 N2         5.1514   14.0389    4.2105 N.3       1 RES1    0.0000
      4 N3         3.3762   15.0548    3.1880 N.ar      1 RES1    0.0000
      5 C2         2.5229   14.9863    2.1501 C.ar      1 RES1    0.0000
      6 N4         1.6408   15.9461    2.0344 N.3       1 RES1    0.0000
      7 C3         2.5408   13.9080    1.2143 C.ar      1 RES1    0.0000
      8 N5         1.7063   13.7273    0.1446 N.2       1 RES1    0.0000
      9 O1         0.7966   14.5905   -0.0212 O.2       1 RES1    0.0000
     10 C4         3.5586   12.9825    1.3762 C.ar      1 RES1    0.0000
     11 O2         3.6052   11.9697    0.4915 O.3       1 RES1    0.0000
     12 C5         4.6404   10.9787    0.5888 C.3       1 RES1    0.0000
     13 C6         4.4056    9.9753   -0.5175 C.ar      1 RES1    0.0000
     14 C7         3.3707   10.1030   -1.4061 C.ar      1 RES1    0.0000
     15 C8         3.2610    9.1619   -2.3977 C.ar      1 RES1    0.0000
     16 C9         4.1507    8.1180   -2.5375 C.ar      1 RES1    0.0000
     17 C10        5.1484    7.9964   -1.6171 C.ar      1 RES1    0.0000
     18 C11        5.3007    8.9375   -0.6293 C.ar      1 RES1    0.0000
     19 C12        1.5006   17.0742    2.9567 C.3       1 RES1    0.0000
     20 C13        0.3165   17.9250    2.5712 C.3       1 RES1    0.0000
     21 C14       -0.0241   19.0624    3.5002 C.2       1 RES1    0.0000
     22 O3        -1.0083   19.7262    3.3875 O.2       1 RES1    0.0000
     23 O4         0.9251   19.2550    4.4370 O.3       1 RES1    0.0000
     24 C15        0.6990   20.4118    5.3005 C.3       1 RES1    0.0000
     25 C16        1.8917   20.5333    6.1765 C.3       1 RES1    0.0000
     26 H1         5.1299   14.6715    4.8225 H         1 RES1    0.0000
     27 H2         5.7529   13.3970    4.2606 H         1 RES1    0.0000
     28 H3         1.0897   15.9118    1.3492 H         1 RES1    0.0000
     29 H4         4.6043   10.5300    1.4706 H         1 RES1    0.0000
     30 H5         5.5303   11.3994    0.4857 H         1 RES1    0.0000
     31 H6         2.7513   10.8198   -1.3386 H         1 RES1    0.0000
     32 H7         2.5385    9.2305   -3.0126 H         1 RES1    0.0000
     33 H8         4.0698    7.5009   -3.2555 H         1 RES1    0.0000
     34 H9         5.7397    7.2516   -1.6595 H         1 RES1    0.0000
     35 H10        6.0304    8.8721   -0.0222 H         1 RES1    0.0000
     36 H11        2.3236   17.6227    2.9374 H         1 RES1    0.0000
     37 H12        1.3786   16.7345    3.8790 H         1 RES1    0.0000
     38 H13        0.4874   18.3020    1.6711 H         1 RES1    0.0000
     39 H14       -0.4764   17.3360    2.4989 H         1 RES1    0.0000
     40 H15       -0.1169   20.2809    5.8450 H         1 RES1    0.0000
     41 H16        0.5873   21.2314    4.7560 H         1 RES1    0.0000
     42 H17        1.9776   19.7231    6.7239 H         1 RES1    0.0000
     43 H18        1.7909   21.3124    6.7596 H         1 RES1    0.0000
     44 H19        2.6939   20.6393    5.6233 H         1 RES1    0.0000
@<TRIPOS>BOND
     1    1    2 ar
     2    2    3 1
     3    3   26 1
     4    4    2 ar
     5    5    4 ar
     6    6    5 1
     7    7    5 ar
     8    8    7 1
     9    9    8 2
    10   10    1 ar
    11   11   10 1
    12   12   11 1
    13   13   12 1
    14   14   13 ar
    15   15   14 ar
    16   16   15 ar
    17   17   16 ar
    18   18   13 ar
    19   19    6 1
    20   20   19 1
    21   21   20 1
    22   22   21 2
    23   23   21 1
    24   24   23 1
    25   25   24 1
    26   27    3 1
    27   28    6 1
    28   29   12 1
    29   30   12 1
    30   31   14 1
    31   32   15 1
    32   33   16 1
    33   34   17 1
    34   35   18 1
    35   36   19 1
    36   37   19 1
    37   38   20 1
    38   39   20 1
    39   40   24 1
    40   41   24 1
    41   42   25 1
    42   43   25 1
    43   44   25 1
    44    7   10 ar
    45   17   18 ar
@<TRIPOS>SUBSTRUCTURE
     1 RES1 1

@<TRIPOS>CRYSIN
   5.2399   31.1630    9.7920  90.0000 100.2000  90.0000  14 1

