# MOL2 file generated by ConQuest
# Please check atom types

@<TRIPOS>MOLECULE
OFEZIK
    38    39     1
SMALL
NO_CHARGES
****
Generated from CSD

@<TRIPOS>ATOM
      1 N1        -0.2258    2.7916   -1.4623 N.pl3     1 RES1    0.0000
      2 O1         4.4264    6.9631    5.2020 O.2       1 RES1    0.0000
      3 O2         3.0354    5.2776    5.5605 O.3       1 RES1    0.0000
      4 O3         4.8788    4.5804    3.0401 O.2       1 RES1    0.0000
      5 O4         5.5480    5.5520    1.1540 O.3       1 RES1    0.0000
      6 O5        -0.8943    3.1157   -2.4336 O.2       1 RES1    0.0000
      7 O6        -0.2221    1.6635   -0.9891 O.2       1 RES1    0.0000
      8 C1         3.7861    6.6008    2.3151 C.3       1 RES1    0.0000
      9 C2         4.5066    7.9332    2.4089 C.2       1 RES1    0.0000
     10 H1         5.0991    8.1723    3.0851 H         1 RES1    0.0000
     11 C3         4.1716    8.7030    1.3914 C.2       1 RES1    0.0000
     12 H2         4.4759    9.5716    1.2550 H         1 RES1    0.0000
     13 C4         3.2602    7.9946    0.5220 C.2       1 RES1    0.0000
     14 H3         2.8936    8.3410   -0.2588 H         1 RES1    0.0000
     15 C5         3.0180    6.7627    1.0042 C.2       1 RES1    0.0000
     16 C6         2.2010    5.7243    0.3783 C.ar      1 RES1    0.0000
     17 C7         1.4625    6.0123   -0.7750 C.ar      1 RES1    0.0000
     18 H4         1.5001    6.8682   -1.1362 H         1 RES1    0.0000
     19 C8         0.6845    5.0630   -1.3843 C.ar      1 RES1    0.0000
     20 H5         0.1996    5.2698   -2.1510 H         1 RES1    0.0000
     21 C9         0.6344    3.8002   -0.8441 C.ar      1 RES1    0.0000
     22 C10        1.3703    3.4535    0.2617 C.ar      1 RES1    0.0000
     23 H6         1.3458    2.5854    0.5947 H         1 RES1    0.0000
     24 C11        2.1459    4.4189    0.8679 C.ar      1 RES1    0.0000
     25 H7         2.6436    4.1953    1.6210 H         1 RES1    0.0000
     26 C12        2.8312    6.3982    3.5085 C.3       1 RES1    0.0000
     27 H8         2.2247    7.1536    3.5557 H         1 RES1    0.0000
     28 H9         2.2994    5.6021    3.3527 H         1 RES1    0.0000
     29 C13        3.5374    6.2599    4.8278 C.2       1 RES1    0.0000
     30 C14        3.6832    5.0601    6.8296 C.3       1 RES1    0.0000
     31 H10        4.6107    4.8562    6.6842 H         1 RES1    0.0000
     32 H11        3.2615    4.3259    7.2824 H         1 RES1    0.0000
     33 H12        3.6098    5.8521    7.3658 H         1 RES1    0.0000
     34 C15        4.7930    5.4555    2.2353 C.2       1 RES1    0.0000
     35 C16        6.5173    4.5052    0.9456 C.3       1 RES1    0.0000
     36 H13        7.0202    4.3691    1.7521 H         1 RES1    0.0000
     37 H14        7.1135    4.7572    0.2357 H         1 RES1    0.0000
     38 H15        6.0644    3.6916    0.7099 H         1 RES1    0.0000
@<TRIPOS>BOND
     1    1    6 2
     2    2   29 2
     3    3   29 1
     4    4   34 2
     5    5   34 1
     6    7    1 2
     7    8    9 1
     8    9   10 1
     9   11    9 2
    10   12   11 1
    11   13   11 1
    12   14   13 1
    13   15    8 1
    14   16   15 1
    15   17   16 ar
    16   18   17 1
    17   19   17 ar
    18   20   19 1
    19   21    1 1
    20   22   21 ar
    21   23   22 1
    22   24   16 ar
    23   25   24 1
    24   26    8 1
    25   27   26 1
    26   28   26 1
    27   29   26 1
    28   30    3 1
    29   31   30 1
    30   32   30 1
    31   33   30 1
    32   34    8 1
    33   35    5 1
    34   36   35 1
    35   37   35 1
    36   38   35 1
    37   13   15 2
    38   19   21 ar
    39   22   24 ar
@<TRIPOS>SUBSTRUCTURE
     1 RES1 1

@<TRIPOS>CRYSIN
  13.5543   12.6860    8.9203  90.0000  96.5170  90.0000  14 1

