# MOL2 file generated by ConQuest
# Please check atom types

@<TRIPOS>MOLECULE
OFIHUG
    62    68     2
SMALL
NO_CHARGES
****
Generated from CSD

@<TRIPOS>ATOM
      1 O1       -11.4288   -9.2528   14.0237 O.2       1 RES1    0.0000
      2 N1       -11.0480  -10.2374   13.4639 N.pl3     1 RES1    0.0000
      3 C1        -8.8261   -9.8943   14.4040 C.ar      1 RES1    0.0000
      4 O2       -11.7647  -10.9503   12.7649 O.2       1 RES1    0.0000
      5 N2        -7.3875  -13.3757   12.5464 N.pl3     1 RES1    0.0000
      6 C2        -9.6219  -10.6583   13.6014 C.ar      1 RES1    0.0000
      7 C3        -9.1854  -11.7847   12.9671 C.ar      1 RES1    0.0000
      8 O3        -8.1155  -13.9426   11.7908 O.2       1 RES1    0.0000
      9 O4        -6.2220  -13.6804   12.7697 O.2       1 RES1    0.0000
     10 C4        -7.8896  -12.1534   13.1969 C.ar      1 RES1    0.0000
     11 O5        -7.0320   -8.5079   16.1353 O.2       1 RES1    0.0000
     12 C5        -7.0282  -11.4224   13.9833 C.ar      1 RES1    0.0000
     13 O6        -5.3962   -9.8868   15.5107 O.3       1 RES1    0.0000
     14 C6        -7.5043  -10.2726   14.6176 C.ar      1 RES1    0.0000
     15 O7        -3.5242   -7.0235   15.7130 O.3       1 RES1    0.0000
     16 C7        -6.6496   -9.4563   15.5124 C.2       1 RES1    0.0000
     17 O8        -3.6860   -8.5260   14.0173 O.3       1 RES1    0.0000
     18 C8        -4.4006   -9.2155   16.2987 C.3       1 RES1    0.0000
     19 C9        -3.5040  -10.2310   17.0139 C.3       1 RES1    0.0000
     20 C10       -4.2520  -11.4096   17.6304 C.3       1 RES1    0.0000
     21 C11       -2.7625   -9.4062   18.0754 C.3       1 RES1    0.0000
     22 C12       -1.7593   -8.5782   17.2437 C.3       1 RES1    0.0000
     23 C13       -2.0712   -9.0237   15.8036 C.3       1 RES1    0.0000
     24 C14       -2.4095  -10.5273   15.9735 C.3       1 RES1    0.0000
     25 C15       -1.2230  -11.3126   16.5592 C.3       1 RES1    0.0000
     26 C16       -2.8557  -11.2625   14.6742 C.3       1 RES1    0.0000
     27 C17       -3.4063   -8.4173   15.4185 C.3       1 RES1    0.0000
     28 C18       -3.2135   -6.3277   14.4736 C.3       1 RES1    0.0000
     29 C19       -3.6607   -4.8976   14.5998 C.3       1 RES1    0.0000
     30 C20       -3.9269   -7.2260   13.4590 C.3       1 RES1    0.0000
     31 C21       -5.3821   -6.9574   13.2131 C.3       1 RES1    0.0000
     32 N3        -4.3539    0.5744   10.8734 N.pl3     2 RES2    0.0000
     33 C22       -2.1630    0.7577    9.8621 C.ar      2 RES2    0.0000
     34 O9        -4.6824    1.5782   10.3378 O.2       2 RES2    0.0000
     35 N4        -0.9319   -2.8484   11.6047 N.pl3     2 RES2    0.0000
     36 O10       -5.0704   -0.0970   11.5999 O.2       2 RES2    0.0000
     37 C23       -2.9922    0.0426   10.6468 C.ar      2 RES2    0.0000
     38 O11       -1.7201   -3.4761   12.2390 O.2       2 RES2    0.0000
     39 C24       -2.6234   -1.1253   11.2488 C.ar      2 RES2    0.0000
     40 O12        0.2215   -3.1894   11.4688 O.2       2 RES2    0.0000
     41 C25       -1.3754   -1.5824   10.9705 C.ar      2 RES2    0.0000
     42 O13       -0.2567    2.0939    8.2117 O.2       2 RES2    0.0000
     43 C26       -0.4646   -0.8877   10.1970 C.ar      2 RES2    0.0000
     44 O14        1.2715    0.5488    8.7909 O.3       2 RES2    0.0000
     45 C27       -0.8678    0.2941    9.6372 C.ar      2 RES2    0.0000
     46 O15        2.5580    1.9906   10.5125 O.3       2 RES2    0.0000
     47 C28        0.0632    1.0965    8.7780 C.2       2 RES2    0.0000
     48 O16        2.9973    3.4761    8.8637 O.3       2 RES2    0.0000
     49 C29        2.3624    1.2329    8.1696 C.3       2 RES2    0.0000
     50 C30        3.4300    0.2387    7.6550 C.3       2 RES2    0.0000
     51 C31        2.9742   -0.4699    6.4286 C.3       2 RES2    0.0000
     52 C32        3.7331   -0.6937    8.8023 C.3       2 RES2    0.0000
     53 C33        4.5126    0.1524    9.7812 C.3       2 RES2    0.0000
     54 C34        4.5448    1.5782    9.1032 C.3       2 RES2    0.0000
     55 C35        4.6756    1.1519    7.6550 C.3       2 RES2    0.0000
     56 C36        4.5847    2.3241    6.7020 C.3       2 RES2    0.0000
     57 C37        5.9648    0.3836    7.3654 C.3       2 RES2    0.0000
     58 C38        3.0917    2.0854    9.2084 C.3       2 RES2    0.0000
     59 C39        2.3195    3.3151   11.0141 C.3       2 RES2    0.0000
     60 C40        0.8118    3.5656   11.1064 C.3       2 RES2    0.0000
     61 C41        3.0877    4.1943   10.0741 C.3       2 RES2    0.0000
     62 C42        2.5778    5.6137    9.8702 C.3       2 RES2    0.0000
@<TRIPOS>BOND
     1    1    2 2
     2    2    4 2
     3    3    6 ar
     4    5    8 2
     5    6    2 1
     6    7    6 ar
     7    9    5 2
     8   10    5 1
     9   11   16 2
    10   12   10 ar
    11   13   16 1
    12   14    3 ar
    13   15   27 1
    14   16   14 1
    15   17   27 1
    16   18   13 1
    17   19   18 1
    18   20   19 1
    19   21   19 1
    20   22   21 1
    21   23   22 1
    22   24   19 1
    23   25   24 1
    24   26   24 1
    25   27   18 1
    26   28   15 1
    27   29   28 1
    28   30   17 1
    29   31   30 1
    30   32   34 2
    31   33   37 ar
    32   35   38 2
    33   36   32 2
    34   37   32 1
    35   39   37 ar
    36   40   35 2
    37   41   35 1
    38   42   47 2
    39   43   41 ar
    40   44   47 1
    41   45   33 ar
    42   46   58 1
    43   47   45 1
    44   48   58 1
    45   49   44 1
    46   50   49 1
    47   51   50 1
    48   52   50 1
    49   53   52 1
    50   54   53 1
    51   55   50 1
    52   56   55 1
    53   57   55 1
    54   58   49 1
    55   59   46 1
    56   60   59 1
    57   61   48 1
    58   62   61 1
    59    7   10 ar
    60   12   14 ar
    61   23   24 1
    62   23   27 1
    63   28   30 1
    64   39   41 ar
    65   43   45 ar
    66   54   55 1
    67   54   58 1
    68   59   61 1
@<TRIPOS>SUBSTRUCTURE
     1 RES1 1
     2 RES2 32

@<TRIPOS>CRYSIN
  12.7892   10.6562   16.1864  90.0000  91.5320  90.0000   4 1

