# MOL2 file generated by ConQuest
# Please check atom types

@<TRIPOS>MOLECULE
OFIJOF
    64    66     1
SMALL
NO_CHARGES
****
Generated from CSD

@<TRIPOS>ATOM
      1 O1         0.7861   14.6027   -0.5779 O.2       1 RES1    0.0000
      2 O2         2.3200   15.3159   -1.9187 O.2       1 RES1    0.0000
      3 O3         5.9658    7.2461    5.5785 O.2       1 RES1    0.0000
      4 O4         6.3954    6.2316    7.4355 O.2       1 RES1    0.0000
      5 O5         2.2036   14.0672    6.9388 O.2       1 RES1    0.0000
      6 O6         2.9736   14.9172    8.7731 O.2       1 RES1    0.0000
      7 N1         1.3820   11.2889    4.5197 N.3       1 RES1    0.0000
      8 N2         1.3515   13.9856    1.9062 N.3       1 RES1    0.0000
      9 N3         1.9610   14.9564   -0.7991 N.pl3     1 RES1    0.0000
     10 N4         4.4090    9.3614    5.5470 N.3       1 RES1    0.0000
     11 N5         5.8836    7.1631    6.8173 N.pl3     1 RES1    0.0000
     12 N6         0.5209   12.0443    6.9996 N.3       1 RES1    0.0000
     13 N7         2.2758   14.0909    8.1795 N.pl3     1 RES1    0.0000
     14 C1         1.5288   11.8599    3.1830 C.3       1 RES1    0.0000
     15 C2         1.0356   13.3056    3.1556 C.3       1 RES1    0.0000
     16 C3         2.5867   14.4237    1.5667 C.ar      1 RES1    0.0000
     17 C4         2.9155   14.9383    0.2787 C.ar      1 RES1    0.0000
     18 C5         4.2041   15.3972   -0.0241 C.ar      1 RES1    0.0000
     19 C6         5.2046   15.3471    0.9063 C.ar      1 RES1    0.0000
     20 C7         4.9092   14.8433    2.1770 C.ar      1 RES1    0.0000
     21 C8         3.6544   14.4017    2.5026 C.ar      1 RES1    0.0000
     22 C9         2.2075   10.0978    4.6978 C.3       1 RES1    0.0000
     23 C10        3.6936   10.4330    4.8675 C.3       1 RES1    0.0000
     24 C11        4.4184    9.1911    6.8924 C.ar      1 RES1    0.0000
     25 C12        5.1564    8.1726    7.5543 C.ar      1 RES1    0.0000
     26 C13        5.2052    8.0854    8.9484 C.ar      1 RES1    0.0000
     27 C14        4.5152    8.9756    9.7290 C.ar      1 RES1    0.0000
     28 C15        3.7379    9.9572    9.1024 C.ar      1 RES1    0.0000
     29 C16        3.6882   10.0617    7.7370 C.ar      1 RES1    0.0000
     30 C17       -0.0178   11.0308    4.8754 C.3       1 RES1    0.0000
     31 C18       -0.1844   10.9300    6.3874 C.3       1 RES1    0.0000
     32 C19        0.6788   12.1729    8.3334 C.ar      1 RES1    0.0000
     33 C20        1.5244   13.1320    8.9526 C.ar      1 RES1    0.0000
     34 C21        1.6419   13.2115   10.3454 C.ar      1 RES1    0.0000
     35 C22        0.9400   12.3597   11.1584 C.ar      1 RES1    0.0000
     36 C23        0.0984   11.4111   10.5726 C.ar      1 RES1    0.0000
     37 C24       -0.0323   11.3160    9.2132 C.ar      1 RES1    0.0000
     38 H1         0.7802   13.9208    1.2383 H         1 RES1    0.0000
     39 H2         4.9085    8.8062    5.1064 H         1 RES1    0.0000
     40 H3         1.0529   12.4762    6.4977 H         1 RES1    0.0000
     41 H4         1.0673   11.3320    2.4906 H         1 RES1    0.0000
     42 H5         2.4800   11.8484    2.9544 H         1 RES1    0.0000
     43 H6         0.0379   13.3440    3.2326 H         1 RES1    0.0000
     44 H7         1.4415   13.7907    3.9330 H         1 RES1    0.0000
     45 H8         4.3328   15.7384   -0.9090 H         1 RES1    0.0000
     46 H9         6.0902   15.6338    0.6818 H         1 RES1    0.0000
     47 H10        5.6054   14.7833    2.8523 H         1 RES1    0.0000
     48 H11        3.4920   14.0362    3.3671 H         1 RES1    0.0000
     49 H12        2.0960    9.4755    3.9608 H         1 RES1    0.0000
     50 H13        1.9089    9.6553    5.5099 H         1 RES1    0.0000
     51 H14        4.1465   10.5392    3.9933 H         1 RES1    0.0000
     52 H15        3.7950   11.2689    5.3939 H         1 RES1    0.0000
     53 H16        5.7418    7.3870    9.3408 H         1 RES1    0.0000
     54 H17        4.5449    8.9108   10.6904 H         1 RES1    0.0000
     55 H18        3.2155   10.5781    9.6330 H         1 RES1    0.0000
     56 H19        3.1656   10.7297    7.3558 H         1 RES1    0.0000
     57 H20       -0.3681   10.1838    4.4571 H         1 RES1    0.0000
     58 H21       -0.5719   11.7773    4.5544 H         1 RES1    0.0000
     59 H22        0.1621   10.0443    6.7389 H         1 RES1    0.0000
     60 H23       -1.1453   10.9792    6.5998 H         1 RES1    0.0000
     61 H24        2.2194   13.8860   10.7043 H         1 RES1    0.0000
     62 H25        1.0150   12.4078   12.1467 H         1 RES1    0.0000
     63 H26       -0.4090   10.8008   11.1403 H         1 RES1    0.0000
     64 H27       -0.6174   10.6613    8.8492 H         1 RES1    0.0000
@<TRIPOS>BOND
     1    1    9 2
     2    2    9 2
     3    3   11 2
     4    4   11 2
     5    5   13 2
     6    6   13 2
     7    7   14 1
     8    8   15 1
     9    9   17 1
    10   10   23 1
    11   11   25 1
    12   12   31 1
    13   13   33 1
    14   14   15 1
    15   15   43 1
    16   16    8 1
    17   17   16 ar
    18   18   17 ar
    19   19   18 ar
    20   20   19 ar
    21   21   16 ar
    22   22    7 1
    23   23   22 1
    24   24   10 1
    25   25   24 ar
    26   26   25 ar
    27   27   26 ar
    28   28   27 ar
    29   29   24 ar
    30   30    7 1
    31   31   30 1
    32   32   12 1
    33   33   32 ar
    34   34   33 ar
    35   35   34 ar
    36   36   35 ar
    37   37   32 ar
    38   38    8 1
    39   39   10 1
    40   40   12 1
    41   41   14 1
    42   42   14 1
    43   44   15 1
    44   45   18 1
    45   46   19 1
    46   47   20 1
    47   48   21 1
    48   49   22 1
    49   50   22 1
    50   51   23 1
    51   52   23 1
    52   53   26 1
    53   54   27 1
    54   55   28 1
    55   56   29 1
    56   57   30 1
    57   58   30 1
    58   59   31 1
    59   60   31 1
    60   61   34 1
    61   62   35 1
    62   63   36 1
    63   64   37 1
    64   20   21 ar
    65   28   29 ar
    66   36   37 ar
@<TRIPOS>SUBSTRUCTURE
     1 RES1 1

@<TRIPOS>CRYSIN
   7.5749   13.4138   46.3793  90.0000  90.0000  90.0000  61 1

