# MOL2 file generated by ConQuest
# Please check atom types

@<TRIPOS>MOLECULE
OFIJIZ
    84    86     2
SMALL
NO_CHARGES
****
Generated from CSD

@<TRIPOS>ATOM
      1 O1         4.0930    3.0588    1.0083 O.2       1 RES1    0.0000
      2 O2         3.9812    1.6591    2.6499 O.2       1 RES1    0.0000
      3 N1         4.3775    5.6322    1.4553 N.3       1 RES1    0.0000
      4 N2         4.0559    2.8235    2.2300 N.pl3     1 RES1    0.0000
      5 C1         4.7019    6.9835    1.0072 C.3       1 RES1    0.0000
      6 H1         5.3036    6.9267    0.2231 H         1 RES1    0.0000
      7 H2         5.1903    7.4533    1.7291 H         1 RES1    0.0000
      8 C2         3.4684    7.8009    0.6286 C.3       1 RES1    0.0000
      9 H3         2.8241    7.7802    1.3798 H         1 RES1    0.0000
     10 H4         3.7370    8.7433    0.4860 H         1 RES1    0.0000
     11 C3         4.2292    5.2599    2.7401 C.ar      1 RES1    0.0000
     12 C4         4.0910    3.9037    3.1637 C.ar      1 RES1    0.0000
     13 C5         3.9925    3.5611    4.5214 C.ar      1 RES1    0.0000
     14 H5         3.9082    2.6476    4.7689 H         1 RES1    0.0000
     15 C6         4.0150    4.5232    5.4933 C.ar      1 RES1    0.0000
     16 H6         3.9545    4.2847    6.4108 H         1 RES1    0.0000
     17 C7         4.1299    5.8697    5.1117 C.ar      1 RES1    0.0000
     18 H7         4.1469    6.5450    5.7796 H         1 RES1    0.0000
     19 C8         4.2184    6.2255    3.7901 C.ar      1 RES1    0.0000
     20 H8         4.2738    7.1467    3.5660 H         1 RES1    0.0000
     21 H9         4.4355    4.9771    0.8703 H         1 RES1    0.0000
     22 O3         7.4323    3.3039    6.5109 O.2       2 RES2    0.0000
     23 O4         7.4838    1.6217    5.1571 O.2       2 RES2    0.0000
     24 N3         7.5065    5.7588    5.5924 N.3       2 RES2    0.0000
     25 N4         7.4551    2.8425    5.3516 N.pl3     2 RES2    0.0000
     26 C9         7.5615    7.2031    5.7900 C.3       2 RES2    0.0000
     27 H10        6.6925    7.6093    5.5460 H         2 RES2    0.0000
     28 H11        8.2616    7.5952    5.2103 H         2 RES2    0.0000
     29 C10        7.8753    7.4927    7.2450 C.3       2 RES2    0.0000
     30 H12        8.7791    7.1492    7.4580 H         2 RES2    0.0000
     31 H13        7.2253    7.0166    7.8197 H         2 RES2    0.0000
     32 C11        7.4924    5.1481    4.3934 C.ar      2 RES2    0.0000
     33 C12        7.4527    3.7319    4.2292 C.ar      2 RES2    0.0000
     34 C13        7.4296    3.1410    2.9538 C.ar      2 RES2    0.0000
     35 H14        7.3963    2.1946    2.8744 H         2 RES2    0.0000
     36 C14        7.4538    3.9155    1.8258 C.ar      2 RES2    0.0000
     37 H15        7.4343    3.5143    0.9648 H         2 RES2    0.0000
     38 C15        7.5068    5.3092    1.9599 C.ar      2 RES2    0.0000
     39 H16        7.5326    5.8515    1.1802 H         2 RES2    0.0000
     40 C16        7.5234    5.9060    3.1937 C.ar      2 RES2    0.0000
     41 H17        7.5569    6.8539    3.2475 H         2 RES2    0.0000
     42 H18        7.3914    5.2595    6.2625 H         2 RES2    0.0000
     43 O1A        2.1591   12.0261   -1.0083 O.2       1 RES1    0.0000
     44 O2A        2.2709   13.4258   -2.6499 O.2       1 RES1    0.0000
     45 N1A        1.8746    9.4527   -1.4553 N.3       1 RES1    0.0000
     46 N2A        2.1962   12.2614   -2.2300 N.pl3     1 RES1    0.0000
     47 C1A        1.5502    8.1014   -1.0072 C.3       1 RES1    0.0000
     48 H1A        0.9485    8.1582   -0.2231 H         1 RES1    0.0000
     49 H2A        1.0618    7.6316   -1.7291 H         1 RES1    0.0000
     50 C2A        2.7837    7.2840   -0.6286 C.3       1 RES1    0.0000
     51 H3A        3.4280    7.3047   -1.3798 H         1 RES1    0.0000
     52 H4A        2.5151    6.3416   -0.4860 H         1 RES1    0.0000
     53 C3A        2.0229    9.8250   -2.7401 C.ar      1 RES1    0.0000
     54 C4A        2.1611   11.1812   -3.1637 C.ar      1 RES1    0.0000
     55 C5A        2.2596   11.5238   -4.5214 C.ar      1 RES1    0.0000
     56 H5A        2.3438   12.4373   -4.7689 H         1 RES1    0.0000
     57 C6A        2.2370   10.5617   -5.4933 C.ar      1 RES1    0.0000
     58 H6A        2.2976   10.8002   -6.4108 H         1 RES1    0.0000
     59 C7A        2.1221    9.2152   -5.1117 C.ar      1 RES1    0.0000
     60 H7A        2.1052    8.5399   -5.7796 H         1 RES1    0.0000
     61 C8A        2.0337    8.8594   -3.7901 C.ar      1 RES1    0.0000
     62 H8A        1.9783    7.9382   -3.5660 H         1 RES1    0.0000
     63 H9A        1.8166   10.1078   -0.8703 H         1 RES1    0.0000
     64 O3A        8.2637   13.1771    8.2906 O.2       2 RES2    0.0000
     65 O4A        8.2122   14.8594    9.6444 O.2       2 RES2    0.0000
     66 N3A        8.1895   10.7223    9.2090 N.3       2 RES2    0.0000
     67 N4A        8.2409   13.6386    9.4499 N.pl3     2 RES2    0.0000
     68 C9A        8.1345    9.2779    9.0114 C.3       2 RES2    0.0000
     69 H10A       9.0035    8.8717    9.2554 H         2 RES2    0.0000
     70 H11A       7.4344    8.8859    9.5912 H         2 RES2    0.0000
     71 C10A       7.8207    8.9883    7.5565 C.3       2 RES2    0.0000
     72 H12A       6.9169    9.3319    7.3435 H         2 RES2    0.0000
     73 H13A       8.4707    9.4645    6.9818 H         2 RES2    0.0000
     74 C11A       8.2035   11.3330   10.4081 C.ar      2 RES2    0.0000
     75 C12A       8.2433   12.7491   10.5723 C.ar      2 RES2    0.0000
     76 C13A       8.2663   13.3401   11.8477 C.ar      2 RES2    0.0000
     77 H14A       8.2997   14.2864   11.9271 H         2 RES2    0.0000
     78 C14A       8.2421   12.5655   12.9757 C.ar      2 RES2    0.0000
     79 H15A       8.2617   12.9668   13.8367 H         2 RES2    0.0000
     80 C15A       8.1892   11.1719   12.8416 C.ar      2 RES2    0.0000
     81 H16A       8.1634   10.6296   13.6213 H         2 RES2    0.0000
     82 C16A       8.1725   10.5750   11.6078 C.ar      2 RES2    0.0000
     83 H17A       8.1391    9.6271   11.5540 H         2 RES2    0.0000
     84 H18A       8.3046   11.2216    8.5390 H         2 RES2    0.0000
@<TRIPOS>BOND
     1    1    4 2
     2    2    4 2
     3    3    5 1
     4    4   12 1
     5    5    6 1
     6    7    5 1
     7    8    5 1
     8    9    8 1
     9   10    8 1
    10   11    3 1
    11   12   11 ar
    12   13   12 ar
    13   14   13 1
    14   15   13 ar
    15   16   15 1
    16   17   15 ar
    17   18   17 1
    18   19   11 ar
    19   20   19 1
    20   21    3 1
    21   22   25 2
    22   23   25 2
    23   24   26 1
    24   25   33 1
    25   26   27 1
    26   28   26 1
    27   29   26 1
    28   30   29 1
    29   31   29 1
    30   32   24 1
    31   33   32 ar
    32   34   33 ar
    33   35   34 1
    34   36   34 ar
    35   37   36 1
    36   38   36 ar
    37   39   38 1
    38   40   32 ar
    39   41   40 1
    40   42   24 1
    41   43   46 2
    42   44   46 2
    43   45   47 1
    44   46   54 1
    45   47   48 1
    46   49   47 1
    47   50    8 1
    48   51   50 1
    49   52   50 1
    50   53   45 1
    51   54   53 ar
    52   55   54 ar
    53   56   55 1
    54   57   55 ar
    55   58   57 1
    56   59   57 ar
    57   60   59 1
    58   61   53 ar
    59   62   61 1
    60   63   45 1
    61   64   67 2
    62   65   67 2
    63   66   68 1
    64   67   75 1
    65   68   69 1
    66   70   68 1
    67   71   29 1
    68   72   71 1
    69   73   71 1
    70   74   66 1
    71   75   74 ar
    72   76   75 ar
    73   77   76 1
    74   78   76 ar
    75   79   78 1
    76   80   78 ar
    77   81   80 1
    78   82   74 ar
    79   83   82 1
    80   84   66 1
    81   17   19 ar
    82   38   40 ar
    83   47   50 1
    84   59   61 ar
    85   68   71 1
    86   80   82 ar
@<TRIPOS>SUBSTRUCTURE
     1 RES1 1
     2 RES2 22

@<TRIPOS>CRYSIN
   6.7032    8.1646   15.1177  81.0990  79.5550  67.4880   2 1

