# MOL2 file generated by ConQuest
# Please check atom types

@<TRIPOS>MOLECULE
OFIJAP
   132   139     1
SMALL
NO_CHARGES
****
Generated from CSD

@<TRIPOS>ATOM
      1 O1         8.0260   -2.6131  -12.5368 O.3       1 RES1    0.0000
      2 O2         6.8766   -0.7615  -11.9069 O.2       1 RES1    0.0000
      3 O3         5.4237   -0.8584  -14.1890 O.3       1 RES1    0.0000
      4 O4         4.4051    0.1910  -15.8753 O.2       1 RES1    0.0000
      5 O5         7.8537   -4.3521   -8.3635 O.3       1 RES1    0.0000
      6 O6         7.0041   -2.4260   -7.5056 O.2       1 RES1    0.0000
      7 O7         8.8424   -2.5176   -5.4795 O.3       1 RES1    0.0000
      8 O8         9.5111   -2.1904   -3.3588 O.2       1 RES1    0.0000
      9 N1         8.6680   -2.5594  -11.2181 N.3       1 RES1    0.0000
     10 N2         7.0002   -4.1453   -9.5379 N.3       1 RES1    0.0000
     11 C1         9.0263   -3.9569  -10.9559 C.3       1 RES1    0.0000
     12 C2         7.7322   -4.7826  -10.6317 C.3       1 RES1    0.0000
     13 C3         9.8057   -4.6033  -12.0403 C.1       1 RES1    0.0000
     14 C4        10.4321   -5.0744  -12.9262 C.1       1 RES1    0.0000
     15 C5        11.2539   -5.6174  -13.9935 C.ar      1 RES1    0.0000
     16 C6        11.3550   -4.9828  -15.2051 C.ar      1 RES1    0.0000
     17 C7        12.2076   -5.4761  -16.1763 C.ar      1 RES1    0.0000
     18 C8        12.9887   -6.6289  -15.8707 C.ar      1 RES1    0.0000
     19 C9        12.8406   -7.1941  -14.7754 C.ar      1 RES1    0.0000
     20 C10       12.0092   -6.7466  -13.7856 C.ar      1 RES1    0.0000
     21 C11        8.0983   -6.1905  -10.4486 C.1       1 RES1    0.0000
     22 C12        8.4863   -7.3054  -10.4191 C.1       1 RES1    0.0000
     23 C13        9.0955   -8.6152  -10.5013 C.ar      1 RES1    0.0000
     24 C14        9.5041   -9.0404  -11.8185 C.ar      1 RES1    0.0000
     25 C15       10.1876  -10.2390  -12.3537 C.ar      1 RES1    0.0000
     26 C16       10.4004  -10.7559  -11.3050 C.ar      1 RES1    0.0000
     27 C17       10.3252  -10.8200  -10.0344 C.ar      1 RES1    0.0000
     28 C18        9.4118   -9.3990   -9.4386 C.ar      1 RES1    0.0000
     29 C19        9.8254   -1.6932  -11.3624 C.3       1 RES1    0.0000
     30 C20       10.4424   -1.3818  -10.0282 C.ar      1 RES1    0.0000
     31 C21       11.7905   -1.3988   -9.8358 C.ar      1 RES1    0.0000
     32 C22       12.3732   -1.0167   -8.6428 C.ar      1 RES1    0.0000
     33 C23       11.5576   -0.5653   -7.5723 C.ar      1 RES1    0.0000
     34 C24       10.1996   -0.5836   -7.7616 C.ar      1 RES1    0.0000
     35 C25        9.6281   -0.9801   -8.9577 C.ar      1 RES1    0.0000
     36 C26       12.2846   -0.1060   -6.2676 C.3       1 RES1    0.0000
     37 C27       12.0234    1.4236   -6.1590 C.3       1 RES1    0.0000
     38 C28       12.1452   -1.1528   -5.1615 C.3       1 RES1    0.0000
     39 C29        7.1183   -1.6160  -12.7105 C.2       1 RES1    0.0000
     40 C30        6.5926   -1.7050  -14.1238 C.3       1 RES1    0.0000
     41 C31        6.1670   -3.0514  -14.6746 C.3       1 RES1    0.0000
     42 C32        5.9861   -2.7138  -16.1887 C.3       1 RES1    0.0000
     43 C33        6.3633   -1.2261  -16.2756 C.3       1 RES1    0.0000
     44 C34        7.5156   -1.1096  -15.2160 C.3       1 RES1    0.0000
     45 C35        5.2870   -0.5313  -15.5123 C.2       1 RES1    0.0000
     46 C36        6.6000   -0.6922  -17.6563 C.3       1 RES1    0.0000
     47 C37        7.9374    0.3206  -14.9399 C.3       1 RES1    0.0000
     48 C38        8.7448   -1.9457  -15.5356 C.3       1 RES1    0.0000
     49 C39        5.7325   -4.8323   -9.2664 C.3       1 RES1    0.0000
     50 C40        4.7602   -4.5536  -10.3819 C.ar      1 RES1    0.0000
     51 C41        4.5386   -3.2569  -10.8070 C.ar      1 RES1    0.0000
     52 C42        3.6594   -2.9808  -11.8247 C.ar      1 RES1    0.0000
     53 C43        2.9346   -4.0040  -12.4545 C.ar      1 RES1    0.0000
     54 C44        3.1799   -5.3047  -12.0326 C.ar      1 RES1    0.0000
     55 C45        4.0840   -5.5781  -11.0086 C.ar      1 RES1    0.0000
     56 C46        1.9034   -3.7174  -13.5358 C.3       1 RES1    0.0000
     57 C47        2.4863   -3.0279  -14.7537 C.3       1 RES1    0.0000
     58 C48        0.7393   -2.8852  -12.9634 C.3       1 RES1    0.0000
     59 C49        7.7376   -3.3615   -7.4513 C.2       1 RES1    0.0000
     60 C50        8.6512   -3.7188   -6.2986 C.3       1 RES1    0.0000
     61 C51       10.0550   -4.2291   -6.5980 C.3       1 RES1    0.0000
     62 C52       10.4958   -4.7512   -5.2002 C.3       1 RES1    0.0000
     63 C53        9.2418   -4.4685   -4.3066 C.3       1 RES1    0.0000
     64 C54        8.0816   -4.7119   -5.2670 C.3       1 RES1    0.0000
     65 C55        9.2291   -2.9651   -4.2477 C.2       1 RES1    0.0000
     66 C56        9.2235   -5.1319   -2.9213 C.3       1 RES1    0.0000
     67 C57        7.9489   -6.1473   -5.7665 C.3       1 RES1    0.0000
     68 C58        6.7129   -4.2736   -4.7023 C.3       1 RES1    0.0000
     69 H1         9.5683   -3.9661  -10.1771 H         1 RES1    0.0000
     70 H2         7.1752   -4.7381  -11.4011 H         1 RES1    0.0000
     71 H3        10.8392   -4.2042  -15.3773 H         1 RES1    0.0000
     72 H4        12.2698   -5.0574  -17.0280 H         1 RES1    0.0000
     73 H5        13.6177   -6.9612  -16.5005 H         1 RES1    0.0000
     74 H6        13.3353   -7.9897  -14.6156 H         1 RES1    0.0000
     75 H7        11.9546   -7.2125  -12.9603 H         1 RES1    0.0000
     76 H8         9.2861   -8.4097  -12.4933 H         1 RES1    0.0000
     77 H9        10.3897  -10.5086  -13.2411 H         1 RES1    0.0000
     78 H10       10.8917  -11.5305  -11.5377 H         1 RES1    0.0000
     79 H11       10.6935  -11.5096   -9.4945 H         1 RES1    0.0000
     80 H12        9.1859   -9.2236   -8.5326 H         1 RES1    0.0000
     81 H13       10.4703   -2.1263  -11.9069 H         1 RES1    0.0000
     82 H14        9.5551   -0.8819  -11.7750 H         1 RES1    0.0000
     83 H15       12.3500   -1.6827  -10.5479 H         1 RES1    0.0000
     84 H16       13.3161   -1.0560   -8.5388 H         1 RES1    0.0000
     85 H17        9.6326   -0.3140   -7.0495 H         1 RES1    0.0000
     86 H18        8.6839   -0.9814   -9.0539 H         1 RES1    0.0000
     87 H19       13.2040   -0.1557   -6.5003 H         1 RES1    0.0000
     88 H20       11.0885    1.5820   -6.0938 H         1 RES1    0.0000
     89 H21       12.4556    1.7652   -5.3849 H         1 RES1    0.0000
     90 H22       12.3635    1.8594   -6.9300 H         1 RES1    0.0000
     91 H23       12.6037   -0.8558   -4.3842 H         1 RES1    0.0000
     92 H24       11.2248   -1.2771   -4.9582 H         1 RES1    0.0000
     93 H25       12.5183   -1.9758   -5.4547 H         1 RES1    0.0000
     94 H26        6.8390   -3.7109  -14.5427 H         1 RES1    0.0000
     95 H27        5.3530   -3.3471  -14.2836 H         1 RES1    0.0000
     96 H28        6.5649   -3.2412  -16.7255 H         1 RES1    0.0000
     97 H29        5.0876   -2.8512  -16.4618 H         1 RES1    0.0000
     98 H30        5.8010   -0.7655  -18.1652 H         1 RES1    0.0000
     99 H31        7.2892   -1.1934  -18.0752 H         1 RES1    0.0000
    100 H32        6.8580    0.2198  -17.6020 H         1 RES1    0.0000
    101 H33        7.1704    0.8414  -14.7335 H         1 RES1    0.0000
    102 H34        8.3649    0.6778  -15.7093 H         1 RES1    0.0000
    103 H35        8.5396    0.3363  -14.2060 H         1 RES1    0.0000
    104 H36        8.4822   -2.8408  -15.7124 H         1 RES1    0.0000
    105 H37        9.3406   -1.9287  -14.7956 H         1 RES1    0.0000
    106 H38        9.1810   -1.5872  -16.3004 H         1 RES1    0.0000
    107 H39        5.8858   -5.7692   -9.2090 H         1 RES1    0.0000
    108 H40        5.3710   -4.5196   -8.4457 H         1 RES1    0.0000
    109 H41        5.0035   -2.5424  -10.3865 H         1 RES1    0.0000
    110 H42        3.5408   -2.0818  -12.1086 H         1 RES1    0.0000
    111 H43        2.7199   -6.0217  -12.4499 H         1 RES1    0.0000
    112 H44        4.2351   -6.4771  -10.7402 H         1 RES1    0.0000
    113 H45        1.5478   -4.5510  -13.8197 H         1 RES1    0.0000
    114 H46        1.8090   -2.9245  -15.4115 H         1 RES1    0.0000
    115 H47        2.8196   -2.1747  -14.5055 H         1 RES1    0.0000
    116 H48        3.1940   -3.5539  -15.1074 H         1 RES1    0.0000
    117 H49        1.0736   -2.0609  -12.6283 H         1 RES1    0.0000
    118 H50        0.1046   -2.7138  -13.6491 H         1 RES1    0.0000
    119 H51        0.3221   -3.3668  -12.2591 H         1 RES1    0.0000
    120 H52       10.6215   -3.5303   -6.9021 H         1 RES1    0.0000
    121 H53       10.0402   -4.9278   -7.2419 H         1 RES1    0.0000
    122 H54       11.2556   -4.2775   -4.8838 H         1 RES1    0.0000
    123 H55       10.6918   -5.6802   -5.2297 H         1 RES1    0.0000
    124 H56        9.9863   -4.8545   -2.4279 H         1 RES1    0.0000
    125 H57        8.4354   -4.8742   -2.4574 H         1 RES1    0.0000
    126 H58        9.2376   -6.0767   -3.0221 H         1 RES1    0.0000
    127 H59        8.7827   -6.4404   -6.1140 H         1 RES1    0.0000
    128 H60        7.2905   -6.1840   -6.4507 H         1 RES1    0.0000
    129 H61        7.6901   -6.7100   -5.0467 H         1 RES1    0.0000
    130 H62        6.7715   -3.3812   -4.3842 H         1 RES1    0.0000
    131 H63        6.4653   -4.8493   -3.9886 H         1 RES1    0.0000
    132 H64        6.0569   -4.3220   -5.3895 H         1 RES1    0.0000
@<TRIPOS>BOND
     1    1    9 1
     2    2   39 2
     3    3   40 1
     4    4   45 2
     5    5   10 1
     6    6   59 2
     7    7   60 1
     8    8   65 2
     9    9   11 1
    10   10   12 1
    11   11   12 1
    12   12   21 1
    13   13   11 1
    14   14   13 3
    15   15   14 1
    16   16   15 ar
    17   17   16 ar
    18   18   17 ar
    19   19   18 ar
    20   20   15 ar
    21   21   22 3
    22   22   23 1
    23   23   24 ar
    24   24   25 ar
    25   25   26 ar
    26   26   27 ar
    27   27   28 ar
    28   28   23 ar
    29   29    9 1
    30   30   29 1
    31   31   30 ar
    32   32   31 ar
    33   33   32 ar
    34   34   33 ar
    35   35   30 ar
    36   36   33 1
    37   37   36 1
    38   38   36 1
    39   39    1 1
    40   40   39 1
    41   41   40 1
    42   42   41 1
    43   43   42 1
    44   44   40 1
    45   45    3 1
    46   46   43 1
    47   47   44 1
    48   48   44 1
    49   49   10 1
    50   50   49 1
    51   51   50 ar
    52   52   51 ar
    53   53   52 ar
    54   54   53 ar
    55   55   50 ar
    56   56   53 1
    57   57   56 1
    58   58   56 1
    59   59    5 1
    60   60   59 1
    61   61   60 1
    62   62   61 1
    63   63   62 1
    64   64   60 1
    65   65    7 1
    66   66   63 1
    67   67   64 1
    68   68   64 1
    69   69   11 1
    70   70   12 1
    71   71   16 1
    72   72   17 1
    73   73   18 1
    74   74   19 1
    75   75   20 1
    76   76   24 1
    77   77   25 1
    78   78   26 1
    79   79   27 1
    80   80   28 1
    81   81   29 1
    82   82   29 1
    83   83   31 1
    84   84   32 1
    85   85   34 1
    86   86   35 1
    87   87   36 1
    88   88   37 1
    89   89   37 1
    90   90   37 1
    91   91   38 1
    92   92   38 1
    93   93   38 1
    94   94   41 1
    95   95   41 1
    96   96   42 1
    97   97   42 1
    98   98   46 1
    99   99   46 1
   100  100   46 1
   101  101   47 1
   102  102   47 1
   103  103   47 1
   104  104   48 1
   105  105   48 1
   106  106   48 1
   107  107   49 1
   108  108   49 1
   109  109   51 1
   110  110   52 1
   111  111   54 1
   112  112   55 1
   113  113   56 1
   114  114   57 1
   115  115   57 1
   116  116   57 1
   117  117   58 1
   118  118   58 1
   119  119   58 1
   120  120   61 1
   121  121   61 1
   122  122   62 1
   123  123   62 1
   124  124   66 1
   125  125   66 1
   126  126   66 1
   127  127   67 1
   128  128   67 1
   129  129   67 1
   130  130   68 1
   131  131   68 1
   132  132   68 1
   133   19   20 ar
   134   34   35 ar
   135   43   44 1
   136   43   45 1
   137   54   55 ar
   138   63   64 1
   139   63   65 1
@<TRIPOS>SUBSTRUCTURE
     1 RES1 1

@<TRIPOS>CRYSIN
  12.4780   13.0850   15.5140  90.0000  90.2400  90.0000   4 1

