# MOL2 file generated by ConQuest
# Please check atom types

@<TRIPOS>MOLECULE
OFIWOP
    32    34     2
SMALL
NO_CHARGES
****
Generated from CSD

@<TRIPOS>ATOM
      1 O1         7.2928    5.6912    6.5004 O.3       1 RES1    0.0000
      2 N1         6.9372    5.7287    7.8573 N.2       1 RES1    0.0000
      3 C1         6.2129    6.7446    8.1679 C.2       1 RES1    0.0000
      4 C2         5.8025    6.8386    9.6060 C.ar      1 RES1    0.0000
      5 C3         4.9885    7.8168   10.0665 C.ar      1 RES1    0.0000
      6 C4         4.6398    7.9069   11.4005 C.ar      1 RES1    0.0000
      7 C5         5.0737    7.0165   12.3039 C.ar      1 RES1    0.0000
      8 C6         6.2310    6.1095   11.9016 C.ar      1 RES1    0.0000
      9 C7         6.4035    6.0106   10.6717 C.ar      1 RES1    0.0000
     10 C8         5.8187    7.8251    7.1921 C.3       1 RES1    0.0000
     11 C9         4.4392    7.6267    6.5904 C.ar      1 RES1    0.0000
     12 C10        4.1552    6.5500    5.8017 C.ar      1 RES1    0.0000
     13 C11        2.9206    6.4052    5.2071 C.ar      1 RES1    0.0000
     14 C12        1.9474    7.3465    5.4153 C.ar      1 RES1    0.0000
     15 C13        2.2164    8.4320    6.2128 C.ar      1 RES1    0.0000
     16 C14        3.4789    8.5967    6.7881 C.ar      1 RES1    0.0000
     17 O2         8.6481    3.6500    8.6002 O.3       2 RES2    0.0000
     18 N2         8.9349    3.5323    7.2380 N.2       2 RES2    0.0000
     19 C15        9.6517    2.5032    6.9592 C.2       2 RES2    0.0000
     20 C16       10.0069    2.3302    5.5247 C.ar      2 RES2    0.0000
     21 C17       11.1229    1.7018    5.0765 C.ar      2 RES2    0.0000
     22 C18       11.4477    1.5680    3.7443 C.ar      2 RES2    0.0000
     23 C19       10.6734    2.0223    2.8285 C.ar      2 RES2    0.0000
     24 C20       10.4890    3.2471    3.4337 C.ar      2 RES2    0.0000
     25 C21       10.1254    3.4079    4.7465 C.ar      2 RES2    0.0000
     26 C22       10.1047    1.5271    7.9985 C.3       2 RES2    0.0000
     27 C23       12.2071    2.9315    8.3338 C.ar      2 RES2    0.0000
     28 C24       13.4335    3.1443    8.9672 C.ar      2 RES2    0.0000
     29 C25       13.9016    2.2810    9.8883 C.ar      2 RES2    0.0000
     30 C26       13.1695    1.1612   10.2059 C.ar      2 RES2    0.0000
     31 C27       11.9377    0.9313    9.5795 C.ar      2 RES2    0.0000
     32 C28       11.4449    1.8178    8.6408 C.ar      2 RES2    0.0000
@<TRIPOS>BOND
     1    1    2 1
     2    2    3 2
     3    3    4 1
     4    4    5 ar
     5    5    6 ar
     6    6    7 ar
     7    7    8 ar
     8    8    9 ar
     9    9    4 ar
    10   10    3 1
    11   11   10 1
    12   12   11 ar
    13   13   12 ar
    14   14   13 ar
    15   15   14 ar
    16   16   11 ar
    17   17   18 1
    18   18   19 2
    19   19   20 1
    20   20   21 ar
    21   21   22 ar
    22   22   23 ar
    23   23   24 ar
    24   24   25 ar
    25   25   20 ar
    26   26   19 1
    27   27   28 ar
    28   28   29 ar
    29   29   30 ar
    30   30   31 ar
    31   31   32 ar
    32   32   26 1
    33   15   16 ar
    34   27   32 ar
@<TRIPOS>SUBSTRUCTURE
     1 RES1 1
     2 RES2 17

@<TRIPOS>CRYSIN
  23.8730    5.5270   17.7130  90.0000  95.0200  90.0000   9 1

