# MOL2 file generated by ConQuest
# Please check atom types

@<TRIPOS>MOLECULE
OFIXAF
    28    29     1
SMALL
NO_CHARGES
****
Generated from CSD

@<TRIPOS>ATOM
      1 O1         6.9037    2.9067    1.8908 O.2       1 RES1    0.0000
      2 O2         5.5654    4.0350    3.1310 O.2       1 RES1    0.0000
      3 N1         7.4134    0.6780    3.7002 N.pl3     1 RES1    0.0000
      4 N2         5.9840    2.9759    2.6875 N.pl3     1 RES1    0.0000
      5 N3         7.8163    1.8395    4.4028 N.3       1 RES1    0.0000
      6 C1         3.2365    0.5661    3.1839 C.ar      1 RES1    0.0000
      7 H1         2.2907    0.5468    3.0962 H         1 RES1    0.0000
      8 C2         3.9300    1.7336    2.9628 C.ar      1 RES1    0.0000
      9 H2         3.4655    2.5293    2.7331 H         1 RES1    0.0000
     10 C3         5.3066    1.7398    3.0773 C.ar      1 RES1    0.0000
     11 C4         6.0332    0.6110    3.4675 C.ar      1 RES1    0.0000
     12 C5         8.2823   -0.4307    3.5833 C.ar      1 RES1    0.0000
     13 C6         9.4183   -0.5102    4.3846 C.ar      1 RES1    0.0000
     14 H3         9.5947    0.1667    5.0272 H         1 RES1    0.0000
     15 C7        10.2882   -1.5727    4.2457 C.ar      1 RES1    0.0000
     16 H4        11.0628   -1.6179    4.7935 H         1 RES1    0.0000
     17 C8        10.0502   -2.5611    3.3323 C.ar      1 RES1    0.0000
     18 H5        10.6480   -3.2951    3.2533 H         1 RES1    0.0000
     19 C9         3.9248   -0.5720    3.5328 C.ar      1 RES1    0.0000
     20 H6         3.4515   -1.3847    3.6654 H         1 RES1    0.0000
     21 C10        5.2982   -0.5468    3.6938 C.ar      1 RES1    0.0000
     22 H7         5.7493   -1.3381    3.9646 H         1 RES1    0.0000
     23 C11        8.9312   -2.4835    2.5239 C.ar      1 RES1    0.0000
     24 H8         8.7631   -3.1666    1.8860 H         1 RES1    0.0000
     25 C12        8.0543   -1.4191    2.6360 C.ar      1 RES1    0.0000
     26 H9         7.2970   -1.3650    2.0660 H         1 RES1    0.0000
     27 H10        8.0967    1.5204    5.2814 H         1 RES1    0.0000
     28 H11        8.6040    2.1181    3.9946 H         1 RES1    0.0000
@<TRIPOS>BOND
     1    1    4 2
     2    2    4 2
     3    3    5 1
     4    4   10 1
     5    5   27 1
     6    6    7 1
     7    8    6 ar
     8    9    8 1
     9   10    8 ar
    10   11    3 1
    11   12    3 1
    12   13   12 ar
    13   14   13 1
    14   15   13 ar
    15   16   15 1
    16   17   15 ar
    17   18   17 1
    18   19    6 ar
    19   20   19 1
    20   21   11 ar
    21   22   21 1
    22   23   17 ar
    23   24   23 1
    24   25   12 ar
    25   26   25 1
    26   28    5 1
    27   10   11 ar
    28   19   21 ar
    29   23   25 ar
@<TRIPOS>SUBSTRUCTURE
     1 RES1 1

@<TRIPOS>CRYSIN
   9.9468   14.1301    7.8945  90.0000  90.0000  90.0000  33 1

