# MOL2 file generated by ConQuest
# Please check atom types

@<TRIPOS>MOLECULE
OFOBIX
    39    39     1
SMALL
USER_CHARGES
****
Generated from CSD

@<TRIPOS>ATOM
      1 O1         7.5229    6.2727   10.7842 O.3       1 RES1    0.0000
      2 O2         5.9282    6.6242   12.3245 O.2       1 RES1    0.0000
      3 O3        10.3094    5.0383    7.0976 O.3       1 RES1    0.0000
      4 O4         8.5717    5.8549    5.9463 O.2       1 RES1    0.0000
      5 O5         9.0922    7.7389    8.4246 O.2       1 RES1    0.0000
      6 O6         7.1123    8.6078    8.3891 O.2       1 RES1    0.0000
      7 N1         7.6799    3.4310   10.6630 N.2       1 RES1    0.0000
      8 N2         8.0796    2.2738   10.8428 N.1       1 RES1    1.0000
      9 N3         8.5143    1.2756   11.1312 N.2       1 RES1   -1.0000
     10 N4         4.6948    4.6780    8.9097 N.2       1 RES1    0.0000
     11 N5         3.8162    5.5328    9.0956 N.1       1 RES1    1.0000
     12 N6         2.9530    6.2588    9.1542 N.2       1 RES1   -1.0000
     13 N7         7.8739    7.6529    8.4139 N.pl3     1 RES1    0.0000
     14 C1         6.5106    6.1396    9.7707 C.3       1 RES1    0.0000
     15 H1         5.8300    6.8656    9.8685 H         1 RES1    0.0000
     16 C2         5.8271    4.7605    9.8647 C.3       1 RES1    0.0000
     17 H2         5.4813    4.6294   10.7944 H         1 RES1    0.0000
     18 C3         6.7550    3.5926    9.5056 C.3       1 RES1    0.0000
     19 H3         6.2086    2.7607    9.4079 H         1 RES1    0.0000
     20 C4         7.5258    3.8395    8.2058 C.3       1 RES1    0.0000
     21 H4         6.8931    3.8346    7.4450 H         1 RES1    0.0000
     22 H5         8.1772    3.1074    8.0662 H         1 RES1    0.0000
     23 C5         8.2718    5.1863    8.2413 C.3       1 RES1    0.0000
     24 H6         8.9077    5.1917    9.0134 H         1 RES1    0.0000
     25 C6         7.2356    6.2808    8.4359 C.3       1 RES1    0.0000
     26 H7         6.5649    6.2253    7.6954 H         1 RES1    0.0000
     27 C7         7.0895    6.4918   12.0540 C.2       1 RES1    0.0000
     28 C8         8.2293    6.5010   13.0127 C.3       1 RES1    0.0000
     29 H8         8.5919    5.5947   13.0973 H         1 RES1    0.0000
     30 H9         7.9172    6.8117   13.8886 H         1 RES1    0.0000
     31 H10        8.9288    7.1029   12.6840 H         1 RES1    0.0000
     32 C9         9.0420    5.4039    6.9554 C.2       1 RES1    0.0000
     33 C10       11.1931    5.2689    5.9591 C.3       1 RES1    0.0000
     34 H11       10.9549    6.1159    5.5058 H         1 RES1    0.0000
     35 H12       11.1120    4.5280    5.3074 H         1 RES1    0.0000
     36 C11       12.5777    5.3397    6.4903 C.3       1 RES1    0.0000
     37 H13       13.2061    5.4716    5.7491 H         1 RES1    0.0000
     38 H14       12.7927    4.5047    6.9561 H         1 RES1    0.0000
     39 H15       12.6496    6.0902    7.1167 H         1 RES1    0.0000
@<TRIPOS>BOND
     1    1   14 1
     2    2   27 2
     3    3   32 1
     4    4   32 2
     5    5   13 2
     6    6   13 2
     7    7    8 2
     8    8    9 2
     9   10   11 2
    10   11   12 2
    11   13   25 1
    12   14   15 1
    13   16   10 1
    14   17   16 1
    15   18    7 1
    16   19   18 1
    17   20   18 1
    18   21   20 1
    19   22   20 1
    20   23   20 1
    21   24   23 1
    22   25   14 1
    23   26   25 1
    24   27    1 1
    25   28   27 1
    26   29   28 1
    27   30   28 1
    28   31   28 1
    29   32   23 1
    30   33    3 1
    31   34   33 1
    32   35   33 1
    33   36   33 1
    34   37   36 1
    35   38   36 1
    36   39   36 1
    37   14   16 1
    38   16   18 1
    39   23   25 1
@<TRIPOS>SUBSTRUCTURE
     1 RES1 1

@<TRIPOS>CRYSIN
  16.0517    8.0441   24.0949  90.0000 101.3940  90.0000  15 1

