# MOL2 file generated by ConQuest
# Please check atom types

@<TRIPOS>MOLECULE
OFOLUQ
    54    59     1
SMALL
NO_CHARGES
****
Generated from CSD

@<TRIPOS>ATOM
      1 O1         6.3458    9.9460    5.3903 O.2       1 RES1    0.0000
      2 O2         5.3899    9.6248    3.4995 O.2       1 RES1    0.0000
      3 N1         2.8641    5.0986    6.9457 N.3       1 RES1    0.0000
      4 N2         5.5672    9.3330    4.6829 N.pl3     1 RES1    0.0000
      5 N3         4.4276    0.3391    1.8922 N.3       1 RES1    0.0000
      6 C1         5.4621    2.4474    1.0261 C.ar      1 RES1    0.0000
      7 C2         6.6448    2.9642    0.5629 C.ar      1 RES1    0.0000
      8 C3         3.4608    5.0888    8.1950 C.2       1 RES1    0.0000
      9 C4         7.8035    2.2093    0.4787 C.ar      1 RES1    0.0000
     10 C5         4.3555    6.0834    8.2862 C.2       1 RES1    0.0000
     11 C6         7.8203    0.8903    0.8858 C.ar      1 RES1    0.0000
     12 C7         5.0704    7.8443    6.5316 C.ar      1 RES1    0.0000
     13 C8         4.3524    6.7861    7.0453 C.ar      1 RES1    0.0000
     14 C9         6.6227    0.3326    1.3518 C.ar      1 RES1    0.0000
     15 C10        6.2674   -0.9848    1.7940 C.ar      1 RES1    0.0000
     16 C11        4.7907    8.2471    5.2486 C.ar      1 RES1    0.0000
     17 C12        6.9447   -2.1914    1.9217 C.ar      1 RES1    0.0000
     18 C13        3.8322    7.6291    4.4569 C.ar      1 RES1    0.0000
     19 C14        6.2691   -3.3001    2.3751 C.ar      1 RES1    0.0000
     20 C15        4.9330   -3.2268    2.7218 C.ar      1 RES1    0.0000
     21 C16        3.1251    6.5709    4.9440 C.ar      1 RES1    0.0000
     22 C17        3.4063    6.1323    6.2368 C.ar      1 RES1    0.0000
     23 C18        4.2287   -2.0528    2.6123 C.ar      1 RES1    0.0000
     24 C19        4.9026   -0.9359    2.1337 C.ar      1 RES1    0.0000
     25 C20        5.4689    1.1218    1.4192 C.ar      1 RES1    0.0000
     26 C21        3.0547    0.7745    2.0073 C.3       1 RES1    0.0000
     27 C22        2.7750    1.6664    3.1879 C.ar      1 RES1    0.0000
     28 C23        3.4762    1.5751    4.3782 C.ar      1 RES1    0.0000
     29 C24        1.7572    2.5713    3.1177 C.ar      1 RES1    0.0000
     30 C25        1.4482    3.4029    4.1887 C.ar      1 RES1    0.0000
     31 C26        3.1556    2.3985    5.4423 C.ar      1 RES1    0.0000
     32 C27        2.1495    3.3262    5.3623 C.ar      1 RES1    0.0000
     33 C28        1.7855    4.2344    6.5274 C.3       1 RES1    0.0000
     34 H1         4.6663    2.9757    1.0458 H         1 RES1    0.0000
     35 H2         6.6656    3.8790    0.2990 H         1 RES1    0.0000
     36 H3         3.2637    4.4562    8.8870 H         1 RES1    0.0000
     37 H4         8.5902    2.6137    0.1207 H         1 RES1    0.0000
     38 H5         4.8917    6.2774    9.0485 H         1 RES1    0.0000
     39 H6         8.6248    0.3783    0.8689 H         1 RES1    0.0000
     40 H7         5.7477    8.2699    7.0453 H         1 RES1    0.0000
     41 H8         7.8685   -2.2566    1.7013 H         1 RES1    0.0000
     42 H9         6.7276   -4.1366    2.4481 H         1 RES1    0.0000
     43 H10        3.6787    7.9291    3.5655 H         1 RES1    0.0000
     44 H11        4.4875   -4.0094    3.0517 H         1 RES1    0.0000
     45 H12        2.4493    6.1600    4.4161 H         1 RES1    0.0000
     46 H13        3.3132   -2.0039    2.8580 H         1 RES1    0.0000
     47 H14        2.5111   -0.0082    2.0930 H         1 RES1    0.0000
     48 H15        2.8166    1.2327    1.2114 H         1 RES1    0.0000
     49 H16        4.1758    0.9310    4.4835 H         1 RES1    0.0000
     50 H17        1.2396    2.6251    2.3246 H         1 RES1    0.0000
     51 H18        3.6498    2.3349    6.2508 H         1 RES1    0.0000
     52 H19        0.7486    4.0518    4.0919 H         1 RES1    0.0000
     53 H20        1.5458    3.6833    7.2685 H         1 RES1    0.0000
     54 H21        1.0475    4.7660    6.2747 H         1 RES1    0.0000
@<TRIPOS>BOND
     1    1    4 2
     2    2    4 2
     3    3    8 1
     4    4   16 1
     5    5   24 1
     6    6    7 ar
     7    7    9 ar
     8    8   10 2
     9    9   11 ar
    10   10   13 1
    11   11   14 ar
    12   12   13 ar
    13   13   22 ar
    14   14   15 1
    15   15   17 ar
    16   16   12 ar
    17   17   19 ar
    18   18   16 ar
    19   19   20 ar
    20   20   23 ar
    21   21   18 ar
    22   22    3 1
    23   23   24 ar
    24   24   15 ar
    25   25    5 1
    26   26    5 1
    27   27   26 1
    28   28   27 ar
    29   29   27 ar
    30   30   29 ar
    31   31   28 ar
    32   32   30 ar
    33   33    3 1
    34   34    6 1
    35   35    7 1
    36   36    8 1
    37   37    9 1
    38   38   10 1
    39   39   11 1
    40   40   12 1
    41   41   17 1
    42   42   19 1
    43   43   18 1
    44   44   20 1
    45   45   21 1
    46   46   23 1
    47   47   26 1
    48   48   26 1
    49   49   28 1
    50   50   29 1
    51   51   31 1
    52   52   30 1
    53   53   33 1
    54   54   33 1
    55    6   25 ar
    56   14   25 ar
    57   21   22 ar
    58   31   32 ar
    59   32   33 1
@<TRIPOS>SUBSTRUCTURE
     1 RES1 1

@<TRIPOS>CRYSIN
   9.4530   16.3050   14.4130  90.0000 103.1100  90.0000  14 2

