# MOL2 file generated by ConQuest
# Please check atom types

@<TRIPOS>MOLECULE
OFOMOL
    86    92     2
SMALL
NO_CHARGES
****
Generated from CSD

@<TRIPOS>ATOM
      1 O1        -2.4080    2.3237    5.4074 O.3       1 RES1    0.0000
      2 O2        -4.5084    3.0203    5.4475 O.2       1 RES1    0.0000
      3 O3        -3.5787    5.5409   -0.9083 O.2       1 RES1    0.0000
      4 O4        -1.6063    4.6694   -0.9617 O.2       1 RES1    0.0000
      5 O5        -8.7950    3.3770    3.7956 O.3       2 RES2    0.0000
      6 O6        -7.6358    4.3203    2.1149 O.2       2 RES2    0.0000
      7 O7       -13.5446    6.7810   -0.4118 O.2       2 RES2    0.0000
      8 O8       -14.6136    6.0270    1.3268 O.2       2 RES2    0.0000
      9 N1        -0.0832    1.7532    7.0881 N.3       1 RES1    0.0000
     10 N2        -2.6767    4.8884   -0.4096 N.pl3     1 RES1    0.0000
     11 N3        -8.6050    2.9611    6.6051 N.3       2 RES2    0.0000
     12 N4       -13.6120    6.1622    0.6679 N.pl3     2 RES2    0.0000
     13 C1         0.7269    1.2849    4.7551 C.ar      1 RES1    0.0000
     14 C2         1.7678    1.5384    3.8847 C.ar      1 RES1    0.0000
     15 C3         2.8345    2.3499    4.2698 C.ar      1 RES1    0.0000
     16 C4         1.8498    2.6711    6.4158 C.ar      1 RES1    0.0000
     17 C5         1.6314    3.0684    7.7694 C.ar      1 RES1    0.0000
     18 C6         2.8844    2.8909    5.5254 C.ar      1 RES1    0.0000
     19 C7         2.3073    3.8630    8.6910 C.ar      1 RES1    0.0000
     20 C8         1.8100    3.9645    9.9599 C.ar      1 RES1    0.0000
     21 C9         0.6100    3.3558   10.3205 C.ar      1 RES1    0.0000
     22 C10       -0.1073    2.6035    9.4056 C.ar      1 RES1    0.0000
     23 C11        0.4129    2.4936    8.1278 C.ar      1 RES1    0.0000
     24 C12        0.7724    1.8512    6.0218 C.ar      1 RES1    0.0000
     25 C13       -1.3424    1.0110    7.0926 C.3       1 RES1    0.0000
     26 C14       -2.5393    1.8766    6.7720 C.3       1 RES1    0.0000
     27 C15       -3.4543    2.9078    4.8865 C.2       1 RES1    0.0000
     28 C16       -3.2225    3.4192    3.4906 C.ar      1 RES1    0.0000
     29 C17       -4.1879    4.1758    2.8896 C.ar      1 RES1    0.0000
     30 C18       -2.0322    3.1623    2.8272 C.ar      1 RES1    0.0000
     31 C19       -1.8620    3.6517    1.5361 C.ar      1 RES1    0.0000
     32 C20       -4.0366    4.6669    1.6028 C.ar      1 RES1    0.0000
     33 C21       -2.8535    4.3787    0.9684 C.ar      1 RES1    0.0000
     34 C22      -10.9365    2.2739    6.0196 C.ar      2 RES2    0.0000
     35 C23      -12.2432    2.3922    6.4203 C.ar      2 RES2    0.0000
     36 C24      -12.5842    3.0938    7.5579 C.ar      2 RES2    0.0000
     37 C25      -11.6511    3.7616    8.3103 C.ar      2 RES2    0.0000
     38 C26       -9.0706    4.2096    8.4283 C.ar      2 RES2    0.0000
     39 C27      -10.3213    3.6855    7.9296 C.ar      2 RES2    0.0000
     40 C28       -8.7555    4.9788    9.5392 C.ar      2 RES2    0.0000
     41 C29       -7.4162    5.2662    9.7796 C.ar      2 RES2    0.0000
     42 C30       -6.4289    4.8098    8.9359 C.ar      2 RES2    0.0000
     43 C31       -8.0566    3.7345    7.6091 C.ar      2 RES2    0.0000
     44 C32       -6.7046    4.0236    7.8206 C.ar      2 RES2    0.0000
     45 C33       -9.9880    2.9416    6.7965 C.ar      2 RES2    0.0000
     46 C34       -7.8791    2.1893    5.6278 C.3       2 RES2    0.0000
     47 C35       -7.5561    2.9586    4.3744 C.3       2 RES2    0.0000
     48 C36       -8.6754    4.0828    2.6469 C.2       2 RES2    0.0000
     49 C37       -9.9846    4.5815    2.1616 C.ar      2 RES2    0.0000
     50 C38      -11.1849    4.2459    2.7337 C.ar      2 RES2    0.0000
     51 C39       -9.9914    5.4015    1.0396 C.ar      2 RES2    0.0000
     52 C40      -11.1910    5.9086    0.5610 C.ar      2 RES2    0.0000
     53 C41      -12.3860    4.7337    2.2841 C.ar      2 RES2    0.0000
     54 C42      -12.3541    5.5536    1.1710 C.ar      2 RES2    0.0000
     55 H1        -0.0162    0.7515    4.4924 H         1 RES1    0.0000
     56 H2         1.7699    1.1521    3.0142 H         1 RES1    0.0000
     57 H3         3.5259    2.5283    3.6554 H         1 RES1    0.0000
     58 H4         3.6385    3.4184    5.7903 H         1 RES1    0.0000
     59 H5         3.0852    4.3389    8.4461 H         1 RES1    0.0000
     60 H6         2.2832    4.4497   10.6278 H         1 RES1    0.0000
     61 H7         0.2654    3.4353   11.2132 H         1 RES1    0.0000
     62 H8        -0.9237    2.1859    9.6393 H         1 RES1    0.0000
     63 H9        -1.2832    0.3271    6.4426 H         1 RES1    0.0000
     64 H10       -1.4688    0.6340    7.9497 H         1 RES1    0.0000
     65 H11       -2.5781    2.6230    7.3531 H         1 RES1    0.0000
     66 H12       -3.3426    1.3652    6.8655 H         1 RES1    0.0000
     67 H13       -4.9711    4.4023    3.3704 H         1 RES1    0.0000
     68 H14       -1.3447    2.6728    3.2547 H         1 RES1    0.0000
     69 H15       -4.7180    5.1690    1.1643 H         1 RES1    0.0000
     70 H16       -1.0564    3.4843    1.0530 H         1 RES1    0.0000
     71 H17      -10.6791    1.7709    5.2560 H         2 RES2    0.0000
     72 H18      -12.9338    1.9670    5.9105 H         2 RES2    0.0000
     73 H19      -13.4853    3.1259    7.8406 H         2 RES2    0.0000
     74 H20      -11.9250    4.2857    9.0672 H         2 RES2    0.0000
     75 H21       -9.4379    5.2916   10.1246 H         2 RES2    0.0000
     76 H22       -7.1825    5.7996   10.5298 H         2 RES2    0.0000
     77 H23       -5.5214    5.0448    9.1229 H         2 RES2    0.0000
     78 H24       -6.0188    3.6880    7.2417 H         2 RES2    0.0000
     79 H25       -7.0760    1.8892    6.0240 H         2 RES2    0.0000
     80 H26       -8.4246    1.4379    5.4029 H         2 RES2    0.0000
     81 H27       -7.0977    2.3888    3.7600 H         2 RES2    0.0000
     82 H28       -7.0204    3.7066    4.5748 H         2 RES2    0.0000
     83 H29      -11.1758    3.6373    3.4662 H         2 RES2    0.0000
     84 H30       -9.1600    5.6060    0.5988 H         2 RES2    0.0000
     85 H31      -11.1861    6.5088   -0.1870 H         2 RES2    0.0000
     86 H32      -13.2069    4.5249    2.7048 H         2 RES2    0.0000
@<TRIPOS>BOND
     1    1   26 1
     2    2   27 2
     3    3   10 2
     4    4   10 2
     5    5   47 1
     6    6   48 2
     7    7   12 2
     8    8   12 2
     9    9   23 1
    10   10   33 1
    11   11   43 1
    12   12   54 1
    13   13   14 ar
    14   14   15 ar
    15   15   18 ar
    16   16   17 1
    17   17   19 ar
    18   18   16 ar
    19   19   20 ar
    20   20   21 ar
    21   21   22 ar
    22   22   23 ar
    23   23   17 ar
    24   24    9 1
    25   25    9 1
    26   26   25 1
    27   27    1 1
    28   28   27 1
    29   29   28 ar
    30   30   28 ar
    31   31   30 ar
    32   32   29 ar
    33   33   31 ar
    34   34   35 ar
    35   35   36 ar
    36   36   37 ar
    37   37   39 ar
    38   38   39 1
    39   39   45 ar
    40   40   38 ar
    41   41   40 ar
    42   42   41 ar
    43   43   38 ar
    44   44   42 ar
    45   45   11 1
    46   46   11 1
    47   47   46 1
    48   48    5 1
    49   49   48 1
    50   50   49 ar
    51   51   49 ar
    52   52   51 ar
    53   53   50 ar
    54   54   52 ar
    55   55   13 1
    56   56   14 1
    57   57   15 1
    58   58   18 1
    59   59   19 1
    60   60   20 1
    61   61   21 1
    62   62   22 1
    63   63   25 1
    64   64   25 1
    65   65   26 1
    66   66   26 1
    67   67   29 1
    68   68   30 1
    69   69   32 1
    70   70   31 1
    71   71   34 1
    72   72   35 1
    73   73   36 1
    74   74   37 1
    75   75   40 1
    76   76   41 1
    77   77   42 1
    78   78   44 1
    79   79   46 1
    80   80   46 1
    81   81   47 1
    82   82   47 1
    83   83   50 1
    84   84   51 1
    85   85   52 1
    86   86   53 1
    87   13   24 ar
    88   16   24 ar
    89   32   33 ar
    90   34   45 ar
    91   43   44 ar
    92   53   54 ar
@<TRIPOS>SUBSTRUCTURE
     1 RES1 1
     2 RES2 5

@<TRIPOS>CRYSIN
  18.6510    8.4530   22.2940  90.0000  93.0820  90.0000  14 1

