# MOL2 file generated by ConQuest
# Please check atom types

@<TRIPOS>MOLECULE
OFOMAX
    37    39     1
SMALL
NO_CHARGES
****
Generated from CSD

@<TRIPOS>ATOM
      1 O1        -0.4200    0.7653    5.2381 O.3       1 RES1    0.0000
      2 O2        -2.1906   -0.3425    6.0446 O.2       1 RES1    0.0000
      3 O3         1.8625   -2.5458   11.1758 O.2       1 RES1    0.0000
      4 O4         3.4165   -1.2576   10.5025 O.2       1 RES1    0.0000
      5 N1         0.8526    1.1144    2.6931 N.3       1 RES1    0.0000
      6 N2         2.3034   -1.7184   10.4087 N.pl3     1 RES1    0.0000
      7 C1         0.8280    0.2283    1.6616 C.2       1 RES1    0.0000
      8 C2         2.0222   -0.3839    1.5360 C.2       1 RES1    0.0000
      9 C3         2.8575    0.1332    2.5656 C.ar      1 RES1    0.0000
     10 C4         4.1649   -0.1026    2.9726 C.ar      1 RES1    0.0000
     11 C5         4.6582    0.5725    4.0566 C.ar      1 RES1    0.0000
     12 C6         3.8884    1.4917    4.7505 C.ar      1 RES1    0.0000
     13 C7         2.5918    1.7598    4.3698 C.ar      1 RES1    0.0000
     14 C8         2.0994    1.0681    3.2727 C.ar      1 RES1    0.0000
     15 C9        -0.2725    1.8938    3.1545 C.3       1 RES1    0.0000
     16 C10       -1.1918    1.1467    4.0791 C.3       1 RES1    0.0000
     17 C11       -1.0410   -0.0025    6.1271 C.2       1 RES1    0.0000
     18 C12       -0.1359   -0.4178    7.2448 C.ar      1 RES1    0.0000
     19 C13        1.1352    0.1084    7.3930 C.ar      1 RES1    0.0000
     20 C14        1.9362   -0.3177    8.4451 C.ar      1 RES1    0.0000
     21 C15        1.4520   -1.2584    9.2985 C.ar      1 RES1    0.0000
     22 C16        0.1997   -1.8028    9.1728 C.ar      1 RES1    0.0000
     23 C17       -0.5973   -1.3635    8.1338 C.ar      1 RES1    0.0000
     24 H1         2.2581   -1.0350    0.8852 H         1 RES1    0.0000
     25 H2         4.7082   -0.7256    2.5037 H         1 RES1    0.0000
     26 H3         5.5512    0.4021    4.3360 H         1 RES1    0.0000
     27 H4         4.2603    1.9410    5.5007 H         1 RES1    0.0000
     28 H5         2.0573    2.3919    4.8386 H         1 RES1    0.0000
     29 H6        -0.7713    2.1693    2.3931 H         1 RES1    0.0000
     30 H7         0.0616    2.6558    3.6084 H         1 RES1    0.0000
     31 H8        -1.9122    1.7093    4.3417 H         1 RES1    0.0000
     32 H9        -1.5342    0.3748    3.6477 H         1 RES1    0.0000
     33 H10        1.4597    0.7587    6.7779 H         1 RES1    0.0000
     34 H11        2.8066    0.0430    8.5670 H         1 RES1    0.0000
     35 H12       -0.1100   -2.4614    9.7842 H         1 RES1    0.0000
     36 H13       -1.4727   -1.7209    8.0288 H         1 RES1    0.0000
     37 H14        0.0729    0.0670    1.1065 H         1 RES1    0.0000
@<TRIPOS>BOND
     1    1   16 1
     2    2   17 2
     3    3    6 2
     4    4    6 2
     5    5    7 1
     6    6   21 1
     7    7    8 2
     8    8    9 1
     9    9   10 ar
    10   10   11 ar
    11   11   12 ar
    12   12   13 ar
    13   13   14 ar
    14   14    5 1
    15   15    5 1
    16   16   15 1
    17   17    1 1
    18   18   17 1
    19   19   18 ar
    20   20   19 ar
    21   21   20 ar
    22   22   21 ar
    23   23   18 ar
    24   24    8 1
    25   25   10 1
    26   26   11 1
    27   27   12 1
    28   28   13 1
    29   29   15 1
    30   30   15 1
    31   31   16 1
    32   32   16 1
    33   33   19 1
    34   34   20 1
    35   35   22 1
    36   36   23 1
    37   37    7 1
    38    9   14 ar
    39   22   23 ar
@<TRIPOS>SUBSTRUCTURE
     1 RES1 1

@<TRIPOS>CRYSIN
   9.6734    8.2735   18.7943  90.0000  93.7320  90.0000 231 1

