# MOL2 file generated by ConQuest
# Please check atom types

@<TRIPOS>MOLECULE
OFOQEF
    98   101     1
SMALL
NO_CHARGES
****
Generated from CSD

@<TRIPOS>ATOM
      1 C1        14.5459    2.3334   13.7291 C.3       1 RES1    0.0000
      2 H1        13.6480    2.6866   13.5601 H         1 RES1    0.0000
      3 C2        15.4075    2.8166   12.5826 C.2       1 RES1    0.0000
      4 H2        15.1132    2.5285   11.7489 H         1 RES1    0.0000
      5 C3        16.5006    3.5722   12.5300 C.2       1 RES1    0.0000
      6 H3        16.8760    3.6706   11.6849 H         1 RES1    0.0000
      7 C4        17.2101    4.2873   13.6332 C.3       1 RES1    0.0000
      8 H4        17.3374    3.6794   14.3892 H         1 RES1    0.0000
      9 C5        16.4328    5.5155   14.0900 C.3       1 RES1    0.0000
     10 H5        16.8314    5.8353   14.9145 H         1 RES1    0.0000
     11 H6        16.5453    6.2113   13.4231 H         1 RES1    0.0000
     12 C6        14.9511    5.3170   14.3252 C.3       1 RES1    0.0000
     13 H7        14.5410    5.0341   13.4916 H         1 RES1    0.0000
     14 H8        14.5592    6.1709   14.5674 H         1 RES1    0.0000
     15 C7        14.6088    4.2821   15.4239 C.3       1 RES1    0.0000
     16 H9        15.0784    4.5368   16.2347 H         1 RES1    0.0000
     17 H10       13.6579    4.3453   15.6111 H         1 RES1    0.0000
     18 C8        14.9362    2.8096   15.1292 C.3       1 RES1    0.0000
     19 H11       15.8904    2.6761   15.2457 H         1 RES1    0.0000
     20 H12       14.4815    2.2544   15.7824 H         1 RES1    0.0000
     21 C9        20.3157    3.1751   13.2107 C.3       1 RES1    0.0000
     22 C10       21.5527    2.8131   14.0489 C.3       1 RES1    0.0000
     23 H13       22.0752    2.1507   13.5670 H         1 RES1    0.0000
     24 H14       21.2600    2.4107   14.8803 H         1 RES1    0.0000
     25 C11       22.4457    4.0185   14.3641 C.3       1 RES1    0.0000
     26 H15       23.1898    3.7461   14.9237 H         1 RES1    0.0000
     27 H16       22.8012    4.3945   13.5441 H         1 RES1    0.0000
     28 C12       21.6106    5.0358   15.0767 C.3       1 RES1    0.0000
     29 H17       21.3079    4.6616   15.9195 H         1 RES1    0.0000
     30 H18       22.1579    5.8107   15.2777 H         1 RES1    0.0000
     31 C13       20.4182    5.4716   14.2819 C.3       1 RES1    0.0000
     32 C14       20.6961    3.5124   11.7672 C.3       1 RES1    0.0000
     33 H19       19.9006    3.5704   11.2327 H         1 RES1    0.0000
     34 H20       21.2682    2.8237   11.4177 H         1 RES1    0.0000
     35 H21       21.1574    4.3541   11.7466 H         1 RES1    0.0000
     36 C15       19.3814    1.9539   13.1970 C.3       1 RES1    0.0000
     37 H22       19.1598    1.7114   14.0968 H         1 RES1    0.0000
     38 H23       19.8212    1.2194   12.7653 H         1 RES1    0.0000
     39 H24       18.5777    2.1718   12.7173 H         1 RES1    0.0000
     40 C16       20.8333    6.3554   13.1239 C.3       1 RES1    0.0000
     41 H25       21.4468    5.8793   12.5620 H         1 RES1    0.0000
     42 H26       21.2567    7.1479   13.4619 H         1 RES1    0.0000
     43 H27       20.0561    6.5997   12.6145 H         1 RES1    0.0000
     44 C17       19.5104    6.3361   15.1932 C.3       1 RES1    0.0000
     45 H28       18.5959    6.0602   15.0858 H         1 RES1    0.0000
     46 H29       19.5963    7.2603   14.9465 H         1 RES1    0.0000
     47 H30       19.7749    6.2219   16.1091 H         1 RES1    0.0000
     48 C18       14.4252    0.7749   13.6332 C.3       1 RES1    0.0000
     49 H31       14.1970    0.5482   12.7082 H         1 RES1    0.0000
     50 C19       13.3255    0.2038   14.5422 C.3       1 RES1    0.0000
     51 H32       13.6546    0.2109   15.4650 H         1 RES1    0.0000
     52 C20       12.9551   -1.2036   14.1882 C.2       1 RES1    0.0000
     53 H33       12.2291   -1.3196   13.6195 H         1 RES1    0.0000
     54 C21       13.5653   -2.2948   14.6107 C.2       1 RES1    0.0000
     55 H34       13.2098   -3.1136   14.3527 H         1 RES1    0.0000
     56 C22       14.7791   -2.3088   15.4695 C.3       1 RES1    0.0000
     57 H35       14.7626   -1.5339   16.0542 H         1 RES1    0.0000
     58 H36       14.7609   -3.0995   16.0291 H         1 RES1    0.0000
     59 C23       16.0673   -2.2983   14.6793 C.3       1 RES1    0.0000
     60 H37       16.2013   -3.1786   14.2933 H         1 RES1    0.0000
     61 H38       16.8032   -2.1296   15.2868 H         1 RES1    0.0000
     62 C24       16.1087   -1.2686   13.5670 C.3       1 RES1    0.0000
     63 H39       16.9885   -1.3020   13.1604 H         1 RES1    0.0000
     64 H40       15.4671   -1.5304   12.8886 H         1 RES1    0.0000
     65 C25       15.8276    0.1441   13.9507 C.3       1 RES1    0.0000
     66 H41       16.4990    0.6993   13.5236 H         1 RES1    0.0000
     67 H42       15.9698    0.2179   14.9077 H         1 RES1    0.0000
     68 C26       10.5589    0.9506   16.1456 C.3       1 RES1    0.0000
     69 C27        9.1218    0.4727   16.3808 C.3       1 RES1    0.0000
     70 H43        9.1003   -0.4955   16.3260 H         1 RES1    0.0000
     71 H44        8.8506    0.7239   17.2762 H         1 RES1    0.0000
     72 C28        8.1395    1.0349   15.4010 C.3       1 RES1    0.0000
     73 H45        7.2548    0.6747   15.5723 H         1 RES1    0.0000
     74 H46        8.0982    2.0013   15.4878 H         1 RES1    0.0000
     75 C29        8.5761    0.6695   14.0375 C.3       1 RES1    0.0000
     76 H47        7.9659    1.0753   13.4025 H         1 RES1    0.0000
     77 H48        8.5000   -0.2917   13.9393 H         1 RES1    0.0000
     78 C30       10.0181    1.0841   13.6629 C.3       1 RES1    0.0000
     79 C31       11.4668    0.1125   17.0775 C.3       1 RES1    0.0000
     80 H49       11.5263   -0.7872   16.7440 H         1 RES1    0.0000
     81 H50       11.0930    0.1002   17.9614 H         1 RES1    0.0000
     82 H51       12.3449    0.5008   17.1072 H         1 RES1    0.0000
     83 C32       10.7342    2.4371   16.5247 C.3       1 RES1    0.0000
     84 H52       11.4519    2.8166   16.0131 H         1 RES1    0.0000
     85 H53       10.9343    2.5074   17.4612 H         1 RES1    0.0000
     86 H54        9.9205    2.9133   16.3352 H         1 RES1    0.0000
     87 C33       10.4150    0.3620   12.3838 C.3       1 RES1    0.0000
     88 H55       11.3146    0.6027   12.1463 H         1 RES1    0.0000
     89 H56        9.8197    0.6167   11.6735 H         1 RES1    0.0000
     90 H57       10.3621   -0.5851   12.5209 H         1 RES1    0.0000
     91 C34       10.0743    2.6093   13.4345 C.3       1 RES1    0.0000
     92 H58        9.6775    3.0591   14.1814 H         1 RES1    0.0000
     93 H59        9.5931    2.8307   12.6328 H         1 RES1    0.0000
     94 H60       10.9905    2.8852   13.3408 H         1 RES1    0.0000
     95 N1        19.6212    4.2575   13.9386 N.3       1 RES1    0.0000
     96 N2        10.9028    0.5763   14.7613 N.3       1 RES1    0.0000
     97 O1        18.5082    4.7027   13.1154 O.3       1 RES1    0.0000
     98 O2        12.2127    1.1349   14.4490 O.3       1 RES1    0.0000
@<TRIPOS>BOND
     1    1    2 1
     2    3    1 1
     3    4    3 1
     4    5    3 2
     5    6    5 1
     6    7    5 1
     7    8    7 1
     8    9    7 1
     9   10    9 1
    10   11    9 1
    11   12    9 1
    12   13   12 1
    13   14   12 1
    14   15   12 1
    15   16   15 1
    16   17   15 1
    17   18    1 1
    18   19   18 1
    19   20   18 1
    20   21   22 1
    21   22   23 1
    22   24   22 1
    23   25   22 1
    24   26   25 1
    25   27   25 1
    26   28   25 1
    27   29   28 1
    28   30   28 1
    29   31   28 1
    30   32   21 1
    31   33   32 1
    32   34   32 1
    33   35   32 1
    34   36   21 1
    35   37   36 1
    36   38   36 1
    37   39   36 1
    38   40   31 1
    39   41   40 1
    40   42   40 1
    41   43   40 1
    42   44   31 1
    43   45   44 1
    44   46   44 1
    45   47   44 1
    46   48    1 1
    47   49   48 1
    48   50   48 1
    49   51   50 1
    50   52   50 1
    51   53   52 1
    52   54   52 2
    53   55   54 1
    54   56   54 1
    55   57   56 1
    56   58   56 1
    57   59   56 1
    58   60   59 1
    59   61   59 1
    60   62   59 1
    61   63   62 1
    62   64   62 1
    63   65   48 1
    64   66   65 1
    65   67   65 1
    66   68   69 1
    67   69   70 1
    68   71   69 1
    69   72   69 1
    70   73   72 1
    71   74   72 1
    72   75   72 1
    73   76   75 1
    74   77   75 1
    75   78   75 1
    76   79   68 1
    77   80   79 1
    78   81   79 1
    79   82   79 1
    80   83   68 1
    81   84   83 1
    82   85   83 1
    83   86   83 1
    84   87   78 1
    85   88   87 1
    86   89   87 1
    87   90   87 1
    88   91   78 1
    89   92   91 1
    90   93   91 1
    91   94   91 1
    92   95   21 1
    93   96   68 1
    94   97    7 1
    95   98   50 1
    96   15   18 1
    97   31   95 1
    98   62   65 1
    99   78   96 1
   100   95   97 1
   101   96   98 1
@<TRIPOS>SUBSTRUCTURE
     1 RES1 1

@<TRIPOS>CRYSIN
  16.5370   17.5710   22.8400  90.0000  90.0000  90.0000  61 1

