# MOL2 file generated by ConQuest
# Please check atom types

@<TRIPOS>MOLECULE
OFOQAB
    98   101     1
SMALL
NO_CHARGES
****
Generated from CSD

@<TRIPOS>ATOM
      1 C1         4.0671    1.0927    3.1592 C.3       1 RES1    0.0000
      2 C2         4.7662   -0.2130    2.9312 C.2       1 RES1    0.0000
      3 C3         5.4744   -0.4960    1.8457 C.2       1 RES1    0.0000
      4 C4         5.6347    0.4120    0.6463 C.3       1 RES1    0.0000
      5 C5         6.7935    1.4068    0.8753 C.3       1 RES1    0.0000
      6 C6         6.5248    2.5467    1.8666 C.3       1 RES1    0.0000
      7 C7         6.4219    2.1720    3.3579 C.3       1 RES1    0.0000
      8 C8         4.9907    2.0474    3.9194 C.3       1 RES1    0.0000
      9 C9         0.9099    0.1505    2.7461 C.3       1 RES1    0.0000
     10 C10       -0.3841    0.6711    2.1176 C.3       1 RES1    0.0000
     11 C11       -1.2073    1.5548    3.0494 C.3       1 RES1    0.0000
     12 C12       -0.3421    2.6934    3.5346 C.3       1 RES1    0.0000
     13 C13        0.9525    2.2438    4.2300 C.3       1 RES1    0.0000
     14 C14        1.7508   -0.4780    1.6282 C.3       1 RES1    0.0000
     15 C15        0.6284   -0.9442    3.7898 C.3       1 RES1    0.0000
     16 C16        1.8364    3.4695    4.4183 C.3       1 RES1    0.0000
     17 C17        0.6583    1.6441    5.6125 C.3       1 RES1    0.0000
     18 H1         3.8088    1.4695    2.2797 H         1 RES1    0.0000
     19 H2         4.7978   -0.8050    3.6496 H         1 RES1    0.0000
     20 H3         6.0293   -1.3211    1.7882 H         1 RES1    0.0000
     21 H4         4.8253    0.9140    0.5312 H         1 RES1    0.0000
     22 H5         7.5717    0.9127    1.1712 H         1 RES1    0.0000
     23 H6         6.9954    1.8385   -0.0209 H         1 RES1    0.0000
     24 H7         7.2657    3.1911    1.7568 H         1 RES1    0.0000
     25 H8         5.7238    3.0663    1.6000 H         1 RES1    0.0000
     26 H9         6.9043    2.8628    3.8797 H         1 RES1    0.0000
     27 H10        6.9247    1.3657    3.5032 H         1 RES1    0.0000
     28 H11        4.5346    2.9679    3.9424 H         1 RES1    0.0000
     29 H12        5.0630    1.7334    4.8418 H         1 RES1    0.0000
     30 H13       -0.1689    1.2213    1.3176 H         1 RES1    0.0000
     31 H14       -0.9460   -0.0919    1.8196 H         1 RES1    0.0000
     32 H15       -1.5893    1.0164    3.8379 H         1 RES1    0.0000
     33 H16       -1.9797    1.8779    2.5516 H         1 RES1    0.0000
     34 H17       -0.8239    3.2305    4.1516 H         1 RES1    0.0000
     35 H18       -0.1046    3.3224    2.7503 H         1 RES1    0.0000
     36 H19        2.0238    0.1970    0.9725 H         1 RES1    0.0000
     37 H20        1.2156   -1.1425    1.1189 H         1 RES1    0.0000
     38 H21        2.5468   -0.9586    1.9346 H         1 RES1    0.0000
     39 H22        0.3643   -1.8254    3.3568 H         1 RES1    0.0000
     40 H23        1.3927   -1.1162    4.3607 H         1 RES1    0.0000
     41 H24       -0.1478   -0.7577    4.4130 H         1 RES1    0.0000
     42 H25        2.1184    3.8346    3.4928 H         1 RES1    0.0000
     43 H26        2.6334    3.2962    4.9568 H         1 RES1    0.0000
     44 H27        1.3588    4.1629    4.8732 H         1 RES1    0.0000
     45 H28       -0.1883    1.0112    5.6365 H         1 RES1    0.0000
     46 H29        0.4386    2.3638    6.2535 H         1 RES1    0.0000
     47 H30        1.4038    1.1819    5.9921 H         1 RES1    0.0000
     48 N1         1.6601    1.3420    3.2578 N.3       1 RES1    0.0000
     49 O1         2.8574    0.8645    3.9425 O.3       1 RES1    0.0000
     50 C4B        5.8428   -0.4120   -0.6463 C.3       1 RES1    0.0000
     51 C3B        6.0031    0.4960   -1.8457 C.2       1 RES1    0.0000
     52 C2B        6.7113    0.2130   -2.9312 C.2       1 RES1    0.0000
     53 C1B        7.4104   -1.0927   -3.1592 C.3       1 RES1    0.0000
     54 C8B        6.4868   -2.0474   -3.9194 C.3       1 RES1    0.0000
     55 C7B        5.0556   -2.1720   -3.3579 C.3       1 RES1    0.0000
     56 C6B        4.9527   -2.5467   -1.8666 C.3       1 RES1    0.0000
     57 C5B        4.6840   -1.4068   -0.8753 C.3       1 RES1    0.0000
     58 H4B        6.6522   -0.9140   -0.5312 H         1 RES1    0.0000
     59 H5B        3.9058   -0.9127   -1.1712 H         1 RES1    0.0000
     60 H6B        4.4821   -1.8385    0.0209 H         1 RES1    0.0000
     61 H7B        4.2118   -3.1911   -1.7568 H         1 RES1    0.0000
     62 H8B        5.7537   -3.0663   -1.6000 H         1 RES1    0.0000
     63 H9B        4.5732   -2.8628   -3.8797 H         1 RES1    0.0000
     64 H10B       4.5528   -1.3657   -3.5032 H         1 RES1    0.0000
     65 H11B       6.9429   -2.9679   -3.9424 H         1 RES1    0.0000
     66 H12B       6.4145   -1.7334   -4.8418 H         1 RES1    0.0000
     67 H1B        7.6687   -1.4695   -2.2797 H         1 RES1    0.0000
     68 O1B        8.6201   -0.8645   -3.9425 O.3       1 RES1    0.0000
     69 N1B        9.8174   -1.3420   -3.2578 N.3       1 RES1    0.0000
     70 C9B       10.5676   -0.1505   -2.7461 C.3       1 RES1    0.0000
     71 C10B      11.8616   -0.6711   -2.1176 C.3       1 RES1    0.0000
     72 C11B      12.6848   -1.5548   -3.0494 C.3       1 RES1    0.0000
     73 C12B      11.8196   -2.6934   -3.5346 C.3       1 RES1    0.0000
     74 C13B      10.5250   -2.2438   -4.2300 C.3       1 RES1    0.0000
     75 C16B       9.6411   -3.4695   -4.4183 C.3       1 RES1    0.0000
     76 H25B       9.3591   -3.8346   -3.4928 H         1 RES1    0.0000
     77 H26B       8.8441   -3.2962   -4.9568 H         1 RES1    0.0000
     78 H27B      10.1187   -4.1629   -4.8732 H         1 RES1    0.0000
     79 C17B      10.8192   -1.6441   -5.6125 C.3       1 RES1    0.0000
     80 H28B      11.6658   -1.0112   -5.6365 H         1 RES1    0.0000
     81 H29B      11.0389   -2.3638   -6.2535 H         1 RES1    0.0000
     82 H30B      10.0737   -1.1819   -5.9921 H         1 RES1    0.0000
     83 H17B      12.3014   -3.2305   -4.1516 H         1 RES1    0.0000
     84 H18B      11.5821   -3.3224   -2.7503 H         1 RES1    0.0000
     85 H15B      13.0668   -1.0164   -3.8379 H         1 RES1    0.0000
     86 H16B      13.4572   -1.8779   -2.5516 H         1 RES1    0.0000
     87 H13B      11.6464   -1.2213   -1.3176 H         1 RES1    0.0000
     88 H14B      12.4235    0.0919   -1.8196 H         1 RES1    0.0000
     89 C14B       9.7267    0.4780   -1.6282 C.3       1 RES1    0.0000
     90 H19B       9.4537   -0.1970   -0.9725 H         1 RES1    0.0000
     91 H20B      10.2619    1.1425   -1.1189 H         1 RES1    0.0000
     92 H21B       8.9307    0.9586   -1.9346 H         1 RES1    0.0000
     93 C15B      10.8491    0.9442   -3.7898 C.3       1 RES1    0.0000
     94 H22B      11.1132    1.8254   -3.3568 H         1 RES1    0.0000
     95 H23B      10.0848    1.1162   -4.3607 H         1 RES1    0.0000
     96 H24B      11.6253    0.7577   -4.4130 H         1 RES1    0.0000
     97 H2B        6.6797    0.8050   -3.6496 H         1 RES1    0.0000
     98 H3B        5.4482    1.3211   -1.7882 H         1 RES1    0.0000
@<TRIPOS>BOND
     1    1    2 1
     2    2    3 2
     3    3    4 1
     4    4    5 1
     5    5    6 1
     6    6    7 1
     7    7    8 1
     8    8    1 1
     9    9   10 1
    10   10   11 1
    11   11   12 1
    12   12   13 1
    13   13   16 1
    14   14    9 1
    15   15    9 1
    16   16   42 1
    17   17   13 1
    18   18    1 1
    19   19    2 1
    20   20    3 1
    21   21    4 1
    22   22    5 1
    23   23    5 1
    24   24    6 1
    25   25    6 1
    26   26    7 1
    27   27    7 1
    28   28    8 1
    29   29    8 1
    30   30   10 1
    31   31   10 1
    32   32   11 1
    33   33   11 1
    34   34   12 1
    35   35   12 1
    36   36   14 1
    37   37   14 1
    38   38   14 1
    39   39   15 1
    40   40   15 1
    41   41   15 1
    42   43   16 1
    43   44   16 1
    44   45   17 1
    45   46   17 1
    46   47   17 1
    47   48    9 1
    48   49    1 1
    49   50    4 1
    50   51   50 1
    51   52   51 2
    52   53   52 1
    53   54   53 1
    54   55   54 1
    55   56   55 1
    56   57   50 1
    57   58   50 1
    58   59   57 1
    59   60   57 1
    60   61   56 1
    61   62   56 1
    62   63   55 1
    63   64   55 1
    64   65   54 1
    65   66   54 1
    66   67   53 1
    67   68   53 1
    68   69   68 1
    69   70   69 1
    70   71   70 1
    71   72   71 1
    72   73   72 1
    73   74   69 1
    74   75   74 1
    75   76   75 1
    76   77   75 1
    77   78   75 1
    78   79   74 1
    79   80   79 1
    80   81   79 1
    81   82   79 1
    82   83   73 1
    83   84   73 1
    84   85   72 1
    85   86   72 1
    86   87   71 1
    87   88   71 1
    88   89   70 1
    89   90   89 1
    90   91   89 1
    91   92   89 1
    92   93   70 1
    93   94   93 1
    94   95   93 1
    95   96   93 1
    96   97   52 1
    97   98   51 1
    98   13   48 1
    99   48   49 1
   100   56   57 1
   101   73   74 1
@<TRIPOS>SUBSTRUCTURE
     1 RES1 1

@<TRIPOS>CRYSIN
  11.4775   13.1321   10.8253  90.0000 104.9800  90.0000  14 1

