# MOL2 file generated by ConQuest
# Please check atom types

@<TRIPOS>MOLECULE
OFOYEQ
    67    71     2
SMALL
NO_CHARGES
****
Generated from CSD

@<TRIPOS>ATOM
      1 O1         0.8346    6.9327    7.3512 O.2       1 RES1    0.0000
      2 O2         3.7070    7.2782    2.7960 O.3       1 RES1    0.0000
      3 O3         7.5540    8.9012    3.0342 O.3       1 RES1    0.0000
      4 C1         6.0351    7.0576    3.4978 C.ar      1 RES1    0.0000
      5 C2         5.1995    9.1880    2.5634 C.ar      1 RES1    0.0000
      6 C3         7.3137    7.5787    3.3648 C.ar      1 RES1    0.0000
      7 C4         5.8891   11.6559    1.3332 C.ar      1 RES1    0.0000
      8 C5         4.3320    8.3499    4.7649 C.ar      1 RES1    0.0000
      9 C6         4.2409    9.9961    1.9631 C.ar      1 RES1    0.0000
     10 H1         3.3511    9.7245    1.9808 H         1 RES1    0.0000
     11 C7         4.5591   11.1791    1.3456 C.ar      1 RES1    0.0000
     12 H2         3.8910   11.6734    0.9300 H         1 RES1    0.0000
     13 C8         7.0170    4.9186    4.0811 C.ar      1 RES1    0.0000
     14 C9         4.8496    7.9800    3.3935 C.3       1 RES1    0.0000
     15 C10        8.3079    5.4673    3.9842 C.ar      1 RES1    0.0000
     16 C11        6.5105    9.6328    2.4958 C.ar      1 RES1    0.0000
     17 C12        3.0409    7.8896    4.9092 C.ar      1 RES1    0.0000
     18 C13        4.3289    9.1895    6.9827 C.ar      1 RES1    0.0000
     19 H3         4.7587    9.6286    7.6805 H         1 RES1    0.0000
     20 C14        8.4327    6.7913    3.6015 C.ar      1 RES1    0.0000
     21 H4         9.2811    7.1603    3.5008 H         1 RES1    0.0000
     22 C15        4.9908    9.0049    5.7839 C.ar      1 RES1    0.0000
     23 H5         5.8594    9.3151    5.6677 H         1 RES1    0.0000
     24 C16        5.9116    5.7156    3.8437 C.ar      1 RES1    0.0000
     25 H6         5.0629    5.3443    3.9179 H         1 RES1    0.0000
     26 O4         1.6009    6.7399    3.3295 O.2       1 RES1    0.0000
     27 C17        6.8670   10.8276    1.9074 C.ar      1 RES1    0.0000
     28 H7         7.7592   11.0869    1.8896 H         1 RES1    0.0000
     29 N1         6.8402    3.5727    4.5062 N.3       1 RES1    0.0000
     30 N2         6.2053   12.8763    0.7792 N.3       1 RES1    0.0000
     31 C18        3.0279    8.7278    7.1616 C.ar      1 RES1    0.0000
     32 H8         2.5900    8.8540    7.9720 H         1 RES1    0.0000
     33 C19        7.0878    2.4705    3.6868 C.ar      1 RES1    0.0000
     34 C20        2.3988    8.0833    6.1250 C.ar      1 RES1    0.0000
     35 C21        2.6387    7.2352    3.6503 C.2       1 RES1    0.0000
     36 C22        9.5276    4.6674    4.3278 C.3       1 RES1    0.0000
     37 H9        10.3081    5.2219    4.2448 H         1 RES1    0.0000
     38 H10        9.6004    3.9209    3.7283 H         1 RES1    0.0000
     39 H11        9.4579    4.3483    5.2305 H         1 RES1    0.0000
     40 C23        6.7514    1.1962    4.1465 C.ar      1 RES1    0.0000
     41 H12        6.3502    1.0938    4.9794 H         1 RES1    0.0000
     42 C24        5.1784   13.6870    0.1374 C.3       1 RES1    0.0000
     43 H13        4.5989   13.1013   -0.3756 H         1 RES1    0.0000
     44 H14        5.6085   14.2911   -0.4881 H         1 RES1    0.0000
     45 N3         1.0457    7.5645    6.3560 N.pl3     1 RES1    0.0000
     46 C25        7.6800    2.5823    2.4310 C.ar      1 RES1    0.0000
     47 H15        7.9096    3.4212    2.1017 H         1 RES1    0.0000
     48 C26        7.5083   13.5101    0.9798 C.3       1 RES1    0.0000
     49 H16        7.3748   14.4538    1.1610 H         1 RES1    0.0000
     50 H17        7.9327   13.1167    1.7581 H         1 RES1    0.0000
     51 C27        7.0174    0.0824    3.3610 C.ar      1 RES1    0.0000
     52 H18        6.7952   -0.7638    3.6762 H         1 RES1    0.0000
     53 C28        7.6071    0.2131    2.1183 C.ar      1 RES1    0.0000
     54 H19        7.7815   -0.5381    1.5982 H         1 RES1    0.0000
     55 C29        7.9298    1.4500    1.6669 C.ar      1 RES1    0.0000
     56 H20        8.3253    1.5419    0.8305 H         1 RES1    0.0000
     57 C30        8.3629   13.3740   -0.1232 C.3       1 RES1    0.0000
     58 H21        8.6286   12.4552   -0.2097 H         1 RES1    0.0000
     59 H22        9.1407   13.9217    0.0059 H         1 RES1    0.0000
     60 H23        7.9041   13.6510   -0.9193 H         1 RES1    0.0000
     61 O5         0.1488    8.0246    5.8335 O.2       1 RES1    0.0000
     62 C31        4.3318   14.4924    1.0757 C.3       1 RES1    0.0000
     63 H24        3.8680   13.9036    1.6752 H         1 RES1    0.0000
     64 H25        3.6945   15.0042    0.5734 H         1 RES1    0.0000
     65 H26        4.8914   15.0867    1.5804 H         1 RES1    0.0000
     66 H27        6.1890    3.4273    5.0232 H         1 RES1    0.0000
     67 O6         0.9437    6.3393    6.4922 Du        2 SUP2    0.0000
@<TRIPOS>BOND
     1    1   45 2
     2    2   14 1
     3    3    6 1
     4    4    6 ar
     5    5    9 ar
     6    6   20 ar
     7    7   11 ar
     8    8   14 1
     9    9   10 1
    10   11    9 ar
    11   12   11 1
    12   13   15 ar
    13   14    4 1
    14   15   20 ar
    15   16    3 1
    16   17    8 ar
    17   18   19 1
    18   20   21 1
    19   22    8 ar
    20   23   22 1
    21   24    4 ar
    22   25   24 1
    23   26   35 2
    24   27    7 ar
    25   28   27 1
    26   29   13 1
    27   30    7 1
    28   31   18 ar
    29   32   31 1
    30   33   29 1
    31   34   17 ar
    32   35    2 1
    33   36   15 1
    34   37   36 1
    35   38   36 1
    36   39   36 1
    37   40   33 ar
    38   41   40 1
    39   42   30 1
    40   43   42 1
    41   44   42 1
    42   45   34 1
    43   46   33 ar
    44   47   46 1
    45   48   30 1
    46   49   48 1
    47   50   48 1
    48   51   40 ar
    49   52   51 1
    50   53   51 ar
    51   54   53 1
    52   55   46 ar
    53   56   55 1
    54   57   48 1
    55   58   57 1
    56   59   57 1
    57   60   57 1
    58   61   45 2
    59   62   42 1
    60   63   62 1
    61   64   62 1
    62   65   62 1
    63   66   29 1
    64    5   14 1
    65    5   16 ar
    66   13   24 ar
    67   16   27 ar
    68   17   35 1
    69   18   22 ar
    70   31   34 ar
    71   53   55 ar
@<TRIPOS>SUBSTRUCTURE
     1 RES1 1
     2 SUP2 67

@<TRIPOS>CRYSIN
  10.5580   11.1520   11.8680  89.9400  86.7500  72.1500   2 1

