# MOL2 file generated by ConQuest
# Please check atom types

@<TRIPOS>MOLECULE
OFUDAX
    44    46     1
SMALL
NO_CHARGES
****
Generated from CSD

@<TRIPOS>ATOM
      1 O1         3.9652    5.1829   30.6206 O.2       1 RES1    0.0000
      2 O2         2.4214    1.0107   27.6413 O.2       1 RES1    0.0000
      3 N1         2.8642    3.2302   30.4592 N.am      1 RES1    0.0000
      4 O3         4.3745    2.2734   32.4477 O.2       1 RES1    0.0000
      5 N2         3.5080    2.9734   27.8062 N.am      1 RES1    0.0000
      6 N3         3.8739    2.9060   26.4720 N.am      1 RES1    0.0000
      7 N4         2.5007    3.3017   31.7926 N.am      1 RES1    0.0000
      8 O4         1.9279    3.7472   25.7735 O.2       1 RES1    0.0000
      9 C1         3.5982    4.2215   29.9554 C.2       1 RES1    0.0000
     10 C2         2.7788    1.9733   28.3073 C.2       1 RES1    0.0000
     11 C3         3.9807    4.1371   28.5137 C.3       1 RES1    0.0000
     12 H1         3.6437    4.9268   28.0624 H         1 RES1    0.0000
     13 H2         4.9489    4.1588   28.4543 H         1 RES1    0.0000
     14 C4         3.3113    2.7846   32.7388 C.2       1 RES1    0.0000
     15 C5         2.3986    2.0624   29.7544 C.3       1 RES1    0.0000
     16 H3         1.4303    2.0348   29.8165 H         1 RES1    0.0000
     17 H4         2.7403    1.2762   30.2085 H         1 RES1    0.0000
     18 C6         2.8241    2.9259   34.1324 C.ar      1 RES1    0.0000
     19 C7         3.0282    3.3205   25.5220 C.2       1 RES1    0.0000
     20 C8         3.5531    3.1751   24.1229 C.ar      1 RES1    0.0000
     21 C9         2.0949    4.0292   34.5484 C.ar      1 RES1    0.0000
     22 H5         1.8740    4.6970   33.9380 H         1 RES1    0.0000
     23 N5         4.9806    2.8878   20.1699 N.pl3     1 RES1    0.0000
     24 O5         4.7294    3.7941   19.4128 O.2       1 RES1    0.0000
     25 C10        4.3526    2.1134   23.7589 C.ar      1 RES1    0.0000
     26 H6         4.5898    1.4715   24.3872 H         1 RES1    0.0000
     27 C11        1.6959    4.1389   35.8675 C.ar      1 RES1    0.0000
     28 H7         1.2216    4.8875   36.1500 H         1 RES1    0.0000
     29 C12        3.2007    4.1295   23.1880 C.ar      1 RES1    0.0000
     30 H8         2.6532    4.8400   23.4325 H         1 RES1    0.0000
     31 C13        3.1342    1.9381   35.0405 C.ar      1 RES1    0.0000
     32 H9         3.6306    1.1994   34.7685 H         1 RES1    0.0000
     33 C14        4.4616    2.9740   21.5569 C.ar      1 RES1    0.0000
     34 C15        1.9999    3.1387   36.7628 C.ar      1 RES1    0.0000
     35 H10        1.7237    3.2067   37.6481 H         1 RES1    0.0000
     36 C16        4.8032    2.0055   22.4515 C.ar      1 RES1    0.0000
     37 H11        5.3287    1.2839   22.1907 H         1 RES1    0.0000
     38 C17        3.6614    4.0292   21.8872 C.ar      1 RES1    0.0000
     39 H12        3.4308    4.6676   21.2515 H         1 RES1    0.0000
     40 C18        2.7107    2.0419   36.3495 C.ar      1 RES1    0.0000
     41 H13        2.9087    1.3642   36.9534 H         1 RES1    0.0000
     42 O6         5.6060    1.9158   19.8738 O.2       1 RES1    0.0000
     43 H14        4.6290    2.7026   26.3626 H         1 RES1    0.0000
     44 H15        1.7180    3.5233   31.8889 H         1 RES1    0.0000
@<TRIPOS>BOND
     1    1    9 2
     2    2   10 2
     3    3    7 1
     4    4   14 2
     5    5    6 1
     6    6   19 1
     7    7   14 1
     8    8   19 2
     9    9    3 1
    10   10    5 1
    11   11    5 1
    12   12   11 1
    13   13   11 1
    14   14   18 1
    15   15    3 1
    16   16   15 1
    17   17   15 1
    18   18   21 ar
    19   19   20 1
    20   20   25 ar
    21   21   22 1
    22   23   24 2
    23   25   26 1
    24   27   21 ar
    25   28   27 1
    26   29   20 ar
    27   30   29 1
    28   31   18 ar
    29   32   31 1
    30   33   23 1
    31   34   27 ar
    32   35   34 1
    33   36   25 ar
    34   37   36 1
    35   38   29 ar
    36   39   38 1
    37   40   31 ar
    38   41   40 1
    39   42   23 2
    40   43    6 1
    41   44    7 1
    42    9   11 1
    43   10   15 1
    44   33   36 ar
    45   33   38 ar
    46   34   40 ar
@<TRIPOS>SUBSTRUCTURE
     1 RES1 1

@<TRIPOS>CRYSIN
   7.9755    5.8624   38.8230  90.0000  91.5700  90.0000 231 1

