# MOL2 file generated by ConQuest
# Please check atom types

@<TRIPOS>MOLECULE
OGENEU
    33    35     1
SMALL
NO_CHARGES
****
Generated from CSD

@<TRIPOS>ATOM
      1 O1         0.4905    2.8286    7.3336 O.2       1 RES1    0.0000
      2 O2         1.3995    5.6157    7.8133 O.2       1 RES1    0.0000
      3 O3         2.8796    5.1497    9.3324 O.2       1 RES1    0.0000
      4 N1        -0.5422    4.6905    2.9429 N.ar      1 RES1    0.0000
      5 N2         0.3193    3.5912    5.1899 N.am      1 RES1    0.0000
      6 H1         0.8083    3.8902    4.5218 H         1 RES1    0.0000
      7 N3         2.4267    5.0570    8.1971 N.pl3     1 RES1    0.0000
      8 C1        -0.9513    5.2995    1.8460 C.ar      1 RES1    0.0000
      9 H2        -0.3032    5.7527    1.3191 H         1 RES1    0.0000
     10 C2        -2.2894    5.3183    1.4082 C.ar      1 RES1    0.0000
     11 H3        -2.5292    5.7730    0.6090 H         1 RES1    0.0000
     12 C3        -3.2381    4.6725    2.1493 C.ar      1 RES1    0.0000
     13 H4        -4.1426    4.6571    1.8609 H         1 RES1    0.0000
     14 C4        -3.7792    3.3900    4.2192 C.ar      1 RES1    0.0000
     15 H5        -4.6992    3.3455    3.9892 H         1 RES1    0.0000
     16 C5        -3.3368    2.8389    5.3887 C.ar      1 RES1    0.0000
     17 H6        -3.9637    2.4224    5.9689 H         1 RES1    0.0000
     18 C6        -1.9699    2.8714    5.7613 C.ar      1 RES1    0.0000
     19 H7        -1.6874    2.4762    6.5778 H         1 RES1    0.0000
     20 C7        -1.0555    3.4770    4.9359 C.ar      1 RES1    0.0000
     21 C8        -1.4903    4.0707    3.7051 C.ar      1 RES1    0.0000
     22 C9        -2.8605    4.0273    3.3508 C.ar      1 RES1    0.0000
     23 C10        0.9946    3.3008    6.3296 C.2       1 RES1    0.0000
     24 C11        2.4796    3.5397    6.2432 C.ar      1 RES1    0.0000
     25 C12        3.1697    4.2597    7.2206 C.ar      1 RES1    0.0000
     26 C13        4.5507    4.3232    7.2599 C.ar      1 RES1    0.0000
     27 H8         4.9945    4.8093    7.9454 H         1 RES1    0.0000
     28 C14        5.2743    3.6637    6.2793 C.ar      1 RES1    0.0000
     29 H9         6.2240    3.6813    6.2960 H         1 RES1    0.0000
     30 C15        4.6134    2.9797    5.2755 C.ar      1 RES1    0.0000
     31 H10        5.1137    2.5543    4.5899 H         1 RES1    0.0000
     32 C16        3.2264    2.9076    5.2579 C.ar      1 RES1    0.0000
     33 H11        2.7864    2.4234    4.5682 H         1 RES1    0.0000
@<TRIPOS>BOND
     1    1   23 2
     2    2    7 2
     3    3    7 2
     4    4    8 ar
     5    5    6 1
     6    7   25 1
     7    8    9 1
     8   10    8 ar
     9   11   10 1
    10   12   10 ar
    11   13   12 1
    12   14   15 1
    13   16   14 ar
    14   17   16 1
    15   18   16 ar
    16   19   18 1
    17   20    5 1
    18   21    4 ar
    19   22   12 ar
    20   23    5 1
    21   24   23 1
    22   25   24 ar
    23   26   25 ar
    24   27   26 1
    25   28   26 ar
    26   29   28 1
    27   30   28 ar
    28   31   30 1
    29   32   24 ar
    30   33   32 1
    31   14   22 ar
    32   18   20 ar
    33   20   21 ar
    34   21   22 ar
    35   30   32 ar
@<TRIPOS>SUBSTRUCTURE
     1 RES1 1

@<TRIPOS>CRYSIN
  12.4300   10.1440   11.5280  90.0000 116.4490  90.0000  14 1

