# MOL2 file generated by ConQuest
# Please check atom types

@<TRIPOS>MOLECULE
OGENIY01
    66    70     2
SMALL
NO_CHARGES
****
Generated from CSD

@<TRIPOS>ATOM
      1 O1        -0.4271    0.0041    2.8982 O.2       1 RES1    0.0000
      2 O2        -3.2834    3.8174    1.4016 O.2       1 RES1    0.0000
      3 O3        -2.4142    5.7665    1.1832 O.2       1 RES1    0.0000
      4 N1         1.8397    0.8040    7.0692 N.ar      1 RES1    0.0000
      5 N2         0.9383    0.6438    4.6139 N.am      1 RES1    0.0000
      6 H1         1.2825    1.3412    4.9807 H         1 RES1    0.0000
      7 N3        -2.3668    4.5898    1.5154 N.pl3     1 RES1    0.0000
      8 C1         2.2923    0.9132    8.3164 C.ar      1 RES1    0.0000
      9 H2         2.3900    1.7667    8.6749 H         1 RES1    0.0000
     10 C2         2.6271   -0.1793    9.1148 C.ar      1 RES1    0.0000
     11 H3         2.9271   -0.0478    9.9847 H         1 RES1    0.0000
     12 C3         2.5139   -1.4392    8.6154 C.ar      1 RES1    0.0000
     13 H4         2.7430   -2.1755    9.1374 H         1 RES1    0.0000
     14 C4         2.0449   -1.6175    7.2981 C.ar      1 RES1    0.0000
     15 C5         1.8877   -2.8807    6.6986 C.ar      1 RES1    0.0000
     16 H5         2.0928   -3.6553    7.1716 H         1 RES1    0.0000
     17 C6         1.4288   -2.9568    5.4137 C.ar      1 RES1    0.0000
     18 H6         1.3446   -3.7916    5.0138 H         1 RES1    0.0000
     19 C7         1.0777   -1.8057    4.6756 C.ar      1 RES1    0.0000
     20 H7         0.7498   -1.8862    3.8095 H         1 RES1    0.0000
     21 C8         1.2240   -0.5831    5.2412 C.ar      1 RES1    0.0000
     22 C9         1.7197   -0.4518    6.5721 C.ar      1 RES1    0.0000
     23 C10        0.1846    0.8700    3.4992 C.2       1 RES1    0.0000
     24 C11        0.1279    2.3170    3.0887 C.ar      1 RES1    0.0000
     25 C12        1.2027    3.1803    3.2409 C.ar      1 RES1    0.0000
     26 H8         1.9910    2.8736    3.6272 H         1 RES1    0.0000
     27 C13        1.1064    4.4968    2.8198 C.ar      1 RES1    0.0000
     28 H9         1.8354    5.0658    2.9185 H         1 RES1    0.0000
     29 C14       -0.0582    4.9716    2.2550 C.ar      1 RES1    0.0000
     30 H10       -0.1309    5.8571    1.9838 H         1 RES1    0.0000
     31 C15       -1.1022    4.1040    2.1051 C.ar      1 RES1    0.0000
     32 C16       -1.0413    2.7808    2.5035 C.ar      1 RES1    0.0000
     33 H11       -1.7686    2.2137    2.3807 H         1 RES1    0.0000
     34 O4         3.9772    1.7602    4.6184 O.2       2 RES2    0.0000
     35 O5         4.5570   -3.0094    3.4435 O.2       2 RES2    0.0000
     36 O6         5.2357   -4.3751    4.9242 O.2       2 RES2    0.0000
     37 N4         7.8394    3.8762    6.5231 N.ar      2 RES2    0.0000
     38 N5         5.6485    2.5410    5.9507 N.am      2 RES2    0.0000
     39 H12        6.2300    2.2902    6.5329 H         2 RES2    0.0000
     40 N6         4.9760   -3.2429    4.5514 N.pl3     2 RES2    0.0000
     41 C17        8.9624    4.5231    6.8289 C.ar      2 RES2    0.0000
     42 H13        9.6656    4.0378    7.1957 H         2 RES2    0.0000
     43 C18        9.1364    5.8834    6.6278 C.ar      2 RES2    0.0000
     44 H14        9.9338    6.2874    6.8794 H         2 RES2    0.0000
     45 C19        8.1478    6.6269    6.0660 C.ar      2 RES2    0.0000
     46 H15        8.2721    7.5353    5.9086 H         2 RES2    0.0000
     47 C20        6.9289    6.0008    5.7233 C.ar      2 RES2    0.0000
     48 C21        5.8253    6.6558    5.1584 C.ar      2 RES2    0.0000
     49 H16        5.8669    7.5712    4.9980 H         2 RES2    0.0000
     50 C22        4.6943    5.9692    4.8436 C.ar      2 RES2    0.0000
     51 H17        3.9764    6.4261    4.4670 H         2 RES2    0.0000
     52 C23        4.5842    4.5884    5.0718 C.ar      2 RES2    0.0000
     53 H18        3.8087    4.1310    4.8376 H         2 RES2    0.0000
     54 C24        5.6305    3.9269    5.6412 C.ar      2 RES2    0.0000
     55 C25        6.8292    4.6034    5.9763 C.ar      2 RES2    0.0000
     56 C26        4.8629    1.5687    5.4408 C.2       2 RES2    0.0000
     57 C27        5.1696    0.1913    5.9357 C.ar      2 RES2    0.0000
     58 C28        4.9107   -0.8678    5.0740 C.ar      2 RES2    0.0000
     59 H19        4.5436   -0.7172    4.2335 H         2 RES2    0.0000
     60 C29        5.2074   -2.1296    5.4898 C.ar      2 RES2    0.0000
     61 C30        5.7104   -2.4150    6.7385 C.ar      2 RES2    0.0000
     62 H20        5.8763   -3.2943    6.9946 H         2 RES2    0.0000
     63 C31        5.9641   -1.3734    7.5979 C.ar      2 RES2    0.0000
     64 H21        6.3115   -1.5420    8.4437 H         2 RES2    0.0000
     65 C32        5.6999   -0.0700    7.2010 C.ar      2 RES2    0.0000
     66 H22        5.8773    0.6335    7.7817 H         2 RES2    0.0000
@<TRIPOS>BOND
     1    1   23 2
     2    2    7 2
     3    3    7 2
     4    4    8 ar
     5    5    6 1
     6    7   31 1
     7    8    9 1
     8   10    8 ar
     9   11   10 1
    10   12   10 ar
    11   13   12 1
    12   14   12 ar
    13   15   14 ar
    14   16   15 1
    15   17   15 ar
    16   18   17 1
    17   19   17 ar
    18   20   19 1
    19   21    5 1
    20   22    4 ar
    21   23    5 1
    22   24   23 1
    23   25   24 ar
    24   26   25 1
    25   27   25 ar
    26   28   27 1
    27   29   27 ar
    28   30   29 1
    29   31   29 ar
    30   32   24 ar
    31   33   32 1
    32   34   56 2
    33   35   40 2
    34   36   40 2
    35   37   41 ar
    36   38   39 1
    37   40   60 1
    38   41   42 1
    39   43   41 ar
    40   44   43 1
    41   45   43 ar
    42   46   45 1
    43   47   45 ar
    44   48   47 ar
    45   49   48 1
    46   50   48 ar
    47   51   50 1
    48   52   50 ar
    49   53   52 1
    50   54   38 1
    51   55   37 ar
    52   56   38 1
    53   57   56 1
    54   58   57 ar
    55   59   58 1
    56   60   58 ar
    57   61   60 ar
    58   62   61 1
    59   63   61 ar
    60   64   63 1
    61   65   57 ar
    62   66   65 1
    63   14   22 ar
    64   19   21 ar
    65   21   22 ar
    66   31   32 ar
    67   47   55 ar
    68   52   54 ar
    69   54   55 ar
    70   63   65 ar
@<TRIPOS>SUBSTRUCTURE
     1 RES1 1
     2 RES2 34

@<TRIPOS>CRYSIN
   7.5262   23.9065    7.5360  90.0000  91.9550  90.0000   4 1

