# MOL2 file generated by ConQuest
# Please check atom types

@<TRIPOS>MOLECULE
OGENIY
    66    70     2
SMALL
NO_CHARGES
****
Generated from CSD

@<TRIPOS>ATOM
      1 O1         2.7603    4.5597    3.3218 O.2       1 RES1    0.0000
      2 O2         1.3745    8.4148    0.4417 O.2       1 RES1    0.0000
      3 O3         1.1427   10.3683    1.3267 O.2       1 RES1    0.0000
      4 N1         6.8579    5.3745    5.7439 N.ar      1 RES1    0.0000
      5 N2         4.4382    5.1994    4.7325 N.am      1 RES1    0.0000
      6 H1         4.8008    5.9146    5.0939 H         1 RES1    0.0000
      7 N3         1.4776    9.1909    1.3861 N.pl3     1 RES1    0.0000
      8 C1         8.0790    5.4986    6.2369 C.ar      1 RES1    0.0000
      9 H2         8.4264    6.3754    6.3552 H         1 RES1    0.0000
     10 C2         8.8894    4.4155    6.5946 C.ar      1 RES1    0.0000
     11 H3         9.7674    4.5607    6.9270 H         1 RES1    0.0000
     12 C3         8.4036    3.1471    6.4608 C.ar      1 RES1    0.0000
     13 H4         8.9381    2.4021    6.7106 H         1 RES1    0.0000
     14 C4         6.5018    1.6803    5.7751 C.ar      1 RES1    0.0000
     15 H5         6.9775    0.8930    6.0101 H         1 RES1    0.0000
     16 C5         5.2359    1.5908    5.2687 C.ar      1 RES1    0.0000
     17 H6         4.8404    0.7331    5.1676 H         1 RES1    0.0000
     18 C6         4.5002    2.7314    4.8924 C.ar      1 RES1    0.0000
     19 H7         3.6256    2.6385    4.5340 H         1 RES1    0.0000
     20 C7         5.0567    3.9793    5.0456 C.ar      1 RES1    0.0000
     21 C8         6.3722    4.1092    5.5966 C.ar      1 RES1    0.0000
     22 C9         7.1016    2.9477    5.9484 C.ar      1 RES1    0.0000
     23 C10        3.3568    5.4220    3.9487 C.2       1 RES1    0.0000
     24 C11        2.9430    6.8668    3.8870 C.ar      1 RES1    0.0000
     25 C12        2.3879    7.3458    2.7098 C.ar      1 RES1    0.0000
     26 H8         2.2622    6.7718    1.9632 H         1 RES1    0.0000
     27 C13        2.0242    8.6737    2.6474 C.ar      1 RES1    0.0000
     28 C14        2.1648    9.5448    3.7085 C.ar      1 RES1    0.0000
     29 H9         1.9091   10.4562    3.6312 H         1 RES1    0.0000
     30 C15        2.6897    9.0464    4.8894 C.ar      1 RES1    0.0000
     31 H10        2.7783    9.6157    5.6450 H         1 RES1    0.0000
     32 C16        3.0877    7.7224    4.9757 C.ar      1 RES1    0.0000
     33 H11        3.4619    7.3950    5.7848 H         1 RES1    0.0000
     34 O4         4.4781    6.2465    0.3123 O.2       2 RES2    0.0000
     35 O5         3.3007    1.4831    0.8968 O.2       2 RES2    0.0000
     36 O6         4.7872    0.1096    1.6234 O.2       2 RES2    0.0000
     37 N4         6.3295    8.3924    4.1733 N.ar      2 RES2    0.0000
     38 N5         5.8170    7.0464    1.9707 N.am      2 RES2    0.0000
     39 H12        6.4251    6.8028    2.5581 H         2 RES2    0.0000
     40 N6         4.4191    1.2414    1.3467 N.pl3     2 RES2    0.0000
     41 C17        6.6235    9.0376    5.2903 C.ar      2 RES2    0.0000
     42 H13        6.9915    8.5435    6.0131 H         2 RES2    0.0000
     43 C18        6.4175   10.4194    5.4628 C.ar      2 RES2    0.0000
     44 H14        6.6529   10.8406    6.2808 H         2 RES2    0.0000
     45 C19        5.8786   11.1420    4.4470 C.ar      2 RES2    0.0000
     46 H15        5.7163   12.0703    4.5585 H         2 RES2    0.0000
     47 C20        5.0079   11.1692    2.1053 C.ar      2 RES2    0.0000
     48 H16        4.8429   12.1038    2.1424 H         2 RES2    0.0000
     49 C21        4.7112   10.4736    0.9727 C.ar      2 RES2    0.0000
     50 H17        4.3353   10.9313    0.2298 H         2 RES2    0.0000
     51 C22        4.9529    9.0818    0.8820 C.ar      2 RES2    0.0000
     52 H18        4.7357    8.6104    0.0855 H         2 RES2    0.0000
     53 C23        5.4972    8.4191    1.9394 C.ar      2 RES2    0.0000
     54 C24        5.8122    9.1209    3.1441 C.ar      2 RES2    0.0000
     55 C25        5.5602   10.5073    3.2229 C.ar      2 RES2    0.0000
     56 C26        5.2976    6.0569    1.2025 C.2       2 RES2    0.0000
     57 C27        5.7860    4.6830    1.5326 C.ar      2 RES2    0.0000
     58 C28        4.9308    3.6189    1.2642 C.ar      2 RES2    0.0000
     59 H19        4.0787    3.7679    0.8730 H         2 RES2    0.0000
     60 C29        5.3456    2.3482    1.5773 C.ar      2 RES2    0.0000
     61 C30        6.5890    2.0690    2.1149 C.ar      2 RES2    0.0000
     62 H20        6.8498    1.1748    2.3045 H         2 RES2    0.0000
     63 C31        7.4429    3.1268    2.3692 C.ar      2 RES2    0.0000
     64 H21        8.3057    2.9656    2.7321 H         2 RES2    0.0000
     65 C32        7.0357    4.4282    2.0926 C.ar      2 RES2    0.0000
     66 H22        7.6174    5.1529    2.2882 H         2 RES2    0.0000
@<TRIPOS>BOND
     1    1   23 2
     2    2    7 2
     3    3    7 2
     4    4    8 ar
     5    5    6 1
     6    7   27 1
     7    8    9 1
     8   10    8 ar
     9   11   10 1
    10   12   10 ar
    11   13   12 1
    12   14   15 1
    13   16   14 ar
    14   17   16 1
    15   18   16 ar
    16   19   18 1
    17   20    5 1
    18   21    4 ar
    19   22   12 ar
    20   23    5 1
    21   24   23 1
    22   25   24 ar
    23   26   25 1
    24   27   25 ar
    25   28   27 ar
    26   29   28 1
    27   30   28 ar
    28   31   30 1
    29   32   24 ar
    30   33   32 1
    31   34   56 2
    32   35   40 2
    33   36   40 2
    34   37   41 ar
    35   38   39 1
    36   40   60 1
    37   41   42 1
    38   43   41 ar
    39   44   43 1
    40   45   43 ar
    41   46   45 1
    42   47   48 1
    43   49   47 ar
    44   50   49 1
    45   51   49 ar
    46   52   51 1
    47   53   38 1
    48   54   37 ar
    49   55   45 ar
    50   56   38 1
    51   57   56 1
    52   58   57 ar
    53   59   58 1
    54   60   58 ar
    55   61   60 ar
    56   62   61 1
    57   63   61 ar
    58   64   63 1
    59   65   57 ar
    60   66   65 1
    61   14   22 ar
    62   18   20 ar
    63   20   21 ar
    64   21   22 ar
    65   30   32 ar
    66   47   55 ar
    67   51   53 ar
    68   53   54 ar
    69   54   55 ar
    70   63   65 ar
@<TRIPOS>SUBSTRUCTURE
     1 RES1 1
     2 RES2 34

@<TRIPOS>CRYSIN
   7.3783   23.8780    7.4371  90.0000  90.7750  90.0000   4 1

