# MOL2 file generated by ConQuest
# Please check atom types

@<TRIPOS>MOLECULE
OGEPUM03
    33    35     1
SMALL
NO_CHARGES
****
Generated from CSD

@<TRIPOS>ATOM
      1 C1         3.2567   19.5566    0.2171 C.ar      1 RES1    0.0000
      2 C2         1.4236   18.0899   -0.3729 C.ar      1 RES1    0.0000
      3 H1         1.0770   17.2371   -0.5026 H         1 RES1    0.0000
      4 C3         2.7241   18.2437    0.0303 C.ar      1 RES1    0.0000
      5 C4         2.4385   20.6737   -0.0099 C.ar      1 RES1    0.0000
      6 C5         6.4569   13.2014    1.5107 C.ar      1 RES1    0.0000
      7 C6         4.5085   14.9765    0.7197 C.ar      1 RES1    0.0000
      8 C7         6.8403   14.4315    1.0391 C.ar      1 RES1    0.0000
      9 H2         7.7393   14.6646    0.9869 H         1 RES1    0.0000
     10 C8         5.1500   12.8080    1.5755 C.ar      1 RES1    0.0000
     11 H3         4.9200   11.9587    1.8786 H         1 RES1    0.0000
     12 C9         0.6102   19.2171   -0.5921 C.ar      1 RES1    0.0000
     13 H4        -0.2695   19.1023   -0.8706 H         1 RES1    0.0000
     14 C10        5.8531   15.3173    0.6422 C.ar      1 RES1    0.0000
     15 H5         6.0943   16.1547    0.3172 H         1 RES1    0.0000
     16 C11        4.1776   13.7101    1.1758 C.ar      1 RES1    0.0000
     17 H6         3.2824   13.4615    1.2146 H         1 RES1    0.0000
     18 C12        5.0451   20.8761    0.7719 C.ar      1 RES1    0.0000
     19 H7         5.9317   20.9599    1.0412 H         1 RES1    0.0000
     20 C13        4.3143   22.0490    0.5731 C.ar      1 RES1    0.0000
     21 H8         4.7062   22.8830    0.7035 H         1 RES1    0.0000
     22 C14        3.0124   21.9426    0.1833 C.ar      1 RES1    0.0000
     23 H9         2.5031   22.7093    0.0458 H         1 RES1    0.0000
     24 C15        1.0960   20.4736   -0.4011 C.ar      1 RES1    0.0000
     25 H10        0.5389   21.2066   -0.5287 H         1 RES1    0.0000
     26 C16        3.3720   15.8620    0.3165 C.2       1 RES1    0.0000
     27 N1         3.6137   17.1966    0.3038 N.am      1 RES1    0.0000
     28 H11        4.4202   17.4309    0.4885 H         1 RES1    0.0000
     29 N2         4.5687   19.6548    0.6055 N.ar      1 RES1    0.0000
     30 O1         2.2771   15.3817    0.0416 O.2       1 RES1    0.0000
     31 O2         8.6585   12.6049    1.9336 O.2       1 RES1    0.0000
     32 O3         7.1332   11.1714    2.4151 O.2       1 RES1    0.0000
     33 N3         7.4873   12.2512    1.9731 N.pl3     1 RES1    0.0000
@<TRIPOS>BOND
     1    1    4 ar
     2    2    3 1
     3    4    2 ar
     4    5    1 ar
     5    6    8 ar
     6    7   14 ar
     7    8    9 1
     8   10    6 ar
     9   11   10 1
    10   12    2 ar
    11   13   12 1
    12   14    8 ar
    13   15   14 1
    14   16    7 ar
    15   17   16 1
    16   18   19 1
    17   20   18 ar
    18   21   20 1
    19   22    5 ar
    20   23   22 1
    21   24    5 ar
    22   25   24 1
    23   26    7 1
    24   27    4 1
    25   28   27 1
    26   29    1 ar
    27   30   26 2
    28   31   33 2
    29   32   33 2
    30   33    6 1
    31   10   16 ar
    32   12   24 ar
    33   18   29 ar
    34   20   22 ar
    35   26   27 1
@<TRIPOS>SUBSTRUCTURE
     1 RES1 1

@<TRIPOS>CRYSIN
   7.5561   25.1710    7.1509  90.0000  99.6710  90.0000  14 1

