# MOL2 file generated by ConQuest
# Please check atom types

@<TRIPOS>MOLECULE
OGEPUM
    33    35     1
SMALL
NO_CHARGES
****
Generated from CSD

@<TRIPOS>ATOM
      1 O1         4.6352    9.7456    3.4579 O.2       1 RES1    0.0000
      2 O2        -0.2046   13.9272    1.0354 O.2       1 RES1    0.0000
      3 O3        -1.7488   12.4845    1.5176 O.2       1 RES1    0.0000
      4 N1         2.3514    5.4653    2.8993 N.ar      1 RES1    0.0000
      5 N2         3.2955    7.9228    3.1913 N.am      1 RES1    0.0000
      6 H1         2.4683    7.6820    3.0129 H         1 RES1    0.0000
      7 N3        -0.5701   12.8379    1.4832 N.pl3     1 RES1    0.0000
      8 C1         1.8687    4.2475    2.7381 C.ar      1 RES1    0.0000
      9 H2         0.9584    4.1627    2.4798 H         1 RES1    0.0000
     10 C2         2.6120    3.0680    2.9238 C.ar      1 RES1    0.0000
     11 H3         2.2121    2.2177    2.7909 H         1 RES1    0.0000
     12 C3         3.9196    3.1717    3.3000 C.ar      1 RES1    0.0000
     13 H4         4.4390    2.3880    3.4377 H         1 RES1    0.0000
     14 C4         5.8462    4.6438    3.8584 C.ar      1 RES1    0.0000
     15 H5         6.4175    3.8948    3.9880 H         1 RES1    0.0000
     16 C5         6.3284    5.9106    4.0366 C.ar      1 RES1    0.0000
     17 H6         7.2335    6.0325    4.2984 H         1 RES1    0.0000
     18 C6         5.5081    7.0412    3.8393 C.ar      1 RES1    0.0000
     19 H7         5.8599    7.9123    3.9763 H         1 RES1    0.0000
     20 C7         4.2035    6.8833    3.4507 C.ar      1 RES1    0.0000
     21 C8         3.6639    5.5694    3.2740 C.ar      1 RES1    0.0000
     22 C9         4.5016    4.4463    3.4836 C.ar      1 RES1    0.0000
     23 C10        3.5453    9.2582    3.1835 C.2       1 RES1    0.0000
     24 C11        2.3994   10.1473    2.7827 C.ar      1 RES1    0.0000
     25 C12        1.0500    9.7886    2.8704 C.ar      1 RES1    0.0000
     26 H8         0.8090    8.9336    3.2061 H         1 RES1    0.0000
     27 C13        0.0628   10.6770    2.4688 C.ar      1 RES1    0.0000
     28 H9        -0.8567   10.4479    2.5339 H         1 RES1    0.0000
     29 C14        0.4559   11.9090    1.9707 C.ar      1 RES1    0.0000
     30 C15        1.7796   12.3000    1.8974 C.ar      1 RES1    0.0000
     31 H10        2.0157   13.1613    1.5726 H         1 RES1    0.0000
     32 C16        2.7507   11.4079    2.3085 C.ar      1 RES1    0.0000
     33 H11        3.6670   11.6569    2.2667 H         1 RES1    0.0000
@<TRIPOS>BOND
     1    1   23 2
     2    2    7 2
     3    3    7 2
     4    4    8 ar
     5    5    6 1
     6    7   29 1
     7    8    9 1
     8   10    8 ar
     9   11   10 1
    10   12   10 ar
    11   13   12 1
    12   14   15 1
    13   16   14 ar
    14   17   16 1
    15   18   16 ar
    16   19   18 1
    17   20    5 1
    18   21    4 ar
    19   22   12 ar
    20   23    5 1
    21   24   23 1
    22   25   24 ar
    23   26   25 1
    24   27   25 ar
    25   28   27 1
    26   29   27 ar
    27   30   29 ar
    28   31   30 1
    29   32   24 ar
    30   33   32 1
    31   14   22 ar
    32   18   20 ar
    33   20   21 ar
    34   21   22 ar
    35   30   32 ar
@<TRIPOS>SUBSTRUCTURE
     1 RES1 1

@<TRIPOS>CRYSIN
   7.5230   25.0310    6.9596  90.0000 100.0810  90.0000  14 1

