# MOL2 file generated by ConQuest
# Please check atom types

@<TRIPOS>MOLECULE
OGERAW
    49    52     1
SMALL
NO_CHARGES
****
Generated from CSD

@<TRIPOS>ATOM
      1 O1         7.5387    6.1144    7.4213 O.2       1 RES1    0.0000
      2 O2         5.4184    5.6702    7.2885 O.2       1 RES1    0.0000
      3 O3         4.5994    2.8117    8.1729 O.3       1 RES1    0.0000
      4 O4         6.6962    3.1576    7.6502 O.2       1 RES1    0.0000
      5 O5         2.5574    1.2877    5.1845 O.2       1 RES1    0.0000
      6 N1         6.5595    5.6690    6.8311 N.pl3     1 RES1    0.0000
      7 N2         2.8030    2.6840    3.3835 N.am      1 RES1    0.0000
      8 C1         5.2106    3.0716    5.7757 C.3       1 RES1    0.0000
      9 C2         6.1663    3.9831    4.9978 C.ar      1 RES1    0.0000
     10 C3         6.4165    3.6976    3.6495 C.ar      1 RES1    0.0000
     11 H1         6.0355    2.8970    3.2355 H         1 RES1    0.0000
     12 C4         7.1497    4.5433    2.8295 C.ar      1 RES1    0.0000
     13 H2         7.2957    4.3365    1.8653 H         1 RES1    0.0000
     14 C5         7.7096    5.7024    3.3399 C.ar      1 RES1    0.0000
     15 H3         8.2470    6.2899    2.7826 H         1 RES1    0.0000
     16 C6         7.5416    5.9975    4.6751 C.ar      1 RES1    0.0000
     17 H4         7.9423    6.8279    5.0553 H         1 RES1    0.0000
     18 C7         6.7677    5.1594    5.4692 C.ar      1 RES1    0.0000
     19 C8         5.4757    1.5600    5.4135 C.3       1 RES1    0.0000
     20 H5         4.8640    1.0007    5.9481 H         1 RES1    0.0000
     21 H6         5.2187    1.4155    4.5113 H         1 RES1    0.0000
     22 C9         6.8899    1.0951    5.5920 C.2       1 RES1    0.0000
     23 H7         7.5892    1.5838    5.0894 H         1 RES1    0.0000
     24 C10        7.2327    0.0451    6.3192 C.2       1 RES1    0.0000
     25 H8         6.5532   -0.4598    6.7856 H         1 RES1    0.0000
     26 H9         8.1519   -0.2404    6.3750 H         1 RES1    0.0000
     27 C11        5.5523    3.0680    7.2677 C.2       1 RES1    0.0000
     28 C12        3.2039    2.7738    7.7892 C.3       1 RES1    0.0000
     29 H10        2.7354    2.9601    8.6477 H         1 RES1    0.0000
     30 H11        2.9939    1.8753    7.5142 H         1 RES1    0.0000
     31 C13        2.9019    3.8004    6.7226 C.3       1 RES1    0.0000
     32 H12        3.1628    4.7062    7.0954 H         1 RES1    0.0000
     33 H13        1.9080    3.8136    6.5677 H         1 RES1    0.0000
     34 C14        3.6789    3.4873    5.4337 C.3       1 RES1    0.0000
     35 C15        3.5874    4.5863    4.3925 C.ar      1 RES1    0.0000
     36 C16        3.8859    5.9356    4.4493 C.ar      1 RES1    0.0000
     37 H14        4.2011    6.3410    5.2675 H         1 RES1    0.0000
     38 C17        3.8003    6.7016    3.2823 C.ar      1 RES1    0.0000
     39 H15        4.1131    7.7895    3.3924 H         1 RES1    0.0000
     40 C18        3.4018    6.1201    2.0838 C.ar      1 RES1    0.0000
     41 H16        3.3523    6.6596    1.3035 H         1 RES1    0.0000
     42 C19        3.0311    4.7720    2.0233 C.ar      1 RES1    0.0000
     43 H17        2.7023    4.3846    1.1766 H         1 RES1    0.0000
     44 C20        3.1343    4.0372    3.1893 C.ar      1 RES1    0.0000
     45 C21        2.9574    2.3321    4.6925 C.2       1 RES1    0.0000
     46 C22        2.1276    1.8425    2.4090 C.3       1 RES1    0.0000
     47 H18        1.2340    2.1818    2.1760 H         1 RES1    0.0000
     48 H19        2.1145    0.9286    2.7061 H         1 RES1    0.0000
     49 H20        2.6375    1.7971    1.5507 H         1 RES1    0.0000
@<TRIPOS>BOND
     1    1    6 2
     2    2    6 2
     3    3   27 1
     4    4   27 2
     5    5   45 2
     6    6   18 1
     7    7   44 1
     8    8    9 1
     9    9   10 ar
    10   10   11 1
    11   12   10 ar
    12   13   12 1
    13   14   12 ar
    14   15   14 1
    15   16   14 ar
    16   17   16 1
    17   18    9 ar
    18   19    8 1
    19   20   19 1
    20   21   19 1
    21   22   19 1
    22   23   22 1
    23   24   22 2
    24   25   24 1
    25   26   24 1
    26   27    8 1
    27   28    3 1
    28   29   28 1
    29   30   28 1
    30   31   28 1
    31   32   31 1
    32   33   31 1
    33   34    8 1
    34   35   34 1
    35   36   35 ar
    36   37   36 1
    37   38   36 ar
    38   39   38 1
    39   40   38 ar
    40   41   40 1
    41   42   40 ar
    42   43   42 1
    43   44   35 ar
    44   45    7 1
    45   46    7 1
    46   47   46 1
    47   48   46 1
    48   49   46 1
    49   16   18 ar
    50   31   34 1
    51   34   45 1
    52   42   44 ar
@<TRIPOS>SUBSTRUCTURE
     1 RES1 1

@<TRIPOS>CRYSIN
   7.5798   30.0522    8.3663  90.0000 103.6098  90.0000  14 1

