# MOL2 file generated by ConQuest
# Please check atom types

@<TRIPOS>MOLECULE
OGIQIF
    28    27     1
SMALL
USER_CHARGES
****
Generated from CSD

@<TRIPOS>ATOM
      1 C1         2.1278    5.2976    9.4784 C.3       1 RES1    0.0000
      2 N1         2.2802    5.3932    8.0174 N.am      1 RES1    0.0000
      3 H1         3.0164    5.0803    7.6500 H         1 RES1    0.0000
      4 C2         1.3533    5.9319    7.2267 C.2       1 RES1    0.0000
      5 O1         0.2836    6.4097    7.6079 O.2       1 RES1    0.0000
      6 N2         1.5671    5.9524    5.8337 N.am      1 RES1    0.0000
      7 H2         0.9742    6.3983    5.3606 H         1 RES1    0.0000
      8 N3         2.5802    5.3671    5.1234 N.pl3     1 RES1    0.0000
      9 O2         2.4251    5.3523    3.9090 O.2       1 RES1    0.0000
     10 O3         3.5619    4.9261    5.7188 O.2       1 RES1    0.0000
     11 C3         0.7936    4.6373    9.8778 C.3       1 RES1    0.0000
     12 H3         0.7687    4.5091   10.8591 H         1 RES1    0.0000
     13 H4         0.0418    5.2298    9.6249 H         1 RES1    0.0000
     14 N4         0.6405    3.3287    9.2035 N.2       1 RES1    0.0000
     15 N5        -0.2098    3.2931    8.3037 N.1       1 RES1    1.0000
     16 N6        -0.9614    3.1138    7.4801 N.2       1 RES1   -1.0000
     17 C4         2.2358    6.7192   10.0464 C.3       1 RES1    0.0000
     18 H5         3.0947    7.1265    9.7701 H         1 RES1    0.0000
     19 H6         1.4998    7.2791    9.6926 H         1 RES1    0.0000
     20 N7         2.1581    6.6616   11.5305 N.2       1 RES1    0.0000
     21 N8         1.5814    7.6272   12.0484 N.1       1 RES1    1.0000
     22 N9         1.0835    8.4524   12.6411 N.2       1 RES1   -1.0000
     23 C5         3.2636    4.4076    9.9780 C.3       1 RES1    0.0000
     24 H7         3.2628    4.3777   10.9680 H         1 RES1    0.0000
     25 H8         3.1488    3.4851    9.6370 H         1 RES1    0.0000
     26 N10        4.5407    4.9773    9.4864 N.2       1 RES1    0.0000
     27 N11        5.5492    4.5193   10.0346 N.1       1 RES1    1.0000
     28 N12        6.5371    4.1893   10.4743 N.2       1 RES1   -1.0000
@<TRIPOS>BOND
     1    1    2 1
     2    2    3 1
     3    4    2 1
     4    5    4 2
     5    6    4 1
     6    7    6 1
     7    8    6 1
     8    9    8 2
     9   10    8 2
    10   11    1 1
    11   12   11 1
    12   13   11 1
    13   14   11 1
    14   15   14 2
    15   16   15 2
    16   17    1 1
    17   18   17 1
    18   19   17 1
    19   20   17 1
    20   21   20 2
    21   22   21 2
    22   23    1 1
    23   24   23 1
    24   25   23 1
    25   26   23 1
    26   27   26 2
    27   28   27 2
@<TRIPOS>SUBSTRUCTURE
     1 RES1 1

@<TRIPOS>CRYSIN
  15.6078    6.2557   24.2240  90.0000  92.4810  90.0000  15 1

