# MOL2 file generated by ConQuest
# Please check atom types

@<TRIPOS>MOLECULE
OGOCOE
    94   101     1
SMALL
NO_CHARGES
****
Generated from CSD

@<TRIPOS>ATOM
      1 C1         8.0721    5.4910    6.1252 C.ar      1 RES1    0.0000
      2 C2         7.8292    4.5171    7.0928 C.ar      1 RES1    0.0000
      3 C3         8.0277    3.1019    6.8941 C.ar      1 RES1    0.0000
      4 H1         7.8983    2.4375    7.5318 H         1 RES1    0.0000
      5 C4         8.4409    2.9097    5.6027 C.ar      1 RES1    0.0000
      6 C5         8.6224    3.8205    4.5398 C.ar      1 RES1    0.0000
      7 H2         8.8738    3.5345    3.6914 H         1 RES1    0.0000
      8 C6         8.4092    5.1580    4.8199 C.ar      1 RES1    0.0000
      9 C7         7.7119    6.8344    6.6159 C.3       1 RES1    0.0000
     10 H3         8.5198    7.2039    7.0312 H         1 RES1    0.0000
     11 C8         7.3123    7.8111    5.4934 C.3       1 RES1    0.0000
     12 H4         6.4601    7.5149    5.1100 H         1 RES1    0.0000
     13 C9         7.1326    9.1970    6.0497 C.ar      1 RES1    0.0000
     14 C10        5.8936    9.8174    6.0537 C.ar      1 RES1    0.0000
     15 H5         5.1720    9.3980    5.6424 H         1 RES1    0.0000
     16 C11        5.7110   11.0538    6.6577 C.ar      1 RES1    0.0000
     17 H6         4.8777   11.4673    6.6497 H         1 RES1    0.0000
     18 C12        6.7864   11.6565    7.2676 C.ar      1 RES1    0.0000
     19 C13        8.0324   11.0772    7.2855 C.ar      1 RES1    0.0000
     20 H7         8.7468   11.4937    7.7107 H         1 RES1    0.0000
     21 C14        8.1957    9.8556    6.6497 C.ar      1 RES1    0.0000
     22 H8         9.0398    9.4669    6.6279 H         1 RES1    0.0000
     23 C15        8.5369    0.5808    6.3239 C.3       1 RES1    0.0000
     24 H9         9.2572    0.6878    6.9497 H         1 RES1    0.0000
     25 H10        8.5572   -0.3080    5.9623 H         1 RES1    0.0000
     26 H11        7.7004    0.7260    6.7709 H         1 RES1    0.0000
     27 C16        9.8121    6.1275    2.9603 C.ar      1 RES1    0.0000
     28 C17       11.0446    6.0028    3.6000 C.ar      1 RES1    0.0000
     29 H12       11.0785    6.0424    4.5298 H         1 RES1    0.0000
     30 C18       12.1822    5.8283    2.9106 C.ar      1 RES1    0.0000
     31 H13       12.9863    5.7183    3.3656 H         1 RES1    0.0000
     32 C19       12.1712    5.8121    1.5497 C.ar      1 RES1    0.0000
     33 C20       10.9967    5.9603    0.8642 C.ar      1 RES1    0.0000
     34 H14       10.9826    5.9471   -0.0656 H         1 RES1    0.0000
     35 C21        9.8140    6.1333    1.5954 C.ar      1 RES1    0.0000
     36 H15        9.0129    6.2550    1.1384 H         1 RES1    0.0000
     37 C22        8.5292    6.2829    3.7888 C.3       1 RES1    0.0000
     38 H16        7.7790    6.1759    3.1669 H         1 RES1    0.0000
     39 C23        8.3990    7.7070    4.4067 C.3       1 RES1    0.0000
     40 H17        9.2557    7.9167    4.8338 H         1 RES1    0.0000
     41 C24        8.2007    8.7101    3.2821 C.ar      1 RES1    0.0000
     42 C25        9.2490    9.4610    2.7815 C.ar      1 RES1    0.0000
     43 H18       10.0928    9.3672    3.1610 H         1 RES1    0.0000
     44 C26        9.0815   10.3395    1.7364 C.ar      1 RES1    0.0000
     45 H19        9.8045   10.8250    1.4106 H         1 RES1    0.0000
     46 C27        7.8520   10.4950    1.1821 C.ar      1 RES1    0.0000
     47 C28        6.7785    9.7558    1.6252 C.ar      1 RES1    0.0000
     48 H20        5.9454    9.8468    1.2219 H         1 RES1    0.0000
     49 C29        6.9535    8.8832    2.6662 C.ar      1 RES1    0.0000
     50 H21        6.2258    8.3919    2.9722 H         1 RES1    0.0000
     51 C30       13.4218    5.4499   -0.4649 C.3       1 RES1    0.0000
     52 H22       12.9594    4.6403   -0.6974 H         1 RES1    0.0000
     53 H23       14.3302    5.3986   -0.7689 H         1 RES1    0.0000
     54 H24       12.9865    6.1979   -0.8801 H         1 RES1    0.0000
     55 C31        8.1817    5.2358    9.5007 C.ar      1 RES1    0.0000
     56 C32        7.7166    4.9571   10.7007 C.ar      1 RES1    0.0000
     57 H25        6.8360    4.6711   10.7901 H         1 RES1    0.0000
     58 C33        8.4946    5.0759   11.8213 C.ar      1 RES1    0.0000
     59 H26        8.1226    4.8676   12.6478 H         1 RES1    0.0000
     60 C34        9.7458    5.4719   11.7756 C.ar      1 RES1    0.0000
     61 C35       10.3239    5.6625   10.5378 C.ar      1 RES1    0.0000
     62 H27       11.2273    5.8752   10.4643 H         1 RES1    0.0000
     63 C36        9.5389    5.5349    9.4014 C.ar      1 RES1    0.0000
     64 H28        9.9234    5.6479    8.5610 H         1 RES1    0.0000
     65 C37        7.2301    5.1228    8.3126 C.3       1 RES1    0.0000
     66 H29        6.4554    4.5846    8.5809 H         1 RES1    0.0000
     67 C38        6.7123    6.5264    7.7842 C.3       1 RES1    0.0000
     68 H30        6.8000    7.2025    8.4895 H         1 RES1    0.0000
     69 C39        5.2601    6.4164    7.3491 C.ar      1 RES1    0.0000
     70 C40        4.8510    5.4719    6.4014 C.ar      1 RES1    0.0000
     71 H31        5.4818    4.9468    5.9643 H         1 RES1    0.0000
     72 C41        3.5151    5.3252    6.1173 C.ar      1 RES1    0.0000
     73 H32        3.2327    4.7049    5.4835 H         1 RES1    0.0000
     74 C42        2.6262    6.0849    6.7650 C.ar      1 RES1    0.0000
     75 C43        2.9732    7.0162    7.7007 C.ar      1 RES1    0.0000
     76 H33        2.3256    7.5178    8.1418 H         1 RES1    0.0000
     77 C44        4.3282    7.1937    7.9769 C.ar      1 RES1    0.0000
     78 H34        4.5970    7.8419    8.5888 H         1 RES1    0.0000
     79 C45       10.0309    5.2827   14.1200 C.3       1 RES1    0.0000
     80 H35        9.2923    5.8635   14.3167 H         1 RES1    0.0000
     81 H36       10.7015    5.3751   14.8014 H         1 RES1    0.0000
     82 H37        9.7245    4.3719   14.0961 H         1 RES1    0.0000
     83 N1         6.5918   12.9251    7.9709 N.pl3     1 RES1    0.0000
     84 N2         7.6392   11.5025    0.1272 N.pl3     1 RES1    0.0000
     85 N3         1.1699    5.8635    6.4928 N.pl3     1 RES1    0.0000
     86 O1         8.6901    1.5927    5.1934 O.3       1 RES1    0.0000
     87 O2         7.4888   13.3578    8.6444 O.2       1 RES1    0.0000
     88 O3         5.5252   13.4663    7.8557 O.2       1 RES1    0.0000
     89 O4        13.4021    5.6156    0.9437 O.3       1 RES1    0.0000
     90 O5         8.5827   12.2168   -0.1689 O.2       1 RES1    0.0000
     91 O6         6.5440   11.5348   -0.4132 O.2       1 RES1    0.0000
     92 O7        10.5813    5.6288   12.8643 O.3       1 RES1    0.0000
     93 O8         0.8472    5.1126    5.6126 O.2       1 RES1    0.0000
     94 O9         0.3719    6.3621    7.2577 O.2       1 RES1    0.0000
@<TRIPOS>BOND
     1    1    2 ar
     2    2    3 ar
     3    3    4 1
     4    5    3 ar
     5    6    5 ar
     6    7    6 1
     7    8    1 ar
     8    9    1 1
     9   10    9 1
    10   11    9 1
    11   12   11 1
    12   13   11 1
    13   14   13 ar
    14   15   14 1
    15   16   14 ar
    16   17   16 1
    17   18   16 ar
    18   19   18 ar
    19   20   19 1
    20   21   13 ar
    21   22   21 1
    22   23   24 1
    23   25   23 1
    24   26   23 1
    25   27   28 ar
    26   28   29 1
    27   30   28 ar
    28   31   30 1
    29   32   30 ar
    30   33   32 ar
    31   34   33 1
    32   35   27 ar
    33   36   35 1
    34   37    8 1
    35   38   37 1
    36   39   11 1
    37   40   39 1
    38   41   39 1
    39   42   41 ar
    40   43   42 1
    41   44   42 ar
    42   45   44 1
    43   46   44 ar
    44   47   46 ar
    45   48   47 1
    46   49   41 ar
    47   50   49 1
    48   51   52 1
    49   53   51 1
    50   54   51 1
    51   55   56 ar
    52   56   57 1
    53   58   56 ar
    54   59   58 1
    55   60   58 ar
    56   61   60 ar
    57   62   61 1
    58   63   55 ar
    59   64   63 1
    60   65    2 1
    61   66   65 1
    62   67    9 1
    63   68   67 1
    64   69   67 1
    65   70   69 ar
    66   71   70 1
    67   72   70 ar
    68   73   72 1
    69   74   72 ar
    70   75   74 ar
    71   76   75 1
    72   77   69 ar
    73   78   77 1
    74   79   80 1
    75   81   79 1
    76   82   79 1
    77   83   18 1
    78   84   46 1
    79   85   74 1
    80   86    5 1
    81   87   83 2
    82   88   83 2
    83   89   32 1
    84   90   84 2
    85   91   84 2
    86   92   60 1
    87   93   85 2
    88   94   85 2
    89    6    8 ar
    90   19   21 ar
    91   23   86 1
    92   27   37 1
    93   33   35 ar
    94   37   39 1
    95   47   49 ar
    96   51   89 1
    97   55   65 1
    98   61   63 ar
    99   65   67 1
   100   75   77 ar
   101   79   92 1
@<TRIPOS>SUBSTRUCTURE
     1 RES1 1

@<TRIPOS>CRYSIN
  13.2141   14.6660   20.3770  90.0000 102.8370  90.0000  14 1

