# MOL2 file generated by ConQuest
# Please check atom types

@<TRIPOS>MOLECULE
OGODIZ
    40    40     2
SMALL
NO_CHARGES
****
Generated from CSD

@<TRIPOS>ATOM
      1 O1         8.0899   -1.6406    3.6675 O.2       1 RES1    0.0000
      2 O2         7.0451   -0.1523    2.4643 O.2       1 RES1    0.0000
      3 O3         8.9236    0.3990    5.9870 O.2       1 RES1    0.0000
      4 O4        10.5479   -0.6019    4.9374 O.2       1 RES1    0.0000
      5 O5         9.0065    2.8103    3.9884 O.2       1 RES1    0.0000
      6 O6         7.0831    1.8283    4.2498 O.2       1 RES1    0.0000
      7 O7        13.3214    2.5712    1.4593 O.2       1 RES1    0.0000
      8 O8        13.0489    1.3903   -0.3426 O.2       1 RES1    0.0000
      9 N1         9.9047    0.6119    2.6293 N.3       1 RES1    0.0000
     10 N2         9.7776   -0.2153    1.5283 N.2       1 RES1    0.0000
     11 N3         7.8873   -0.5419    3.2380 N.pl3     1 RES1    0.0000
     12 N4         9.5363    0.0584    4.9991 N.pl3     1 RES1    0.0000
     13 N5         8.2546    1.8611    3.9704 N.pl3     1 RES1    0.0000
     14 N6        12.7231    1.7347    0.7921 N.pl3     1 RES1    0.0000
     15 C1        10.7906    0.1105    0.7642 C.2       1 RES1    0.0000
     16 C2        11.5635    1.1131    1.3596 C.2       1 RES1    0.0000
     17 C3        11.0026    1.4190    2.5487 C.2       1 RES1    0.0000
     18 C4         8.9398    0.5194    3.6412 C.3       1 RES1    0.0000
     19 H1        10.9159   -0.2961   -0.0621 H         1 RES1    0.0000
     20 H2        11.2198    2.0379    3.2202 H         1 RES1    0.0000
     21 O9         9.5427    5.2995    5.4668 O.2       2 RES2    0.0000
     22 O10        9.3242    7.1456    6.6082 O.2       2 RES2    0.0000
     23 O11        7.8992    3.5118    6.8651 O.2       2 RES2    0.0000
     24 O12        9.7640    2.8482    7.7505 O.2       2 RES2    0.0000
     25 O13        8.1986    5.6098    9.7875 O.2       2 RES2    0.0000
     26 O14        7.1385    6.0266    7.9284 O.2       2 RES2    0.0000
     27 O15       12.5603    3.8381   11.7160 O.2       2 RES2    0.0000
     28 O16       14.2899    4.6001   10.6343 O.2       2 RES2    0.0000
     29 N7        10.5230    5.2674    8.4590 N.3       2 RES2    0.0000
     30 N8        11.6059    5.7607    7.7462 N.2       2 RES2    0.0000
     31 N9         9.3875    5.9456    6.4726 N.pl3     2 RES2    0.0000
     32 N10        8.9522    3.6735    7.4290 N.pl3     2 RES2    0.0000
     33 N11        8.0927    5.6667    8.5810 N.pl3     2 RES2    0.0000
     34 N12       13.0819    4.4005   10.7549 N.pl3     2 RES2    0.0000
     35 C5        12.6325    5.5096    8.5184 C.2       2 RES2    0.0000
     36 C6        12.2342    4.8507    9.6925 C.2       2 RES2    0.0000
     37 C7        10.8933    4.6894    9.6352 C.2       2 RES2    0.0000
     38 C8         9.3061    5.1582    7.7867 C.3       2 RES2    0.0000
     39 H3        13.5069    5.7666    8.2769 H         2 RES2    0.0000
     40 H4        10.2894    4.3109   10.2299 H         2 RES2    0.0000
@<TRIPOS>BOND
     1    1   11 2
     2    2   11 2
     3    3   12 2
     4    4   12 2
     5    5   13 2
     6    6   13 2
     7    7   14 2
     8    8   14 2
     9    9   10 1
    10   10   15 2
    11   11   18 1
    12   12   18 1
    13   13   18 1
    14   14   16 1
    15   15   16 1
    16   16   17 2
    17   17    9 1
    18   18    9 1
    19   19   15 1
    20   20   17 1
    21   21   31 2
    22   22   31 2
    23   23   32 2
    24   24   32 2
    25   25   33 2
    26   26   33 2
    27   27   34 2
    28   28   34 2
    29   29   30 1
    30   30   35 2
    31   31   38 1
    32   32   38 1
    33   33   38 1
    34   34   36 1
    35   35   36 1
    36   36   37 2
    37   37   29 1
    38   38   29 1
    39   39   35 1
    40   40   37 1
@<TRIPOS>SUBSTRUCTURE
     1 RES1 1
     2 RES2 21

@<TRIPOS>CRYSIN
   8.9522    9.5349   11.7842  81.7820  68.4980  84.8650   2 1

