# MOL2 file generated by ConQuest
# Please check atom types

@<TRIPOS>MOLECULE
OGOKEC
    44    44     2
SMALL
NO_CHARGES
****
Generated from CSD

@<TRIPOS>ATOM
      1 O1         0.2948   -0.6632    1.3199 O.2       1 RES1    0.0000
      2 O2        -0.4696    0.0463    3.2442 O.2       1 RES1    0.0000
      3 O3         2.8830   -1.1167    2.1265 O.2       1 RES1    0.0000
      4 O4         3.4727    0.7263    1.1183 O.2       1 RES1    0.0000
      5 O5         1.4030    1.8465    4.6431 O.2       1 RES1    0.0000
      6 O6         2.4233   -0.0779    4.5843 O.2       1 RES1    0.0000
      7 O7        -1.5757    3.2901   -0.3583 O.2       1 RES1    0.0000
      8 O8        -0.4381    5.1442   -0.5144 O.2       1 RES1    0.0000
      9 O9         3.8358    2.4217    3.3292 O.2       1 RES1    0.0000
     10 O10        4.0888    4.3747    2.4034 O.2       1 RES1    0.0000
     11 N1         1.4071    2.0884    1.9960 N.3       1 RES1    0.0000
     12 N2         0.2906    2.2640    1.2518 N.2       1 RES1    0.0000
     13 N3         0.3484   -0.0396    2.3539 N.pl3     1 RES1    0.0000
     14 N4         2.7873    0.0602    1.8694 N.pl3     1 RES1    0.0000
     15 N5         1.8537    0.8705    4.0928 N.pl3     1 RES1    0.0000
     16 N6        -0.6148    4.0027   -0.1160 N.pl3     1 RES1    0.0000
     17 N7         3.4742    3.3339    2.5985 N.pl3     1 RES1    0.0000
     18 C1         0.4344    3.4671    0.7378 C.2       1 RES1    0.0000
     19 C2         1.6230    4.1230    1.1016 C.2       1 RES1    0.0000
     20 C3         2.2252    3.1967    1.9038 C.2       1 RES1    0.0000
     21 C4         1.6259    0.8093    2.5610 C.3       1 RES1    0.0000
     22 H1         1.9141    4.9964    0.8875 H         1 RES1    0.0000
     23 O11        3.3005    9.6230    5.4652 O.2       2 RES2    0.0000
     24 O12        2.5518    9.0964    3.4800 O.2       2 RES2    0.0000
     25 O13        5.8305   10.1333    4.5092 O.2       2 RES2    0.0000
     26 O14        6.5385    8.2996    5.4668 O.2       2 RES2    0.0000
     27 O15        4.2188    7.1455    2.1079 O.2       2 RES2    0.0000
     28 O16        5.4511    8.9458    2.0967 O.2       2 RES2    0.0000
     29 O17        1.3733    5.6503    7.0330 O.2       2 RES2    0.0000
     30 O18        2.5776    3.8457    7.2642 O.2       2 RES2    0.0000
     31 O19        6.7740    6.5450    3.3283 O.2       2 RES2    0.0000
     32 O20        7.0566    4.6166    4.2968 O.2       2 RES2    0.0000
     33 N8         4.3944    6.9211    4.7546 N.3       2 RES2    0.0000
     34 N9         3.2763    6.7385    5.4971 N.2       2 RES2    0.0000
     35 N10        3.3494    9.0663    4.3910 N.pl3     2 RES2    0.0000
     36 N11        5.7863    8.9538    4.7775 N.pl3     2 RES2    0.0000
     37 N12        4.7882    8.0812    2.6211 N.pl3     2 RES2    0.0000
     38 N13        2.3661    4.9710    6.8321 N.pl3     2 RES2    0.0000
     39 N14        6.4352    5.6518    4.0935 N.pl3     2 RES2    0.0000
     40 C5         3.4146    5.5234    5.9870 C.2       2 RES2    0.0000
     41 C6         4.5980    4.8680    5.6077 C.2       2 RES2    0.0000
     42 C7         5.2016    5.8027    4.8163 C.2       2 RES2    0.0000
     43 C8         4.6005    8.1889    4.1575 C.3       2 RES2    0.0000
     44 H2         4.8927    3.9754    5.8100 H         2 RES2    0.0000
@<TRIPOS>BOND
     1    1   13 2
     2    2   13 2
     3    3   14 2
     4    4   14 2
     5    5   15 2
     6    6   15 2
     7    7   16 2
     8    8   16 2
     9    9   17 2
    10   10   17 2
    11   11   12 1
    12   12   18 2
    13   13   21 1
    14   14   21 1
    15   15   21 1
    16   16   18 1
    17   17   20 1
    18   18   19 1
    19   19   20 2
    20   20   11 1
    21   21   11 1
    22   22   19 1
    23   23   35 2
    24   24   35 2
    25   25   36 2
    26   26   36 2
    27   27   37 2
    28   28   37 2
    29   29   38 2
    30   30   38 2
    31   31   39 2
    32   32   39 2
    33   33   34 1
    34   34   40 2
    35   35   43 1
    36   36   43 1
    37   37   43 1
    38   38   40 1
    39   39   42 1
    40   40   41 1
    41   41   42 2
    42   42   33 1
    43   43   33 1
    44   44   41 1
@<TRIPOS>SUBSTRUCTURE
     1 RES1 1
     2 RES2 23

@<TRIPOS>CRYSIN
   6.0346   12.5666   14.4521  67.8260  85.4590  85.1680   2 1

