# MOL2 file generated by ConQuest
# Please check atom types

@<TRIPOS>MOLECULE
OGUBUO
    41    44     1
SMALL
NO_CHARGES
****
Generated from CSD

@<TRIPOS>ATOM
      1 C1         5.3081    2.6679    8.0095 C.ar      1 RES1    0.0000
      2 C2         6.3588    3.1564    7.0300 C.3       1 RES1    0.0000
      3 H1         7.1531    3.4401    7.5279 H         1 RES1    0.0000
      4 C3         6.4487   -1.4058    0.8006 C.ar      1 RES1    0.0000
      5 C4         6.6069   -0.0131    3.1713 C.ar      1 RES1    0.0000
      6 C5         6.2656    1.9443    4.8448 C.2       1 RES1    0.0000
      7 C6         6.7624    0.7323    4.4416 C.2       1 RES1    0.0000
      8 C7         5.3688    3.0577    9.3377 C.ar      1 RES1    0.0000
      9 H2         6.0869    3.5686    9.6341 H         1 RES1    0.0000
     10 C8         5.3017   -1.1961    1.5346 C.ar      1 RES1    0.0000
     11 H3         4.4859   -1.5161    1.2253 H         1 RES1    0.0000
     12 C9         5.3625   -0.5022    2.7458 C.ar      1 RES1    0.0000
     13 C10        4.2350    1.8856    7.5961 C.ar      1 RES1    0.0000
     14 H4         4.1822    1.6061    6.7098 H         1 RES1    0.0000
     15 C11        5.8739    4.3191    6.1649 C.3       1 RES1    0.0000
     16 H5         5.4932    5.0071    6.7333 H         1 RES1    0.0000
     17 H6         6.6274    4.7044    5.6920 H         1 RES1    0.0000
     18 C12        4.3719    2.6962   10.2307 C.ar      1 RES1    0.0000
     19 H7         4.4213    2.9699   11.1177 H         1 RES1    0.0000
     20 C13        7.6827   -0.9580    1.2175 C.ar      1 RES1    0.0000
     21 H8         8.4471   -1.1177    0.7125 H         1 RES1    0.0000
     22 C14        3.3088    1.9327    9.8020 C.ar      1 RES1    0.0000
     23 H9         2.6344    1.6961   10.3974 H         1 RES1    0.0000
     24 C15        7.7499   -0.2649    2.4107 C.ar      1 RES1    0.0000
     25 H10        8.5740    0.0414    2.7129 H         1 RES1    0.0000
     26 C16        5.4695    3.0548    4.2275 C.3       1 RES1    0.0000
     27 H11        6.0461    3.5875    3.6602 H         1 RES1    0.0000
     28 H12        4.7669    2.6795    3.6759 H         1 RES1    0.0000
     29 C17        3.2468    1.5198    8.4874 C.ar      1 RES1    0.0000
     30 H13        2.5358    0.9929    8.2013 H         1 RES1    0.0000
     31 C18        4.1085   -0.3375    3.5628 C.3       1 RES1    0.0000
     32 H14        3.6508    0.4609    3.2883 H         1 RES1    0.0000
     33 H15        4.3386   -0.2722    4.4941 H         1 RES1    0.0000
     34 H16        3.5363   -1.0966    3.4293 H         1 RES1    0.0000
     35 N1         6.7371    2.0926    6.0975 N.pl3     1 RES1    0.0000
     36 N2         7.4941    1.0502    6.4722 N.2       1 RES1    0.0000
     37 N3         6.3579   -2.1163   -0.4741 N.pl3     1 RES1    0.0000
     38 N4         7.5223    0.2185    5.4492 N.2       1 RES1    0.0000
     39 O1         4.8937    3.8843    5.2249 O.3       1 RES1    0.0000
     40 O2         5.2544   -2.4487   -0.8961 O.2       1 RES1    0.0000
     41 O3         7.3904   -2.3689   -1.0793 O.2       1 RES1    0.0000
@<TRIPOS>BOND
     1    1    2 1
     2    2    3 1
     3    4   10 ar
     4    5    7 1
     5    6    7 2
     6    7   38 1
     7    8    1 ar
     8    9    8 1
     9   10   11 1
    10   12    5 ar
    11   13    1 ar
    12   14   13 1
    13   15    2 1
    14   16   15 1
    15   17   15 1
    16   18    8 ar
    17   19   18 1
    18   20    4 ar
    19   21   20 1
    20   22   18 ar
    21   23   22 1
    22   24    5 ar
    23   25   24 1
    24   26    6 1
    25   27   26 1
    26   28   26 1
    27   29   13 ar
    28   30   29 1
    29   31   12 1
    30   32   31 1
    31   33   31 1
    32   34   31 1
    33   35    2 1
    34   36   35 1
    35   37    4 1
    36   38   36 2
    37   39   15 1
    38   40   37 2
    39   41   37 2
    40    6   35 1
    41   10   12 ar
    42   20   24 ar
    43   22   29 ar
    44   26   39 1
@<TRIPOS>SUBSTRUCTURE
     1 RES1 1

@<TRIPOS>CRYSIN
  11.3308    7.2577   39.1469  90.0000  90.0000  90.0000  61 1

