# MOL2 file generated by ConQuest
# Please check atom types

@<TRIPOS>MOLECULE
OGUHIH
    28    28     1
SMALL
NO_CHARGES
****
Generated from CSD

@<TRIPOS>ATOM
      1 O1         5.7127    2.7826   16.7405 O.2       1 RES1    0.0000
      2 O2         7.3353    1.9612   15.4134 O.3       1 RES1    0.0000
      3 O3        -0.6753    1.0300   13.4782 O.2       1 RES1    0.0000
      4 N1         0.5809    0.6951   13.3354 N.pl3     1 RES1    0.0000
      5 C1         0.9413   -0.2466   12.4369 C.ar      1 RES1    0.0000
      6 C2         2.2615   -0.6053   12.2812 C.ar      1 RES1    0.0000
      7 C3         3.2519   -0.0062   13.0458 C.ar      1 RES1    0.0000
      8 C4         2.8807    0.9562   13.9829 C.ar      1 RES1    0.0000
      9 C5         1.5343    1.2885   14.1094 C.ar      1 RES1    0.0000
     10 C6         3.8390    1.6303   14.8745 C.2       1 RES1    0.0000
     11 C7         5.1564    1.4888   14.8078 C.2       1 RES1    0.0000
     12 C8         6.0625    2.1555   15.7688 C.2       1 RES1    0.0000
     13 C9         8.3952    2.5182   16.2627 C.3       1 RES1    0.0000
     14 C10        8.9209    1.4042   17.1340 C.3       1 RES1    0.0000
     15 C11        9.4250    3.0743   15.3161 C.3       1 RES1    0.0000
     16 H1         0.2310   -0.6841   11.9325 H         1 RES1    0.0000
     17 H2         2.4754   -1.2827   11.6513 H         1 RES1    0.0000
     18 H3         4.1721   -0.2488   12.9250 H         1 RES1    0.0000
     19 H4         1.2155    1.9019   14.7644 H         1 RES1    0.0000
     20 H5         3.4785    2.1943   15.5232 H         1 RES1    0.0000
     21 H6         5.5432    0.9330   14.1631 H         1 RES1    0.0000
     22 H7         7.9977    3.1991   16.8071 H         1 RES1    0.0000
     23 H8         9.2835    0.6585   16.5225 H         1 RES1    0.0000
     24 H9         8.2145    1.0689   17.7234 H         1 RES1    0.0000
     25 H10        9.6552    1.7616   17.6743 H         1 RES1    0.0000
     26 H11        9.0702    3.7199   14.7407 H         1 RES1    0.0000
     27 H12        9.7975    2.3773   14.7610 H         1 RES1    0.0000
     28 H13       10.1389    3.5147   15.8264 H         1 RES1    0.0000
@<TRIPOS>BOND
     1    1   12 2
     2    2   12 1
     3    3    4 1
     4    4    5 ar
     5    5    6 ar
     6    6    7 ar
     7    7    8 ar
     8    8    9 ar
     9    9    4 ar
    10   10    8 1
    11   11   10 2
    12   12   11 1
    13   13    2 1
    14   14   13 1
    15   15   13 1
    16   16    5 1
    17   17    6 1
    18   18    7 1
    19   19    9 1
    20   20   10 1
    21   21   11 1
    22   22   13 1
    23   23   14 1
    24   24   14 1
    25   25   14 1
    26   26   15 1
    27   27   15 1
    28   28   15 1
@<TRIPOS>SUBSTRUCTURE
     1 RES1 1

