# MOL2 file generated by ConQuest
# Please check atom types

@<TRIPOS>MOLECULE
OGUZOH
    49    51     1
SMALL
NO_CHARGES
****
Generated from CSD

@<TRIPOS>ATOM
      1 O1         2.5449    6.7728    1.0567 O.3       1 RES1    0.0000
      2 O2         5.1915    6.5305    1.3033 O.3       1 RES1    0.0000
      3 O3         1.7022    4.5546    2.3007 O.3       1 RES1    0.0000
      4 O4         3.8591    3.9273    2.3211 O.2       1 RES1    0.0000
      5 O5         5.2600    5.0057   -0.3552 O.2       1 RES1    0.0000
      6 O6         1.9393    8.2137   -2.2086 O.3       1 RES1    0.0000
      7 N1         2.1345   13.9053    2.8800 N.1       1 RES1    0.0000
      8 N2         2.7835    7.7838    0.0098 N.3       1 RES1    0.0000
      9 C1         2.2334   12.8572    2.4332 C.1       1 RES1    0.0000
     10 C2         2.3509   11.5441    1.8378 C.ar      1 RES1    0.0000
     11 C3         1.7652   11.3135    0.5951 C.ar      1 RES1    0.0000
     12 H1         1.2974   12.0141    0.1543 H         1 RES1    0.0000
     13 C4         1.8625   10.0644   -0.0023 C.ar      1 RES1    0.0000
     14 H2         1.4569    9.9077   -0.8471 H         1 RES1    0.0000
     15 C5         2.5583    9.0405    0.6409 C.ar      1 RES1    0.0000
     16 C6         3.1336    5.5223    0.6686 C.3       1 RES1    0.0000
     17 C7         4.6511    5.6520    0.4552 C.2       1 RES1    0.0000
     18 C8         6.6411    6.6508    1.2255 C.3       1 RES1    0.0000
     19 H3         6.9145    6.8831    0.3021 H         1 RES1    0.0000
     20 H4         7.0676    5.7919    1.4725 H         1 RES1    0.0000
     21 C9         7.0647    7.7238    2.1707 C.3       1 RES1    0.0000
     22 H5         6.6388    8.5690    1.9174 H         1 RES1    0.0000
     23 H6         8.0391    7.8252    2.1341 H         1 RES1    0.0000
     24 H7         6.7951    7.4821    3.0813 H         1 RES1    0.0000
     25 C10        0.0298    3.8580    3.8586 C.3       1 RES1    0.0000
     26 H8        -0.0267    4.7724    4.2074 H         1 RES1    0.0000
     27 H9        -0.1956    3.2229    4.5702 H         1 RES1    0.0000
     28 H10       -0.5992    3.7530    3.1141 H         1 RES1    0.0000
     29 C11        1.4273    3.5923    3.3732 C.3       1 RES1    0.0000
     30 H11        2.0758    3.7080    4.1122 H         1 RES1    0.0000
     31 H12        1.5016    2.6660    3.0304 H         1 RES1    0.0000
     32 C12        2.9519    4.5752    1.8750 C.2       1 RES1    0.0000
     33 C13        2.4119    4.9514   -0.5629 C.3       1 RES1    0.0000
     34 H13        2.8721    4.1369   -0.8848 H         1 RES1    0.0000
     35 H14        1.4765    4.7176   -0.3365 H         1 RES1    0.0000
     36 C14        2.4436    6.0312   -1.6263 C.3       1 RES1    0.0000
     37 H15        3.3968    6.1730   -1.8928 H         1 RES1    0.0000
     38 C15        1.6095    5.9300   -2.8981 C.3       1 RES1    0.0000
     39 H16        0.6778    5.6569   -2.7054 H         1 RES1    0.0000
     40 H17        2.0090    5.3011   -3.5508 H         1 RES1    0.0000
     41 C16        1.6880    7.3852   -3.3873 C.3       1 RES1    0.0000
     42 H18        2.4213    7.4891   -4.0433 H         1 RES1    0.0000
     43 H19        0.8372    7.6494   -3.8200 H         1 RES1    0.0000
     44 C17        1.9051    7.3483   -1.0872 C.3       1 RES1    0.0000
     45 H20        0.9668    7.2360   -0.7601 H         1 RES1    0.0000
     46 C18        3.0271   10.5141    2.4972 C.ar      1 RES1    0.0000
     47 H21        3.4109   10.6670    3.3521 H         1 RES1    0.0000
     48 C19        3.1354    9.2710    1.8988 C.ar      1 RES1    0.0000
     49 H22        3.6018    8.5718    2.3409 H         1 RES1    0.0000
@<TRIPOS>BOND
     1    1    8 1
     2    2   17 1
     3    3   29 1
     4    4   32 2
     5    5   17 2
     6    6   41 1
     7    7    9 3
     8    8   15 1
     9    9   10 1
    10   10   11 ar
    11   11   12 1
    12   13   11 ar
    13   14   13 1
    14   15   13 ar
    15   16    1 1
    16   17   16 1
    17   18    2 1
    18   19   18 1
    19   20   18 1
    20   21   18 1
    21   22   21 1
    22   23   21 1
    23   24   21 1
    24   25   26 1
    25   27   25 1
    26   28   25 1
    27   29   25 1
    28   30   29 1
    29   31   29 1
    30   32    3 1
    31   33   16 1
    32   34   33 1
    33   35   33 1
    34   36   33 1
    35   37   36 1
    36   38   36 1
    37   39   38 1
    38   40   38 1
    39   41   38 1
    40   42   41 1
    41   43   41 1
    42   44    6 1
    43   45   44 1
    44   46   10 ar
    45   47   46 1
    46   48   15 ar
    47   49   48 1
    48    8   44 1
    49   16   32 1
    50   36   44 1
    51   46   48 ar
@<TRIPOS>SUBSTRUCTURE
     1 RES1 1

@<TRIPOS>CRYSIN
   7.8538   14.0614   16.4160  90.0000  90.0000  90.0000  19 1

