# MOL2 file generated by ConQuest
# Please check atom types

@<TRIPOS>MOLECULE
OHIDOY
    51    52     1
SMALL
NO_CHARGES
****
Generated from CSD

@<TRIPOS>ATOM
      1 N1         0.4151    6.3686    6.9933 N.pl3     1 RES1    0.0000
      2 H1        -0.1684    6.5128    7.6189 H         1 RES1    0.0000
      3 N2         0.0301    5.3939    6.1367 N.2       1 RES1    0.0000
      4 C1         0.7556    5.1814    5.0929 C.2       1 RES1    0.0000
      5 C2         2.0672    5.8772    4.7875 C.3       1 RES1    0.0000
      6 H2         2.1342    6.0286    3.8011 H         1 RES1    0.0000
      7 C3         2.0217    7.2274    5.4952 C.2       1 RES1    0.0000
      8 C4         1.2717    7.3909    6.6140 C.2       1 RES1    0.0000
      9 C5         1.2333    8.5644    7.5528 C.3       1 RES1    0.0000
     10 H3         2.1155    8.9895    7.5812 H         1 RES1    0.0000
     11 H4         0.9911    8.2561    8.4502 H         1 RES1    0.0000
     12 H5         0.5682    9.2126    7.2381 H         1 RES1    0.0000
     13 C6         2.8375    8.2858    4.8641 C.2       1 RES1    0.0000
     14 O1         3.7655    8.0352    4.1275 O.2       1 RES1    0.0000
     15 O2         2.4000    9.5197    5.1628 O.3       1 RES1    0.0000
     16 C7         3.0933   10.7249    4.6598 C.3       1 RES1    0.0000
     17 C8         3.0267   10.7684    3.1466 C.3       1 RES1    0.0000
     18 H6         3.5999   10.0658    2.7744 H         1 RES1    0.0000
     19 H7         3.3348   11.6436    2.8316 H         1 RES1    0.0000
     20 H8         2.1025   10.6240    2.8553 H         1 RES1    0.0000
     21 C9         4.5107   10.7455    5.1941 C.3       1 RES1    0.0000
     22 H9         4.4905   10.7742    6.1738 H         1 RES1    0.0000
     23 H10        4.9767   11.5381    4.8542 H         1 RES1    0.0000
     24 H11        4.9822    9.9384    4.9002 H         1 RES1    0.0000
     25 C10        2.2745   11.8512    5.2661 C.3       1 RES1    0.0000
     26 H12        1.3427   11.7720    4.9728 H         1 RES1    0.0000
     27 H13        2.6365   12.7133    4.9728 H         1 RES1    0.0000
     28 H14        2.3154   11.7949    6.2435 H         1 RES1    0.0000
     29 C11        0.1761    4.1310    4.2004 C.2       1 RES1    0.0000
     30 O3        -0.8492    3.5298    4.4272 O.2       1 RES1    0.0000
     31 O4         0.9324    3.9594    3.1121 O.3       1 RES1    0.0000
     32 C12        0.4110    3.0297    2.1141 C.3       1 RES1    0.0000
     33 H15       -0.5583    3.1797    1.9780 H         1 RES1    0.0000
     34 H16        0.5472    2.0948    2.4104 H         1 RES1    0.0000
     35 C13        1.1601    3.2851    0.8407 C.3       1 RES1    0.0000
     36 H17        1.0314    4.2178    0.5677 H         1 RES1    0.0000
     37 H18        0.8238    2.6900    0.1381 H         1 RES1    0.0000
     38 H19        2.1141    3.1144    0.9834 H         1 RES1    0.0000
     39 N3         4.0107    4.3978    2.9188 N.pl3     1 RES1    0.0000
     40 O5         3.7585    5.4622    2.3751 O.2       1 RES1    0.0000
     41 O6         4.2049    3.3488    2.3076 O.2       1 RES1    0.0000
     42 C14        3.2420    5.0003    5.2385 C.ar      1 RES1    0.0000
     43 C15        4.1304    4.3344    4.3868 C.ar      1 RES1    0.0000
     44 C16        5.1718    3.5280    4.8541 C.ar      1 RES1    0.0000
     45 H20        5.7602    3.0981    4.2446 H         1 RES1    0.0000
     46 C17        5.3334    3.3650    6.2179 C.ar      1 RES1    0.0000
     47 H21        6.0488    2.8369    6.5518 H         1 RES1    0.0000
     48 C18        4.4505    3.9727    7.0951 C.ar      1 RES1    0.0000
     49 H22        4.5464    3.8424    8.0318 H         1 RES1    0.0000
     50 C19        3.4246    4.7721    6.6066 C.ar      1 RES1    0.0000
     51 H23        2.8267    5.1776    7.2227 H         1 RES1    0.0000
@<TRIPOS>BOND
     1    1    2 1
     2    3    1 1
     3    4    3 2
     4    5    4 1
     5    6    5 1
     6    7    5 1
     7    8    1 1
     8    9    8 1
     9   10    9 1
    10   11    9 1
    11   12    9 1
    12   13    7 1
    13   14   13 2
    14   15   13 1
    15   16   15 1
    16   17   16 1
    17   18   17 1
    18   19   17 1
    19   20   17 1
    20   21   16 1
    21   22   21 1
    22   23   21 1
    23   24   21 1
    24   25   16 1
    25   26   25 1
    26   27   25 1
    27   28   25 1
    28   29    4 1
    29   30   29 2
    30   31   29 1
    31   32   31 1
    32   33   32 1
    33   34   32 1
    34   35   32 1
    35   36   35 1
    36   37   35 1
    37   38   35 1
    38   39   40 2
    39   41   39 2
    40   42    5 1
    41   43   39 1
    42   44   43 ar
    43   45   44 1
    44   46   44 ar
    45   47   46 1
    46   48   46 ar
    47   49   48 1
    48   50   42 ar
    49   51   50 1
    50    7    8 2
    51   42   43 ar
    52   48   50 ar
@<TRIPOS>SUBSTRUCTURE
     1 RES1 1

@<TRIPOS>CRYSIN
  12.7967   10.8819   14.1263  90.0000  99.0900  90.0000  14 1

