# MOL2 file generated by ConQuest
# Please check atom types

@<TRIPOS>MOLECULE
OHILOI
    31    33     1
SMALL
NO_CHARGES
****
Generated from CSD

@<TRIPOS>ATOM
      1 O1         7.1407    5.7562    1.7451 O.2       1 RES1    0.0000
      2 O2         6.6813    7.8515    1.9668 O.2       1 RES1    0.0000
      3 N1         6.4268    6.7367    1.5375 N.pl3     1 RES1    0.0000
      4 N2         3.9446    7.6515    2.5393 N.3       1 RES1    0.0000
      5 N3         2.4313    6.1760    3.4967 N.ar      1 RES1    0.0000
      6 C1         5.2031    6.5425    0.7661 C.ar      1 RES1    0.0000
      7 C2         4.0092    6.9625    1.3243 C.ar      1 RES1    0.0000
      8 C3         2.8189    6.6600    0.6179 C.ar      1 RES1    0.0000
      9 C4         2.8514    6.0065   -0.5648 C.ar      1 RES1    0.0000
     10 C5         4.1071    4.9384   -2.4030 C.ar      1 RES1    0.0000
     11 C6         5.2912    4.5461   -2.9537 C.ar      1 RES1    0.0000
     12 C7         6.4951    4.8143   -2.2956 C.ar      1 RES1    0.0000
     13 C8         6.5067    5.4707   -1.0987 C.ar      1 RES1    0.0000
     14 C9         5.2934    5.8727   -0.4848 C.ar      1 RES1    0.0000
     15 C10        4.0720    5.6007   -1.1573 C.ar      1 RES1    0.0000
     16 C11        2.9507    7.4095    3.4769 C.ar      1 RES1    0.0000
     17 C12        2.5685    8.3982    4.3916 C.ar      1 RES1    0.0000
     18 C13        1.6288    8.0820    5.3438 C.ar      1 RES1    0.0000
     19 C14        1.0690    6.8119    5.3660 C.ar      1 RES1    0.0000
     20 C15        1.4947    5.9112    4.4223 C.ar      1 RES1    0.0000
     21 H1         4.4450    8.3264    2.6776 H         1 RES1    0.0000
     22 H2         2.0044    6.9475    1.0076 H         1 RES1    0.0000
     23 H3         2.0416    5.8237   -0.9935 H         1 RES1    0.0000
     24 H4         3.2943    4.7881   -2.8574 H         1 RES1    0.0000
     25 H5         5.3127    4.0920   -3.7782 H         1 RES1    0.0000
     26 H6         7.3094    4.5219   -2.6716 H         1 RES1    0.0000
     27 H7         7.3249    5.6709   -0.6704 H         1 RES1    0.0000
     28 H8         2.9680    9.2604    4.3577 H         1 RES1    0.0000
     29 H9         1.3378    8.7525    5.9853 H         1 RES1    0.0000
     30 H10        0.4331    6.5695    6.0196 H         1 RES1    0.0000
     31 H11        1.1399    5.0015    4.4062 H         1 RES1    0.0000
@<TRIPOS>BOND
     1    1    3 2
     2    2    3 2
     3    3    6 1
     4    4    7 1
     5    5   16 ar
     6    6    7 ar
     7    7    8 ar
     8    8    9 ar
     9    9   15 ar
    10   10   11 ar
    11   11   12 ar
    12   12   13 ar
    13   13   14 ar
    14   14    6 ar
    15   15   10 ar
    16   16    4 1
    17   17   16 ar
    18   18   17 ar
    19   19   18 ar
    20   20    5 ar
    21   21    4 1
    22   22    8 1
    23   23    9 1
    24   24   10 1
    25   25   11 1
    26   26   12 1
    27   27   13 1
    28   28   17 1
    29   29   18 1
    30   30   19 1
    31   31   20 1
    32   14   15 ar
    33   19   20 ar
@<TRIPOS>SUBSTRUCTURE
     1 RES1 1

@<TRIPOS>CRYSIN
  15.4664    7.8752   20.1933  90.0000  90.0000  90.0000  61 1

