# MOL2 file generated by ConQuest
# Please check atom types

@<TRIPOS>MOLECULE
OHIPOL
    52    52     2
SMALL
NO_CHARGES
****
Generated from CSD

@<TRIPOS>ATOM
      1 N1         6.1648   13.7907   12.0597 N.pl3     1 RES1    0.0000
      2 H1         5.6589   13.2620   11.6078 H         1 RES1    0.0000
      3 C1         7.3622   13.3305   12.3947 C.2       1 RES1    0.0000
      4 N2         8.2165   14.1368   13.1022 N.3       1 RES1    0.0000
      5 H2         8.0297   14.9732   13.1630 H         1 RES1    0.0000
      6 N3         7.8125   12.1420   12.0441 N.2       1 RES1    0.0000
      7 N4         6.8249   11.4390   11.4083 N.2       1 RES1    0.0000
      8 C2         7.2269   10.2926   10.9346 C.2       1 RES1    0.0000
      9 H3         8.1168   10.0402   11.0359 H         1 RES1    0.0000
     10 C3         6.2970    9.3961   10.2474 C.ar      1 RES1    0.0000
     11 C4         4.9431    9.6689   10.1321 C.ar      1 RES1    0.0000
     12 H4         4.5926   10.4199   10.5528 H         1 RES1    0.0000
     13 C5         4.1056    8.8481    9.4059 C.ar      1 RES1    0.0000
     14 H5         3.2052    9.0620    9.3093 H         1 RES1    0.0000
     15 C6         4.6168    7.7017    8.8215 C.ar      1 RES1    0.0000
     16 C7         5.9947    7.3712    8.9774 C.ar      1 RES1    0.0000
     17 H6         6.3316    6.5793    8.6236 H         1 RES1    0.0000
     18 C8         6.8134    8.2292    9.6521 C.ar      1 RES1    0.0000
     19 H7         7.7222    8.0430    9.7176 H         1 RES1    0.0000
     20 C9         5.6306   15.0825   12.3776 C.ar      1 RES1    0.0000
     21 C10        4.4194   15.2015   13.0757 C.ar      1 RES1    0.0000
     22 H8         3.9891   14.4540   13.4232 H         1 RES1    0.0000
     23 C11        3.8926   16.4561   13.2237 C.ar      1 RES1    0.0000
     24 H9         3.0656   16.5222   13.6460 H         1 RES1    0.0000
     25 C12        4.4373   17.5400   12.8357 C.ar      1 RES1    0.0000
     26 H10        4.0259   18.3596   12.9900 H         1 RES1    0.0000
     27 C13        5.6746   17.4703   12.1719 C.ar      1 RES1    0.0000
     28 H11        6.1081   18.2502   11.9116 H         1 RES1    0.0000
     29 C14        6.2519   16.2278   11.9007 C.ar      1 RES1    0.0000
     30 H12        7.0390   16.1689   11.4083 H         1 RES1    0.0000
     31 C15        9.4224   13.6501   13.7551 C.3       1 RES1    0.0000
     32 H13        9.8863   13.0481   13.1365 H         1 RES1    0.0000
     33 C16       10.3355   14.7977   14.0652 C.3       1 RES1    0.0000
     34 H14        9.8632   15.4503   14.6044 H         1 RES1    0.0000
     35 H15       10.6073   15.2279   13.2409 H         1 RES1    0.0000
     36 C17       11.5697   14.3147   14.8163 C.3       1 RES1    0.0000
     37 H16       12.1018   13.7715   14.2133 H         1 RES1    0.0000
     38 H17       12.1028   15.0885   15.0579 H         1 RES1    0.0000
     39 C18       11.3084   13.5420   16.0209 C.3       1 RES1    0.0000
     40 H18       10.9400   14.1200   16.7065 H         1 RES1    0.0000
     41 H19       12.1364   13.1634   16.3544 H         1 RES1    0.0000
     42 C19       10.2715   12.3667   15.6874 C.3       1 RES1    0.0000
     43 H20       10.7080   11.7094   15.1249 H         1 RES1    0.0000
     44 H21       10.0143   11.9281   16.5133 H         1 RES1    0.0000
     45 C20        9.0530   12.8618   15.0002 C.3       1 RES1    0.0000
     46 H22        8.5482   13.4290   15.6048 H         1 RES1    0.0000
     47 H23        8.4926   12.1107   14.7540 H         1 RES1    0.0000
     48 N5         3.8097    6.7920    8.0658 N.pl3     1 RES1    0.0000
     49 O1         2.7360    7.2655    7.5936 O.2       1 RES1    0.0000
     50 O2         4.1172    5.6744    7.8320 O.2       1 RES1    0.0000
     51 O3         3.1380    6.9699    8.1499 Du        2 SUP2    0.0000
     52 O4         3.9356    5.5999    8.6797 Du        2 SUP2    0.0000
@<TRIPOS>BOND
     1    1    2 1
     2    3    1 1
     3    4    3 1
     4    5    4 1
     5    6    3 2
     6    7    6 1
     7    8    7 2
     8    9    8 1
     9   10    8 1
    10   11   10 ar
    11   12   11 1
    12   13   11 ar
    13   14   13 1
    14   15   13 ar
    15   16   15 ar
    16   17   16 1
    17   18   10 ar
    18   19   18 1
    19   20    1 1
    20   21   20 ar
    21   22   21 1
    22   23   21 ar
    23   24   23 1
    24   25   23 ar
    25   26   25 1
    26   27   25 ar
    27   28   27 1
    28   29   20 ar
    29   30   29 1
    30   31    4 1
    31   32   31 1
    32   33   31 1
    33   34   33 1
    34   35   33 1
    35   36   33 1
    36   37   36 1
    37   38   36 1
    38   39   36 1
    39   40   39 1
    40   41   39 1
    41   42   39 1
    42   43   42 1
    43   44   42 1
    44   45   31 1
    45   46   45 1
    46   47   45 1
    47   48   15 1
    48   49   48 2
    49   50   48 2
    50   16   18 ar
    51   27   29 ar
    52   42   45 1
@<TRIPOS>SUBSTRUCTURE
     1 RES1 1
     2 SUP2 51

@<TRIPOS>CRYSIN
  10.4950   12.0170   15.5830  90.0000  90.0000  90.0000  29 1

