# MOL2 file generated by ConQuest
# Please check atom types

@<TRIPOS>MOLECULE
OHISUT
   112   106     2
SMALL
NO_CHARGES
****
Generated from CSD

@<TRIPOS>ATOM
      1 C1         2.7854    8.1366    1.5883 C.ar      1 RES1    0.0000
      2 C2         3.6504    7.0158    1.0448 C.3       1 RES1    0.0000
      3 H1         3.5779    6.9819    0.0581 H         1 RES1    0.0000
      4 H2         4.5983    7.1761    1.2817 H         1 RES1    0.0000
      5 C3         3.1957    5.7286    1.6290 C.ar      1 RES1    0.0000
      6 C4         2.4280    4.8190    0.9417 C.ar      1 RES1    0.0000
      7 H3         2.3012    4.9393    0.0087 H         1 RES1    0.0000
      8 C5         1.8399    3.7476    1.5534 C.ar      1 RES1    0.0000
      9 H4         1.3430    3.1202    1.0419 H         1 RES1    0.0000
     10 C6         1.9696    3.5796    2.9005 C.ar      1 RES1    0.0000
     11 H5         1.5383    2.8504    3.3292 H         1 RES1    0.0000
     12 C7         2.7263    4.4614    3.6388 C.ar      1 RES1    0.0000
     13 C8         2.7243    4.4259    5.1530 C.3       1 RES1    0.0000
     14 H6         3.6489    4.5308    5.4887 H         1 RES1    0.0000
     15 H7         2.3797    3.5518    5.4640 H         1 RES1    0.0000
     16 C9         1.8540    5.5421    5.6979 C.ar      1 RES1    0.0000
     17 C10        0.5741    5.6947    5.2082 C.ar      1 RES1    0.0000
     18 H8         0.2031    5.0333    4.6356 H         1 RES1    0.0000
     19 C11       -0.1535    6.7877    5.5439 C.ar      1 RES1    0.0000
     20 C12        0.3506    7.8051    6.3242 C.ar      1 RES1    0.0000
     21 H9        -0.1548    8.5944    6.4754 H         1 RES1    0.0000
     22 C13        1.5965    7.6571    6.8779 C.ar      1 RES1    0.0000
     23 C14        2.1593    8.7871    7.7120 C.3       1 RES1    0.0000
     24 H10        1.6820    8.8303    8.5781 H         1 RES1    0.0000
     25 H11        3.1170    8.6206    7.8951 H         1 RES1    0.0000
     26 C15        2.0046   10.0821    6.9869 C.ar      1 RES1    0.0000
     27 C16        1.0833   11.0301    7.3240 C.ar      1 RES1    0.0000
     28 H12        0.5628   10.9068    8.1087 H         1 RES1    0.0000
     29 C17        0.8842   12.1678    6.5611 C.ar      1 RES1    0.0000
     30 H13        0.2666   12.8338    6.8387 H         1 RES1    0.0000
     31 C18        1.5883   12.3128    5.4102 C.ar      1 RES1    0.0000
     32 H14        1.4463   13.0866    4.8769 H         1 RES1    0.0000
     33 C19        2.5150   11.3647    4.9873 C.ar      1 RES1    0.0000
     34 C20        3.1063   11.3616    3.5923 C.3       1 RES1    0.0000
     35 H15        2.8987   12.2156    3.1374 H         1 RES1    0.0000
     36 H16        4.0897   11.2676    3.6446 H         1 RES1    0.0000
     37 C21        2.5235   10.2131    2.8119 C.ar      1 RES1    0.0000
     38 C22        1.1562   10.0589    2.7334 C.ar      1 RES1    0.0000
     39 H17        0.5796   10.7095    3.1142 H         1 RES1    0.0000
     40 C23        0.6390    8.9721    2.1086 C.ar      1 RES1    0.0000
     41 C24        1.4281    7.9947    1.5680 C.ar      1 RES1    0.0000
     42 H18        1.0332    7.2224    1.1814 H         1 RES1    0.0000
     43 C25        3.3800    5.4727    2.9776 C.ar      1 RES1    0.0000
     44 C26        2.3236    6.5133    6.5916 C.ar      1 RES1    0.0000
     45 C27        2.7452   10.3041    5.8142 C.ar      1 RES1    0.0000
     46 C28        3.3173    9.2496    2.1987 C.ar      1 RES1    0.0000
     47 N1        -1.4980    6.9434    5.0048 N.pl3     1 RES1    0.0000
     48 O1        -1.9948    8.0657    4.9786 O.2       1 RES1    0.0000
     49 O2        -2.0916    5.9429    4.6197 O.2       1 RES1    0.0000
     50 N2        -0.8178    8.8210    2.0141 N.pl3     1 RES1    0.0000
     51 O3        -1.5085    9.8154    2.2045 O.2       1 RES1    0.0000
     52 O4        -1.2799    7.7265    1.7424 O.2       1 RES1    0.0000
     53 O5         4.1354    6.3514    3.7129 O.3       1 RES1    0.0000
     54 C29        5.5719    6.2466    3.4513 C.3       1 RES1    0.0000
     55 H19        5.7377    5.7810    2.5939 H         1 RES1    0.0000
     56 H20        5.9840    7.1469    3.4077 H         1 RES1    0.0000
     57 C30        6.1199    5.4927    4.5528 C.3       1 RES1    0.0000
     58 H21        5.7172    4.5893    4.5732 H         1 RES1    0.0000
     59 H22        5.9118    5.9460    5.4073 H         1 RES1    0.0000
     60 C31        7.7245    5.3786    4.3639 C.3       1 RES1    0.0000
     61 H23        7.9234    4.8576    3.5588 H         1 RES1    0.0000
     62 H24        8.1153    4.9347    5.1457 H         1 RES1    0.0000
     63 H25        8.1074    6.2759    4.2738 H         1 RES1    0.0000
     64 O6         3.6310    9.3236    5.4276 O.3       1 RES1    0.0000
     65 C32        4.8799    9.2666    6.0961 C.3       1 RES1    0.0000
     66 H26        5.1272    8.3231    6.2690 H         1 RES1    0.0000
     67 H27        4.8198    9.7367    6.9651 H         1 RES1    0.0000
     68 C33        5.9176    9.9156    5.2358 C.3       1 RES1    0.0000
     69 H28        5.7589   10.8914    5.1864 H         1 RES1    0.0000
     70 H29        5.8820    9.5456    4.3188 H         1 RES1    0.0000
     71 C34        7.3061    9.6350    5.8708 C.3       1 RES1    0.0000
     72 H30        7.2101    9.5564    6.8430 H         1 RES1    0.0000
     73 H31        7.9166   10.3703    5.6601 H         1 RES1    0.0000
     74 H32        7.6669    8.7979    5.5090 H         1 RES1    0.0000
     75 O7         4.6931    9.3837    2.2495 O.3       1 RES1    0.0000
     76 C35        5.2756   10.0744    1.1640 C.3       1 RES1    0.0000
     77 H33        5.3816   11.0301    1.3980 H         1 RES1    0.0000
     78 H34        4.6787   10.0158    0.3764 H         1 RES1    0.0000
     79 C36        6.5935    9.5009    0.8298 C.2       1 RES1    0.0000
     80 O8         6.9695    8.4418    1.1887 O.2       1 RES1    0.0000
     81 O9         7.2617   10.2871    0.0334 O.3       1 RES1    0.0000
     82 C37        8.5385    9.8046   -0.4868 C.3       1 RES1    0.0000
     83 H35        8.7492   10.2809   -1.3282 H         1 RES1    0.0000
     84 H36        8.4619    8.8395   -0.6946 H         1 RES1    0.0000
     85 C38        9.6334   10.0096    0.4795 C.3       1 RES1    0.0000
     86 H37        9.7533   10.9700    0.6379 H         1 RES1    0.0000
     87 H38       10.4633    9.6319    0.1177 H         1 RES1    0.0000
     88 H39        9.4135    9.5641    1.3238 H         1 RES1    0.0000
     89 O10        3.5791    6.3853    7.1395 O.3       1 RES1    0.0000
     90 C39        3.7848    5.3108    8.0346 C.3       1 RES1    0.0000
     91 H40        4.6754    4.9162    7.8559 H         1 RES1    0.0000
     92 H41        3.1062    4.6125    7.8515 H         1 RES1    0.0000
     93 C40        3.7059    5.6885    9.4922 C.2       1 RES1    0.0000
     94 O11        4.2857    5.0827   10.3176 O.2       1 RES1    0.0000
     95 O12        2.8314    6.6535    9.7145 O.3       1 RES1    0.0000
     96 C41        2.5090    7.0636   11.1183 C.3       1 RES1    0.0000
     97 H42        1.5541    7.3180   11.1808 H         1 RES1    0.0000
     98 H43        2.6668    6.3051   11.7330 H         1 RES1    0.0000
     99 C42        3.3166    8.1581   11.4947 C.3       1 RES1    0.0000
    100 H44        4.2608    7.8961   11.4525 H         1 RES1    0.0000
    101 H45        3.0942    8.4295   12.4087 H         1 RES1    0.0000
    102 H46        3.1582    8.9074   10.8829 H         1 RES1    0.0000
    103 C43        5.0112    9.7768    5.6877 Du        2 SUP2    0.0000
    104 H47        5.3288   10.3102    4.9176 Du        2 SUP2    0.0000
    105 H48        5.0154   10.3626    6.4870 Du        2 SUP2    0.0000
    106 C44        7.3415    9.0338    6.2196 Du        2 SUP2    0.0000
    107 H49        7.3939    9.9387    6.5873 Du        2 SUP2    0.0000
    108 H50        7.8769    8.9829    5.4000 Du        2 SUP2    0.0000
    109 H51        7.6887    8.3925    6.8750 Du        2 SUP2    0.0000
    110 C45        5.8966    8.6977    5.9014 Du        2 SUP2    0.0000
    111 H52        5.8860    8.1304    5.0905 Du        2 SUP2    0.0000
    112 H53        5.5393    8.1520    6.6454 Du        2 SUP2    0.0000
@<TRIPOS>BOND
     1    1    2 1
     2    2    3 1
     3    4    2 1
     4    5    2 1
     5    6    5 ar
     6    7    6 1
     7    8    6 ar
     8    9    8 1
     9   10    8 ar
    10   11   10 1
    11   12   10 ar
    12   13   12 1
    13   14   13 1
    14   15   13 1
    15   16   13 1
    16   17   16 ar
    17   18   17 1
    18   19   17 ar
    19   20   19 ar
    20   21   20 1
    21   22   20 ar
    22   23   22 1
    23   24   23 1
    24   25   23 1
    25   26   23 1
    26   27   26 ar
    27   28   27 1
    28   29   27 ar
    29   30   29 1
    30   31   29 ar
    31   32   31 1
    32   33   31 ar
    33   34   33 1
    34   35   34 1
    35   36   34 1
    36   37   34 1
    37   38   37 ar
    38   39   38 1
    39   40   38 ar
    40   41    1 ar
    41   42   41 1
    42   43    5 ar
    43   44   16 ar
    44   45   26 ar
    45   46    1 ar
    46   47   19 1
    47   48   47 2
    48   49   47 2
    49   50   40 1
    50   51   50 2
    51   52   50 2
    52   53   43 1
    53   54   53 1
    54   55   54 1
    55   56   54 1
    56   57   54 1
    57   58   57 1
    58   59   57 1
    59   60   57 1
    60   61   60 1
    61   62   60 1
    62   63   60 1
    63   64   45 1
    64   65   64 1
    65   66   65 1
    66   67   65 1
    67   68   65 1
    68   69   68 1
    69   70   68 1
    70   71   68 1
    71   72   71 1
    72   73   71 1
    73   74   71 1
    74   75   46 1
    75   76   75 1
    76   77   76 1
    77   78   76 1
    78   79   76 1
    79   80   79 2
    80   81   79 1
    81   82   81 1
    82   83   82 1
    83   84   82 1
    84   85   82 1
    85   86   85 1
    86   87   85 1
    87   88   85 1
    88   89   44 1
    89   90   89 1
    90   91   90 1
    91   92   90 1
    92   93   90 1
    93   94   93 2
    94   95   93 1
    95   96   95 1
    96   97   96 1
    97   98   96 1
    98   99   96 1
    99  100   99 1
   100  101   99 1
   101  102   99 1
   102   12   43 ar
   103   22   44 ar
   104   33   45 ar
   105   37   46 ar
   106   40   41 ar
@<TRIPOS>SUBSTRUCTURE
     1 RES1 1
     2 SUP2 103

@<TRIPOS>CRYSIN
  17.1210   15.4160   14.7740  90.0000 100.3890  90.0000  14 1

