# MOL2 file generated by ConQuest
# Please check atom types

@<TRIPOS>MOLECULE
OHISEF
    52    53     1
SMALL
NO_CHARGES
****
Generated from CSD

@<TRIPOS>ATOM
      1 O1         1.6932    1.9733    7.2406 O.3       1 RES1    0.0000
      2 C1         2.2825    1.6657    8.4128 C.ar      1 RES1    0.0000
      3 C2         3.2120    2.5664    8.9445 C.ar      1 RES1    0.0000
      4 C3         3.8535    2.2866   10.1314 C.ar      1 RES1    0.0000
      5 C4         3.5249    1.1375   10.8103 C.ar      1 RES1    0.0000
      6 N1         4.1680    0.8347   12.0732 N.pl3     1 RES1    0.0000
      7 O2         5.1065    1.5283   12.4483 O.2       1 RES1    0.0000
      8 O3         3.7539   -0.1183   12.7402 O.2       1 RES1    0.0000
      9 C5         2.6158    0.2038   10.3023 C.ar      1 RES1    0.0000
     10 C6         1.9767    0.4725    9.1131 C.ar      1 RES1    0.0000
     11 C7         1.0192   -0.4790    8.5528 C.2       1 RES1    0.0000
     12 N2         0.3683   -0.2575    7.4846 N.2       1 RES1    0.0000
     13 C8        -0.5656   -1.1949    6.9790 C.ar      1 RES1    0.0000
     14 C9        -0.9430   -2.3714    7.6223 C.ar      1 RES1    0.0000
     15 C10       -1.8601   -3.2191    6.9956 C.ar      1 RES1    0.0000
     16 C11       -2.4203   -2.9309    5.7636 C.ar      1 RES1    0.0000
     17 C12       -3.3556   -3.9265    5.0823 C.3       1 RES1    0.0000
     18 C13       -2.5821   -4.9554    4.2847 C.3       1 RES1    0.0000
     19 C14       -3.4755   -6.0131    3.6153 C.3       1 RES1    0.0000
     20 C15       -2.6979   -7.1404    2.9696 C.3       1 RES1    0.0000
     21 C16       -3.5624   -8.1834    2.2765 C.3       1 RES1    0.0000
     22 C17       -2.8040   -9.4143    1.8468 C.3       1 RES1    0.0000
     23 C18       -3.6239  -10.5143    1.2059 C.3       1 RES1    0.0000
     24 C19       -2.8252  -11.7411    0.8095 C.3       1 RES1    0.0000
     25 H1        -3.3907  -12.3981    0.4107 H         1 RES1    0.0000
     26 H2        -2.4019  -12.1259    1.5833 H         1 RES1    0.0000
     27 H3        -2.1455  -11.4820    0.1828 H         1 RES1    0.0000
     28 H4        -4.3194  -10.7994    1.8231 H         1 RES1    0.0000
     29 H5        -4.0244  -10.1391    0.4083 H         1 RES1    0.0000
     30 H6        -2.3825   -9.7961    2.6326 H         1 RES1    0.0000
     31 H7        -2.1118   -9.1566    1.2249 H         1 RES1    0.0000
     32 H8        -4.2699   -8.4552    2.8842 H         1 RES1    0.0000
     33 H9        -3.9605   -7.7821    1.4955 H         1 RES1    0.0000
     34 H10       -2.1627   -7.5945    3.6533 H         1 RES1    0.0000
     35 H11       -2.1041   -6.7403    2.3097 H         1 RES1    0.0000
     36 H12       -4.0650   -6.4143    4.2847 H         1 RES1    0.0000
     37 H13       -4.0079   -5.5562    2.9530 H         1 RES1    0.0000
     38 H14       -1.9589   -5.4270    4.8663 H         1 RES1    0.0000
     39 H15       -2.0792   -4.4941    3.5987 H         1 RES1    0.0000
     40 H16       -3.8810   -4.3943    5.7565 H         1 RES1    0.0000
     41 H17       -3.9565   -3.4461    4.4912 H         1 RES1    0.0000
     42 C20       -2.0587   -1.7280    5.1725 C.ar      1 RES1    0.0000
     43 C21       -1.1412   -0.8816    5.7636 C.ar      1 RES1    0.0000
     44 H18       -0.9164   -0.0830    5.3387 H         1 RES1    0.0000
     45 H19       -2.4427   -1.4943    4.3654 H         1 RES1    0.0000
     46 H20       -2.0916   -4.0156    7.4324 H         1 RES1    0.0000
     47 H21       -0.5803   -2.6037    8.4484 H         1 RES1    0.0000
     48 H22        0.8764   -1.2778    9.0110 H         1 RES1    0.0000
     49 H23        2.4394   -0.5678   10.7818 H         1 RES1    0.0000
     50 H24        4.4929    2.8607   10.4780 H         1 RES1    0.0000
     51 H25        3.4107    3.3494    8.4721 H         1 RES1    0.0000
     52 H26        1.2554    1.2847    7.1618 H         1 RES1    0.0000
@<TRIPOS>BOND
     1    1    2 1
     2    2    3 ar
     3    3    4 ar
     4    4    5 ar
     5    5    6 1
     6    6    7 2
     7    8    6 2
     8    9    5 ar
     9   10    2 ar
    10   11   10 1
    11   12   11 2
    12   13   12 1
    13   14   13 ar
    14   15   14 ar
    15   16   15 ar
    16   17   16 1
    17   18   17 1
    18   19   18 1
    19   20   19 1
    20   21   20 1
    21   22   21 1
    22   23   22 1
    23   24   23 1
    24   25   24 1
    25   26   24 1
    26   27   24 1
    27   28   23 1
    28   29   23 1
    29   30   22 1
    30   31   22 1
    31   32   21 1
    32   33   21 1
    33   34   20 1
    34   35   20 1
    35   36   19 1
    36   37   19 1
    37   38   18 1
    38   39   18 1
    39   40   17 1
    40   41   17 1
    41   42   16 ar
    42   43   13 ar
    43   44   43 1
    44   45   42 1
    45   46   15 1
    46   47   14 1
    47   48   11 1
    48   49    9 1
    49   50    4 1
    50   51    3 1
    51   52    1 1
    52    9   10 ar
    53   42   43 ar
@<TRIPOS>SUBSTRUCTURE
     1 RES1 1

@<TRIPOS>CRYSIN
   4.6306    8.8802   23.8930  95.7440  91.8590 101.7390   2 1

