# MOL2 file generated by ConQuest
# Please check atom types

@<TRIPOS>MOLECULE
OHOLOO
    22    19     2
SMALL
NO_CHARGES
****
Generated from CSD

@<TRIPOS>ATOM
      1 C1         4.8521    4.5099    2.2222 C.3       1 RES1    0.0000
      2 H1         4.2315    5.1585    1.8282 H         1 RES1    0.0000
      3 H2         5.1707    3.8984    1.5254 H         1 RES1    0.0000
      4 H3         5.6153    4.9838    2.6136 H         1 RES1    0.0000
      5 C2         5.0714    1.4988    3.1936 C.3       1 RES1    0.0000
      6 H4         5.4467    1.5752    2.2909 H         1 RES1    0.0000
      7 H5         4.1593    1.1450    3.1399 H         1 RES1    0.0000
      8 H6         5.6263    0.8922    3.7272 H         1 RES1    0.0000
      9 C3         5.4687    3.0898    5.0507 C.2       1 RES1    0.0000
     10 C4         5.1926    4.5455    5.4701 C.2       1 RES1    0.0000
     11 C5         3.8484    4.7753    6.1766 C.2       1 RES1    0.0000
     12 C6         3.6010    6.1737    6.6532 C.3       1 RES1    0.0000
     13 H7         2.6995    6.2347    7.0327 H         1 RES1    0.0000
     14 H8         3.6816    6.7947    5.8993 H         1 RES1    0.0000
     15 H9         4.2598    6.4061    7.3398 H         1 RES1    0.0000
     16 N1         5.0464    2.8036    3.8169 N.am      1 RES1    0.0000
     17 O1         4.1717    3.7555    3.2529 O.3       1 RES1    0.0000
     18 O2         6.1038    2.3270    5.7671 O.2       1 RES1    0.0000
     19 O3         5.9634    5.4469    5.2625 O.2       1 RES1    0.0000
     20 O4         3.0935    3.8167    6.2587 O.2       1 RES1    0.0000
     21 C7         4.2236    3.9248    5.8412 Du        2 SUP2    0.0000
     22 C8         4.7162    5.3081    5.8738 Du        2 SUP2    0.0000
@<TRIPOS>BOND
     1    1    2 1
     2    3    1 1
     3    4    1 1
     4    5    6 1
     5    7    5 1
     6    8    5 1
     7    9   10 1
     8   10   11 1
     9   11   12 1
    10   12   13 1
    11   14   12 1
    12   15   12 1
    13   16    5 1
    14   17    1 1
    15   18    9 2
    16   19   10 2
    17   20   11 2
    18    9   16 1
    19   16   17 1
@<TRIPOS>SUBSTRUCTURE
     1 RES1 1
     2 SUP2 21

@<TRIPOS>CRYSIN
  16.4651    6.6186   14.9686  90.0000 109.0330  90.0000  15 1

