# MOL2 file generated by ConQuest
# Please check atom types

@<TRIPOS>MOLECULE
OHOLED
    68    71     1
SMALL
NO_CHARGES
****
Generated from CSD

@<TRIPOS>ATOM
      1 O1         4.0005    9.4194   31.3810 O.3       1 RES1    0.0000
      2 N1         3.3732    8.3530   30.6850 N.2       1 RES1    0.0000
      3 C1         6.8406    4.7441   29.3987 C.3       1 RES1    0.0000
      4 H1         6.7988    4.8000   28.4220 H         1 RES1    0.0000
      5 C2         5.4245    4.7670   29.9231 C.2       1 RES1    0.0000
      6 H2         5.1926    4.1545   30.5841 H         1 RES1    0.0000
      7 N2         2.2551    6.4202   29.1627 N.3       1 RES1    0.0000
      8 O2         0.0625    6.7044   27.3831 O.3       1 RES1    0.0000
      9 C3         4.4949    5.6087   29.4971 C.2       1 RES1    0.0000
     10 H3         4.6543    6.0222   28.6804 H         1 RES1    0.0000
     11 C4         3.1916    5.9736   30.2020 C.3       1 RES1    0.0000
     12 C5         3.6723    7.1656   31.0678 C.2       1 RES1    0.0000
     13 C6         4.7077    6.8997   32.1093 C.3       1 RES1    0.0000
     14 H4         5.0031    5.9755   32.0845 H         1 RES1    0.0000
     15 H5         4.3779    7.1078   32.9974 H         1 RES1    0.0000
     16 C7         5.8432    7.8652   31.6871 C.3       1 RES1    0.0000
     17 H6         5.8395    7.8294   30.7080 H         1 RES1    0.0000
     18 C8         5.3414    9.2699   32.0144 C.3       1 RES1    0.0000
     19 C9         6.2530   10.2785   31.3470 C.3       1 RES1    0.0000
     20 H7         5.9777   11.1752   31.5926 H         1 RES1    0.0000
     21 H8         6.1794   10.1932   30.3824 H         1 RES1    0.0000
     22 C10        7.7035   10.0584   31.7678 C.3       1 RES1    0.0000
     23 H9         7.7871   10.2253   32.7214 H         1 RES1    0.0000
     24 H10        8.2694   10.6939   31.3025 H         1 RES1    0.0000
     25 C11        8.1836    8.6382   31.4610 C.3       1 RES1    0.0000
     26 H11        9.0888    8.5373   31.7943 H         1 RES1    0.0000
     27 H12        8.2101    8.5208   30.4992 H         1 RES1    0.0000
     28 C12        7.2990    7.5168   32.0746 C.3       1 RES1    0.0000
     29 C13        7.6987    6.1570   31.4337 C.3       1 RES1    0.0000
     30 H13        8.6193    5.9745   31.6811 H         1 RES1    0.0000
     31 H14        7.1529    5.4666   31.8403 H         1 RES1    0.0000
     32 C14        7.5844    6.0030   29.9150 C.3       1 RES1    0.0000
     33 H15        8.4811    5.9975   29.5438 H         1 RES1    0.0000
     34 H16        7.1323    6.7860   29.5650 H         1 RES1    0.0000
     35 C15        7.5436    3.4109   29.7685 C.3       1 RES1    0.0000
     36 H17        7.4922    3.2926   30.7398 H         1 RES1    0.0000
     37 C16        6.8385    2.2446   29.1068 C.3       1 RES1    0.0000
     38 H18        5.9205    2.2262   29.3845 H         1 RES1    0.0000
     39 H19        7.2673    1.4249   29.3598 H         1 RES1    0.0000
     40 H20        6.8808    2.3454   28.1531 H         1 RES1    0.0000
     41 C17        9.0253    3.4191   29.3583 C.3       1 RES1    0.0000
     42 H21        9.4324    2.5875   29.6110 H         1 RES1    0.0000
     43 H22        9.4758    4.1426   29.8021 H         1 RES1    0.0000
     44 H23        9.0925    3.5337   28.4079 H         1 RES1    0.0000
     45 C18        2.6368    4.8623   31.0877 C.3       1 RES1    0.0000
     46 H24        2.3414    4.1325   30.5381 H         1 RES1    0.0000
     47 H25        1.8962    5.1988   31.5962 H         1 RES1    0.0000
     48 H26        3.3239    4.5561   31.6846 H         1 RES1    0.0000
     49 C19        5.0979    9.6220   33.4652 C.3       1 RES1    0.0000
     50 H27        4.7930   10.5297   33.5282 H         1 RES1    0.0000
     51 H28        5.9163    9.5248   33.9599 H         1 RES1    0.0000
     52 H29        4.4325    9.0343   33.8290 H         1 RES1    0.0000
     53 C20        7.5351    7.4104   33.5753 C.3       1 RES1    0.0000
     54 H30        6.9782    6.7191   33.9387 H         1 RES1    0.0000
     55 H31        7.3207    8.2476   33.9918 H         1 RES1    0.0000
     56 H32        8.4573    7.1977   33.7406 H         1 RES1    0.0000
     57 C21        0.9841    6.9767   29.6117 C.3       1 RES1    0.0000
     58 H33        1.1371    7.6396   30.3046 H         1 RES1    0.0000
     59 H34        0.4251    6.2744   29.9790 H         1 RES1    0.0000
     60 C22        0.2991    7.6167   28.4178 C.3       1 RES1    0.0000
     61 H35       -0.5453    7.9991   28.7051 H         1 RES1    0.0000
     62 H36        0.8544    8.3383   28.0823 H         1 RES1    0.0000
     63 C23        1.2880    6.1222   26.9716 C.3       1 RES1    0.0000
     64 H37        1.8655    6.8126   26.6103 H         1 RES1    0.0000
     65 H38        1.1165    5.4767   26.2670 H         1 RES1    0.0000
     66 C24        1.9889    5.4327   28.1230 C.3       1 RES1    0.0000
     67 H39        1.4283    4.7239   28.4751 H         1 RES1    0.0000
     68 H40        2.8210    5.0402   27.8169 H         1 RES1    0.0000
@<TRIPOS>BOND
     1    1    2 1
     2    2   12 2
     3    3    4 1
     4    5    3 1
     5    6    5 1
     6    7   11 1
     7    8   60 1
     8    9    5 2
     9   10    9 1
    10   11    9 1
    11   12   11 1
    12   13   12 1
    13   14   13 1
    14   15   13 1
    15   16   13 1
    16   17   16 1
    17   18    1 1
    18   19   18 1
    19   20   19 1
    20   21   19 1
    21   22   19 1
    22   23   22 1
    23   24   22 1
    24   25   22 1
    25   26   25 1
    26   27   25 1
    27   28   16 1
    28   29   28 1
    29   30   29 1
    30   31   29 1
    31   32    3 1
    32   33   32 1
    33   34   32 1
    34   35    3 1
    35   36   35 1
    36   37   35 1
    37   38   37 1
    38   39   37 1
    39   40   37 1
    40   41   35 1
    41   42   41 1
    42   43   41 1
    43   44   41 1
    44   45   11 1
    45   46   45 1
    46   47   45 1
    47   48   45 1
    48   49   18 1
    49   50   49 1
    50   51   49 1
    51   52   49 1
    52   53   28 1
    53   54   53 1
    54   55   53 1
    55   56   53 1
    56   57    7 1
    57   58   57 1
    58   59   57 1
    59   60   57 1
    60   61   60 1
    61   62   60 1
    62   63    8 1
    63   64   63 1
    64   65   63 1
    65   66    7 1
    66   67   66 1
    67   68   66 1
    68   16   18 1
    69   25   28 1
    70   29   32 1
    71   63   66 1
@<TRIPOS>SUBSTRUCTURE
     1 RES1 1

@<TRIPOS>CRYSIN
  10.5875   10.5875   35.3860  90.0000  90.0000 120.0000 170 1

