# MOL2 file generated by ConQuest
# Please check atom types

@<TRIPOS>MOLECULE
OHONIK
    32    31     1
SMALL
NO_CHARGES
****
Generated from CSD

@<TRIPOS>ATOM
      1 O1        -0.0700    3.6273    4.0560 O.3       1 RES1    0.0000
      2 H1         0.4627    3.0334    4.3947 H         1 RES1    0.0000
      3 N1         0.9661    5.7911    2.4549 N.am      1 RES1    0.0000
      4 C1        -1.0780    0.3255    1.5409 C.2       1 RES1    0.0000
      5 H2        -1.1655    0.5297    0.6173 H         1 RES1    0.0000
      6 H3        -0.9652   -0.5754    1.8199 H         1 RES1    0.0000
      7 O2         1.8397    2.1431    2.9877 O.2       1 RES1    0.0000
      8 C2        -1.1134    1.2923    2.4362 C.2       1 RES1    0.0000
      9 H4        -1.0225    1.0476    3.3489 H         1 RES1    0.0000
     10 O3        -0.9659    5.4183    1.3810 O.2       1 RES1    0.0000
     11 C3        -1.2864    2.7544    2.1253 C.3       1 RES1    0.0000
     12 H5        -1.3437    2.8665    1.1333 H         1 RES1    0.0000
     13 O4         2.1526    5.1526    2.8360 O.3       1 RES1    0.0000
     14 C4        -0.0502    3.5447    2.6450 C.3       1 RES1    0.0000
     15 C5         1.2056    2.7897    2.1818 C.2       1 RES1    0.0000
     16 C6         1.5437    2.8350    0.7294 C.3       1 RES1    0.0000
     17 H6         0.7844    2.5028    0.2061 H         1 RES1    0.0000
     18 H7         2.3287    2.2736    0.5589 H         1 RES1    0.0000
     19 H8         1.7401    3.7592    0.4686 H         1 RES1    0.0000
     20 C7        -2.5895    3.2666    2.7526 C.3       1 RES1    0.0000
     21 H9        -2.7258    4.2037    2.5028 H         1 RES1    0.0000
     22 H10       -2.5336    3.1926    3.7282 H         1 RES1    0.0000
     23 H11       -3.3416    2.7290    2.4271 H         1 RES1    0.0000
     24 C8        -0.0641    4.9872    2.0846 C.2       1 RES1    0.0000
     25 C9         1.1545    7.1103    1.8700 C.3       1 RES1    0.0000
     26 H12        0.2854    7.5507    1.7706 H         1 RES1    0.0000
     27 H13        1.5780    7.0202    0.9911 H         1 RES1    0.0000
     28 H14        1.7286    7.6475    2.4554 H         1 RES1    0.0000
     29 C10        2.4935    5.5019    4.1959 C.3       1 RES1    0.0000
     30 H15        3.3480    5.0870    4.4357 H         1 RES1    0.0000
     31 H16        1.7929    5.1791    4.8013 H         1 RES1    0.0000
     32 H17        2.5695    6.4758    4.2734 H         1 RES1    0.0000
@<TRIPOS>BOND
     1    1    2 1
     2    3   13 1
     3    4    5 1
     4    6    4 1
     5    7   15 2
     6    8    4 2
     7    9    8 1
     8   10   24 2
     9   11    8 1
    10   12   11 1
    11   13   29 1
    12   14    1 1
    13   15   14 1
    14   16   15 1
    15   17   16 1
    16   18   16 1
    17   19   16 1
    18   20   11 1
    19   21   20 1
    20   22   20 1
    21   23   20 1
    22   24    3 1
    23   25    3 1
    24   26   25 1
    25   27   25 1
    26   28   25 1
    27   29   30 1
    28   31   29 1
    29   32   29 1
    30   11   14 1
    31   14   24 1
@<TRIPOS>SUBSTRUCTURE
     1 RES1 1

@<TRIPOS>CRYSIN
   7.8792    8.1476   10.2749 106.1910 106.5850 104.5380   2 1

