# MOL2 file generated by ConQuest
# Please check atom types

@<TRIPOS>MOLECULE
OHPOXZ
    19    20     1
SMALL
NO_CHARGES
****
Generated from CSD

@<TRIPOS>ATOM
      1 O1        -0.8807    8.1486   14.4472 O.3       1 RES1    0.0000
      2 O2        -1.0579    1.6470   13.3487 O.2       1 RES1    0.0000
      3 O3        -1.2398    1.1448   11.1320 O.3       1 RES1    0.0000
      4 N1        -1.1243    2.1042   12.1921 N.pl3     1 RES1    0.0000
      5 N2        -1.2975    1.8369    9.9518 N.2       1 RES1    0.0000
      6 C1        -1.1209    3.3093   11.6676 C.2       1 RES1    0.0000
      7 C2        -1.2338    3.0915   10.2623 C.2       1 RES1    0.0000
      8 C3        -1.0603    5.7438   11.7047 C.ar      1 RES1    0.0000
      9 C4        -1.0028    6.9543   12.3517 C.ar      1 RES1    0.0000
     10 C5        -0.9238    6.9876   13.7421 C.ar      1 RES1    0.0000
     11 C6        -0.8767    5.8068   14.4509 C.ar      1 RES1    0.0000
     12 C7        -0.9321    4.5945   13.7978 C.ar      1 RES1    0.0000
     13 C8        -1.0359    4.5540   12.4073 C.ar      1 RES1    0.0000
     14 H1        -1.1795    3.7278    9.5931 H         1 RES1    0.0000
     15 H2        -1.0538    5.7438   10.7497 H         1 RES1    0.0000
     16 H3        -1.0166    7.7346   11.8952 H         1 RES1    0.0000
     17 H4        -0.8733    5.8086   15.4269 H         1 RES1    0.0000
     18 H5        -0.9914    3.7908   14.2641 H         1 RES1    0.0000
     19 H6        -0.8720    8.8344   13.9549 H         1 RES1    0.0000
@<TRIPOS>BOND
     1    1   10 1
     2    2    4 1
     3    3    4 1
     4    4    6 2
     5    5    3 1
     6    6    7 1
     7    7    5 2
     8    8    9 ar
     9    9   10 ar
    10   10   11 ar
    11   11   12 ar
    12   12   13 ar
    13   13    6 1
    14   14    7 1
    15   15    8 1
    16   16    9 1
    17   17   11 1
    18   18   12 1
    19   19    1 1
    20    8   13 ar
@<TRIPOS>SUBSTRUCTURE
     1 RES1 1

@<TRIPOS>CRYSIN
   6.8940    9.0000   12.6750  90.0000 102.5900  90.0000  14 1

