# MOL2 file generated by ConQuest
# Please check atom types

@<TRIPOS>MOLECULE
OHUDOM
    69    56     2
SMALL
NO_CHARGES
****
Generated from CSD

@<TRIPOS>ATOM
      1 O1        -4.5192    4.2001    2.1934 O.2       1 RES1    0.0000
      2 O2        -1.7286    2.3276    5.0860 O.2       1 RES1    0.0000
      3 O3         4.3541    6.0405    3.8157 O.3       1 RES1    0.0000
      4 H1         5.0996    6.1351    3.4371 H         1 RES1    0.0000
      5 O4         6.5969    4.2392    4.2819 O.2       1 RES1    0.0000
      6 C1        -3.8970    5.1907    1.8351 C.2       1 RES1    0.0000
      7 C2        -4.4516    6.2390    0.9481 C.3       1 RES1    0.0000
      8 H2        -4.3844    7.1198    1.3939 H         1 RES1    0.0000
      9 H3        -5.4083    6.0541    0.7775 H         1 RES1    0.0000
     10 C3        -3.7019    6.2819   -0.3708 C.3       1 RES1    0.0000
     11 H4        -4.0482    7.0273   -0.9230 H         1 RES1    0.0000
     12 H5        -3.8542    5.4375   -0.8651 H         1 RES1    0.0000
     13 C4        -2.2070    6.4727   -0.1424 C.3       1 RES1    0.0000
     14 H6        -2.0431    7.3666    0.2503 H         1 RES1    0.0000
     15 H7        -1.7299    6.4260   -1.0091 H         1 RES1    0.0000
     16 C5        -1.6652    5.3968    0.7963 C.3       1 RES1    0.0000
     17 H8        -0.7033    5.5642    0.9590 H         1 RES1    0.0000
     18 H9        -1.7489    4.5133    0.3583 H         1 RES1    0.0000
     19 C6        -2.4008    5.3598    2.1433 C.3       1 RES1    0.0000
     20 H10       -2.2789    6.2509    2.5813 H         1 RES1    0.0000
     21 C7        -1.8437    4.2871    3.1007 C.3       1 RES1    0.0000
     22 H11       -2.0612    3.3889    2.7190 H         1 RES1    0.0000
     23 C8        -2.5516    4.4110    4.4399 C.3       1 RES1    0.0000
     24 C9        -0.3272    4.3887    3.2368 C.ar      1 RES1    0.0000
     25 C10        0.5189    3.4177    2.7378 C.ar      1 RES1    0.0000
     26 H12        0.1504    2.6685    2.2857 H         1 RES1    0.0000
     27 C11        1.8984    3.5096    2.8848 C.ar      1 RES1    0.0000
     28 H13        2.4574    2.8207    2.5438 H         1 RES1    0.0000
     29 C12        2.4619    4.6002    3.5231 C.ar      1 RES1    0.0000
     30 C13        1.6262    5.5930    4.0066 C.ar      1 RES1    0.0000
     31 H14        2.0013    6.3531    4.4352 H         1 RES1    0.0000
     32 C14        0.2457    5.4979    3.8798 C.ar      1 RES1    0.0000
     33 H15       -0.3118    6.1840    4.2287 H         1 RES1    0.0000
     34 C15        3.9596    4.6758    3.7500 C.3       1 RES1    0.0000
     35 H16        4.4219    4.2452    2.9756 H         1 RES1    0.0000
     36 C16        4.3519    3.9326    5.0297 C.3       1 RES1    0.0000
     37 H17        4.0584    2.9844    4.9077 H         1 RES1    0.0000
     38 C17        5.8691    3.9010    5.1815 C.2       1 RES1    0.0000
     39 C18        3.6868    4.4235    6.2797 C.3       1 RES1    0.0000
     40 H18        2.7015    4.3588    6.1905 H         1 RES1    0.0000
     41 H19        3.9237    5.3707    6.4440 H         1 RES1    0.0000
     42 O5        -1.6427    4.0179    6.5347 O.2       1 RES1    0.0000
     43 N1        -1.8837    3.5395    5.4318 N.pl3     1 RES1    0.0000
     44 C19        6.3539    3.0991    6.4189 C.3       1 RES1    0.0000
     45 H20        6.1170    2.1433    6.3079 H         1 RES1    0.0000
     46 H21        7.3384    3.1643    6.4925 H         1 RES1    0.0000
     47 C20        5.7408    3.6102    7.6267 C.3       1 RES1    0.0000
     48 H22        5.9981    4.5600    7.7550 H         1 RES1    0.0000
     49 H23        6.0584    3.0964    8.4089 H         1 RES1    0.0000
     50 C21        4.1974    3.4960    7.5141 C.3       1 RES1    0.0000
     51 H24        3.7737    3.7977    8.3589 H         1 RES1    0.0000
     52 H25        3.9395    2.5543    7.3576 H         1 RES1    0.0000
     53 H26       -2.5738    5.4370    4.7716 H         1 RES1    0.0000
     54 H27       -3.5610    4.0506    4.3492 H         1 RES1    0.0000
     55 H28       -2.3053    5.2793    4.8467 Du        2 SUP2    0.0000
     56 H29       -3.5282    4.4203    4.2803 Du        2 SUP2    0.0000
     57 O6        -2.5344    3.5069    6.5785 Du        2 SUP2    0.0000
     58 N2        -2.2313    3.3057    5.4286 Du        2 SUP2    0.0000
     59 C22        6.4176    3.5775    6.5535 Du        2 SUP2    0.0000
     60 H30        6.4925    2.5945    6.6348 Du        2 SUP2    0.0000
     61 H31        7.3302    3.9538    6.6208 Du        2 SUP2    0.0000
     62 C23        5.6208    4.0832    7.6940 Du        2 SUP2    0.0000
     63 H32        5.9330    3.6314    8.5200 Du        2 SUP2    0.0000
     64 H33        5.7925    5.0499    7.7988 Du        2 SUP2    0.0000
     65 C24        4.1746    3.8711    7.5626 Du        2 SUP2    0.0000
     66 H34        3.7071    4.3121    8.3151 Du        2 SUP2    0.0000
     67 H35        3.9769    2.9017    7.6032 Du        2 SUP2    0.0000
     68 H36        3.9008    5.5457    6.1483 Du        2 SUP2    0.0000
     69 H37        2.8482    4.2952    6.1952 Du        2 SUP2    0.0000
@<TRIPOS>BOND
     1    1    6 2
     2    2   43 2
     3    3    4 1
     4    5   38 2
     5    6    7 1
     6    7    8 1
     7    9    7 1
     8   10    7 1
     9   11   10 1
    10   12   10 1
    11   13   10 1
    12   14   13 1
    13   15   13 1
    14   16   13 1
    15   17   16 1
    16   18   16 1
    17   19    6 1
    18   20   19 1
    19   21   19 1
    20   22   21 1
    21   23   21 1
    22   24   21 1
    23   25   24 ar
    24   26   25 1
    25   27   25 ar
    26   28   27 1
    27   29   27 ar
    28   30   29 ar
    29   31   30 1
    30   32   24 ar
    31   33   32 1
    32   34    3 1
    33   35   34 1
    34   36   34 1
    35   37   36 1
    36   38   36 1
    37   39   36 1
    38   40   39 1
    39   41   39 1
    40   42   43 2
    41   43   23 1
    42   44   38 1
    43   45   44 1
    44   46   44 1
    45   47   44 1
    46   48   47 1
    47   49   47 1
    48   50   39 1
    49   51   50 1
    50   52   50 1
    51   53   23 1
    52   54   23 1
    53   16   19 1
    54   29   34 1
    55   30   32 ar
    56   47   50 1
@<TRIPOS>SUBSTRUCTURE
     1 RES1 1
     2 SUP2 55

@<TRIPOS>CRYSIN
  22.4970    5.4370   16.7310  90.0000 110.7620  90.0000   5 1

