# MOL2 file generated by ConQuest
# Please check atom types

@<TRIPOS>MOLECULE
OJACAE
    38    41     1
SMALL
NO_CHARGES
****
Generated from CSD

@<TRIPOS>ATOM
      1 O1         1.4347    3.4028   -0.5445 O.2       1 RES1    0.0000
      2 O2         0.5864    5.9879   -0.8932 O.3       1 RES1    0.0000
      3 O3         4.0504    6.4124    0.8907 O.2       1 RES1    0.0000
      4 O4         5.4427    4.8840    1.6517 O.3       1 RES1    0.0000
      5 N1         1.7654    5.6278   -0.2449 N.am      1 RES1    0.0000
      6 N2         8.7835    1.8790    3.2098 N.3       1 RES1    0.0000
      7 C1         2.1407    4.3502   -0.1382 C.2       1 RES1    0.0000
      8 C2         3.4483    4.1180    0.5286 C.2       1 RES1    0.0000
      9 C3         4.2742    5.2134    1.0027 C.2       1 RES1    0.0000
     10 C4         3.8790    2.8170    0.6870 C.2       1 RES1    0.0000
     11 H1         3.3369    2.1081    0.3595 H         1 RES1    0.0000
     12 C5         5.0985    2.5101    1.3198 C.ar      1 RES1    0.0000
     13 C6         5.8691    3.5803    1.8241 C.ar      1 RES1    0.0000
     14 C7         7.0758    3.4182    2.4856 C.ar      1 RES1    0.0000
     15 C8         7.5789    2.0958    2.6083 C.ar      1 RES1    0.0000
     16 C9         6.8186    0.9805    2.1073 C.ar      1 RES1    0.0000
     17 C10        5.6154    1.2000    1.4873 C.ar      1 RES1    0.0000
     18 H2         5.1171    0.4588    1.1623 H         1 RES1    0.0000
     19 C11        7.8255    4.5945    3.0622 C.3       1 RES1    0.0000
     20 H3         7.1824    5.2782    3.3757 H         1 RES1    0.0000
     21 H4         8.3937    5.0028    2.3625 H         1 RES1    0.0000
     22 C12        8.6969    4.1350    4.2289 C.3       1 RES1    0.0000
     23 H5         9.2654    4.8845    4.5367 H         1 RES1    0.0000
     24 H6         8.1227    3.8537    4.9838 H         1 RES1    0.0000
     25 C13        9.5739    2.9707    3.7890 C.3       1 RES1    0.0000
     26 H7        10.2287    3.2910    3.1195 H         1 RES1    0.0000
     27 H8        10.0782    2.6294    4.5694 H         1 RES1    0.0000
     28 C14        9.4986    0.5984    3.1337 C.3       1 RES1    0.0000
     29 H9         9.4586    0.1521    4.0164 H         1 RES1    0.0000
     30 H10       10.4502    0.7706    2.9234 H         1 RES1    0.0000
     31 C15        8.9166   -0.3308    2.0793 C.3       1 RES1    0.0000
     32 H11        9.3097   -1.2344    2.1742 H         1 RES1    0.0000
     33 H12        9.1346    0.0093    1.1754 H         1 RES1    0.0000
     34 C16        7.3983   -0.4057    2.2525 C.3       1 RES1    0.0000
     35 H13        7.0108   -1.0063    1.5676 H         1 RES1    0.0000
     36 H14        7.1783   -0.7706    3.1469 H         1 RES1    0.0000
     37 H15        2.2926    6.2727    0.0026 H         1 RES1    0.0000
     38 H16       -0.0994    5.6069   -0.3543 H         1 RES1    0.0000
@<TRIPOS>BOND
     1    1    7 2
     2    2    5 1
     3    3    9 2
     4    4    9 1
     5    5    7 1
     6    6   15 1
     7    7    8 1
     8    8    9 1
     9   10    8 2
    10   11   10 1
    11   12   10 1
    12   13    4 1
    13   14   13 ar
    14   15   14 ar
    15   16   15 ar
    16   17   12 ar
    17   18   17 1
    18   19   14 1
    19   20   19 1
    20   21   19 1
    21   22   19 1
    22   23   22 1
    23   24   22 1
    24   25    6 1
    25   26   25 1
    26   27   25 1
    27   28    6 1
    28   29   28 1
    29   30   28 1
    30   31   28 1
    31   32   31 1
    32   33   31 1
    33   34   16 1
    34   35   34 1
    35   36   34 1
    36   37    5 1
    37   38    2 1
    38   12   13 ar
    39   16   17 ar
    40   22   25 1
    41   31   34 1
@<TRIPOS>SUBSTRUCTURE
     1 RES1 1

@<TRIPOS>CRYSIN
  12.0319    8.4492   13.5644  90.0000 105.4520  90.0000  14 1

