# MOL2 file generated by ConQuest
# Please check atom types

@<TRIPOS>MOLECULE
OJAJAL
    64    64     2
SMALL
NO_CHARGES
****
Generated from CSD

@<TRIPOS>ATOM
      1 O1         4.4681    1.9469    4.9789 O.2       1 RES1    0.0000
      2 O2         5.4830    3.6345    3.9382 O.3       1 RES1    0.0000
      3 H1         5.8492    2.9878    3.4981 H         1 RES1    0.0000
      4 O3         4.0576    3.1746    8.8680 O.2       1 RES1    0.0000
      5 O4         2.2576    4.3530    8.7392 O.2       1 RES1    0.0000
      6 N1         3.4578    4.1943    8.5667 N.pl3     1 RES1    0.0000
      7 C1         4.6456    3.1528    4.8167 C.2       1 RES1    0.0000
      8 C2         3.9298    4.1828    5.6567 C.3       1 RES1    0.0000
      9 H2         3.3414    3.6825    6.1535 H         1 RES1    0.0000
     10 C3         3.1767    5.1872    4.7770 C.3       1 RES1    0.0000
     11 H3         2.8109    5.8193    5.3563 H         1 RES1    0.0000
     12 H4         3.8168    5.5965    4.2013 H         1 RES1    0.0000
     13 C4         2.1178    4.4987    3.9258 C.3       1 RES1    0.0000
     14 H5         1.4881    3.9907    4.4984 H         1 RES1    0.0000
     15 H6         1.6259    5.1204    3.4193 H         1 RES1    0.0000
     16 H7         2.5216    3.8493    3.3101 H         1 RES1    0.0000
     17 C5         4.9425    4.8099    6.6603 C.3       1 RES1    0.0000
     18 H8         5.5598    4.1375    6.9689 H         1 RES1    0.0000
     19 C6         4.2460    5.3215    7.9313 C.3       1 RES1    0.0000
     20 H9         3.5963    5.9787    7.7601 H         1 RES1    0.0000
     21 C7         5.2546    5.8303    8.9607 C.3       1 RES1    0.0000
     22 H10        5.8078    5.1014    9.2120 H         1 RES1    0.0000
     23 H11        4.7813    6.1508    9.7607 H         1 RES1    0.0000
     24 C8         6.1144    6.9373    8.3584 C.3       1 RES1    0.0000
     25 H12        5.5874    7.7355    8.1359 H         1 RES1    0.0000
     26 H13        6.7517    7.2266    9.0544 H         1 RES1    0.0000
     27 C9         6.8075    6.4692    7.0853 C.3       1 RES1    0.0000
     28 H14        7.3304    7.2182    6.7021 H         1 RES1    0.0000
     29 H15        7.4544    5.7781    7.2963 H         1 RES1    0.0000
     30 C10        5.7748    5.9546    6.0786 C.3       1 RES1    0.0000
     31 H16        5.2291    6.6702    5.8473 H         1 RES1    0.0000
     32 H17        6.1937    5.6419    5.2926 H         1 RES1    0.0000
     33 O5         6.8098    1.7657    2.6651 O.2       2 RES2    0.0000
     34 O6         5.8011    0.0576    3.6436 O.3       2 RES2    0.0000
     35 H18        5.5254    0.6757    4.0680 H         2 RES2    0.0000
     36 O7         7.0143   -0.7318   -1.1858 O.2       2 RES2    0.0000
     37 O8         8.0943   -2.5853   -0.9451 O.2       2 RES2    0.0000
     38 N2         7.9560   -1.3798   -0.7563 N.pl3     2 RES2    0.0000
     39 C11        6.6766    0.5603    2.8267 C.2       2 RES2    0.0000
     40 C12        7.4861   -0.4686    2.0546 C.3       2 RES2    0.0000
     41 H19        6.8344   -0.9322    1.5611 H         2 RES2    0.0000
     42 C13        8.1882   -1.4886    2.9794 C.3       2 RES2    0.0000
     43 H20        8.7497   -1.0367    3.6102 H         2 RES2    0.0000
     44 H21        8.7566   -2.0112    2.4008 H         2 RES2    0.0000
     45 C14        7.2677   -2.4545    3.7160 C.3       2 RES2    0.0000
     46 H22        6.7655   -1.9700    4.3590 H         2 RES2    0.0000
     47 H23        7.7645   -3.1662    4.1468 H         2 RES2    0.0000
     48 H24        6.6346   -2.9054    3.0980 H         2 RES2    0.0000
     49 C15        8.4500    0.2482    1.0897 C.3       2 RES2    0.0000
     50 H25        7.9574    0.9185    0.6214 H         2 RES2    0.0000
     51 C16        9.0376   -0.6696    0.0182 C.3       2 RES2    0.0000
     52 H26        9.5833   -1.3767    0.4092 H         2 RES2    0.0000
     53 C17        9.8761    0.1112   -0.9949 C.3       2 RES2    0.0000
     54 H27        9.2870    0.7390   -1.4732 H         2 RES2    0.0000
     55 H28       10.2102   -0.4761   -1.6733 H         2 RES2    0.0000
     56 C18       11.0163    0.8393   -0.2916 C.3       2 RES2    0.0000
     57 H29       11.6088    0.2122    0.0697 H         2 RES2    0.0000
     58 H30       11.5124    1.3197   -0.9063 H         2 RES2    0.0000
     59 C19       10.4865    1.7291    0.8297 C.3       2 RES2    0.0000
     60 H31       11.1885    2.1664    1.2792 H         2 RES2    0.0000
     61 H32        9.9484    2.4409    0.4577 H         2 RES2    0.0000
     62 C20        9.6405    0.9179    1.8045 C.3       2 RES2    0.0000
     63 H33       10.1345    0.2238    2.2068 H         2 RES2    0.0000
     64 H34        9.2733    1.4664    2.5129 H         2 RES2    0.0000
@<TRIPOS>BOND
     1    1    7 2
     2    2    3 1
     3    4    6 2
     4    5    6 2
     5    6   19 1
     6    7    2 1
     7    8    7 1
     8    9    8 1
     9   10    8 1
    10   11   10 1
    11   12   10 1
    12   13   10 1
    13   14   13 1
    14   15   13 1
    15   16   13 1
    16   17    8 1
    17   18   17 1
    18   19   17 1
    19   20   19 1
    20   21   19 1
    21   22   21 1
    22   23   21 1
    23   24   21 1
    24   25   24 1
    25   26   24 1
    26   27   24 1
    27   28   27 1
    28   29   27 1
    29   30   17 1
    30   31   30 1
    31   32   30 1
    32   33   39 2
    33   34   35 1
    34   36   38 2
    35   37   38 2
    36   38   51 1
    37   39   34 1
    38   40   39 1
    39   41   40 1
    40   42   40 1
    41   43   42 1
    42   44   42 1
    43   45   42 1
    44   46   45 1
    45   47   45 1
    46   48   45 1
    47   49   40 1
    48   50   49 1
    49   51   49 1
    50   52   51 1
    51   53   51 1
    52   54   53 1
    53   55   53 1
    54   56   53 1
    55   57   56 1
    56   58   56 1
    57   59   56 1
    58   60   59 1
    59   61   59 1
    60   62   49 1
    61   63   62 1
    62   64   62 1
    63   27   30 1
    64   59   62 1
@<TRIPOS>SUBSTRUCTURE
     1 RES1 1
     2 RES2 33

@<TRIPOS>CRYSIN
   6.8895   10.5575   30.3127  90.0000  90.0000  90.0000  19 1

