# MOL2 file generated by ConQuest
# Please check atom types

@<TRIPOS>MOLECULE
OJAQIZ
    56    57     1
SMALL
NO_CHARGES
****
Generated from CSD

@<TRIPOS>ATOM
      1 O1         2.6519    8.3826    8.7672 O.3       1 RES1    0.0000
      2 O2         6.1774    4.8933    5.8542 O.2       1 RES1    0.0000
      3 O3         5.2360    6.9514    5.7830 O.3       1 RES1    0.0000
      4 N1         3.9270    5.1500    5.9843 N.am      1 RES1    0.0000
      5 N2         3.7121    7.4938    8.9934 N.am      1 RES1    0.0000
      6 O4         1.0659    6.2341    9.1035 O.3       1 RES1    0.0000
      7 C1         2.7848    5.9952    5.7722 C.ar      1 RES1    0.0000
      8 O5         1.9960    4.3849    8.1759 O.3       1 RES1    0.0000
      9 C2         3.7432    3.6957    5.8542 C.3       1 RES1    0.0000
     10 C3         1.9055    6.3142    6.8092 C.ar      1 RES1    0.0000
     11 C4         0.6078    7.6405    5.2612 C.ar      1 RES1    0.0000
     12 C5         5.2105    5.6157    5.8658 C.2       1 RES1    0.0000
     13 C6         2.0921    5.7854    8.2214 C.3       1 RES1    0.0000
     14 C7         0.8199    7.1339    6.5284 C.ar      1 RES1    0.0000
     15 C8         6.5280    7.6593    5.6314 C.3       1 RES1    0.0000
     16 O6         4.1814    5.3376    9.3454 O.2       1 RES1    0.0000
     17 C9         1.4673    7.3113    4.2374 C.ar      1 RES1    0.0000
     18 C10        3.4322    6.1778    8.9022 C.2       1 RES1    0.0000
     19 C11        2.5417    6.4814    4.4950 C.ar      1 RES1    0.0000
     20 C12        3.5510    3.2343    4.4478 C.2       1 RES1    0.0000
     21 C13        7.3705    7.4742    6.8672 C.3       1 RES1    0.0000
     22 C14        2.7565    2.2577    4.1008 C.2       1 RES1    0.0000
     23 C15        6.0983    9.1016    5.4889 C.3       1 RES1    0.0000
     24 C16        4.7299    7.9954    9.8978 C.3       1 RES1    0.0000
     25 C17        0.4495    5.0775    9.6709 C.3       1 RES1    0.0000
     26 C18        1.4164    3.9900    9.4207 C.3       1 RES1    0.0000
     27 C19        7.2546    7.2038    4.3973 C.3       1 RES1    0.0000
     28 C20        3.0025    9.3225    7.7435 C.3       1 RES1    0.0000
     29 H1         2.9714    3.4305    6.3785 H         1 RES1    0.0000
     30 H2         4.5179    3.2480    6.2261 H         1 RES1    0.0000
     31 H3        -0.1159    8.2026    5.0997 H         1 RES1    0.0000
     32 H4         0.2233    7.3463    7.2093 H         1 RES1    0.0000
     33 H5         1.3260    7.6440    3.3810 H         1 RES1    0.0000
     34 H6         3.1127    6.2452    3.7993 H         1 RES1    0.0000
     35 H7         4.0259    3.6693    3.7769 H         1 RES1    0.0000
     36 H8         6.8842    7.7787    7.6358 H         1 RES1    0.0000
     37 H9         8.1819    7.9809    6.7802 H         1 RES1    0.0000
     38 H10        7.5854    6.5437    6.9724 H         1 RES1    0.0000
     39 H11        2.2674    1.8039    4.7493 H         1 RES1    0.0000
     40 H12        2.6774    2.0163    3.2062 H         1 RES1    0.0000
     41 H13        5.4989    9.1844    4.7427 H         1 RES1    0.0000
     42 H14        6.8701    9.6535    5.3423 H         1 RES1    0.0000
     43 H15        5.6516    9.3831    6.2907 H         1 RES1    0.0000
     44 H16        4.3426    8.1532   10.7617 H         1 RES1    0.0000
     45 H17        5.0861    8.8176    9.5533 H         1 RES1    0.0000
     46 H18        5.4339    7.3488    9.9773 H         1 RES1    0.0000
     47 H19       -0.3986    4.8916    9.2402 H         1 RES1    0.0000
     48 H20        0.3025    5.1960   10.6217 H         1 RES1    0.0000
     49 H21        2.0865    3.9431   10.1223 H         1 RES1    0.0000
     50 H22        0.9726    3.1311    9.3470 H         1 RES1    0.0000
     51 H23        7.5486    6.2972    4.5157 H         1 RES1    0.0000
     52 H24        8.0151    7.7693    4.2465 H         1 RES1    0.0000
     53 H25        6.6637    7.2525    3.6419 H         1 RES1    0.0000
     54 H26        3.6782    9.9170    8.0723 H         1 RES1    0.0000
     55 H27        2.2250    9.8283    7.4950 H         1 RES1    0.0000
     56 H28        3.3333    8.8509    6.9765 H         1 RES1    0.0000
@<TRIPOS>BOND
     1    1    5 1
     2    2   12 2
     3    3   12 1
     4    4    7 1
     5    5   18 1
     6    6   13 1
     7    7   10 ar
     8    8   13 1
     9    9    4 1
    10   10   13 1
    11   11   14 ar
    12   12    4 1
    13   13   18 1
    14   14   10 ar
    15   15    3 1
    16   16   18 2
    17   17   11 ar
    18   19    7 ar
    19   20    9 1
    20   21   15 1
    21   22   20 2
    22   23   15 1
    23   24    5 1
    24   25    6 1
    25   26    8 1
    26   27   15 1
    27   28    1 1
    28   29    9 1
    29   30    9 1
    30   31   11 1
    31   32   14 1
    32   33   17 1
    33   34   19 1
    34   35   20 1
    35   36   21 1
    36   37   21 1
    37   38   21 1
    38   39   22 1
    39   40   22 1
    40   41   23 1
    41   42   23 1
    42   43   23 1
    43   44   24 1
    44   45   24 1
    45   46   24 1
    46   47   25 1
    47   48   25 1
    48   49   26 1
    49   50   26 1
    50   51   27 1
    51   52   27 1
    52   53   27 1
    53   54   28 1
    54   55   28 1
    55   56   28 1
    56   17   19 ar
    57   25   26 1
@<TRIPOS>SUBSTRUCTURE
     1 RES1 1

@<TRIPOS>CRYSIN
  28.2720    8.5293    8.2827  90.0000  90.0000  90.0000  33 1

