# MOL2 file generated by ConQuest
# Please check atom types

@<TRIPOS>MOLECULE
OJARIA
    58    64     2
SMALL
NO_CHARGES
****
Generated from CSD

@<TRIPOS>ATOM
      1 O1        -0.7719    2.7808    7.6218 O.3       1 RES1    0.0000
      2 O2        -3.2382    5.2587    8.5165 O.3       1 RES1    0.0000
      3 N1        -0.6734    5.1793    7.7728 N.3       1 RES1    0.0000
      4 N2         0.7162    7.9425    7.6149 N.pl3     1 RES1    0.0000
      5 C1        -0.1784    5.9382    8.8185 C.ar      1 RES1    0.0000
      6 O3        -0.9890    3.0113   10.5575 O.2       1 RES1    0.0000
      7 O4         0.7048    7.3355    6.5532 O.2       1 RES1    0.0000
      8 C2        -0.8259    3.9389    9.8001 C.2       1 RES1    0.0000
      9 C3        -0.2355    5.2518   10.0495 C.ar      1 RES1    0.0000
     10 C4        -1.2164    3.9153    8.3082 C.3       1 RES1    0.0000
     11 C5         0.3986    7.2159    8.8368 C.ar      1 RES1    0.0000
     12 O5         1.0432    9.1221    7.7133 O.2       1 RES1    0.0000
     13 C6        -1.6060    5.7225    6.7615 C.3       1 RES1    0.0000
     14 C7         0.6502    2.6338    7.5966 C.3       1 RES1    0.0000
     15 C8         0.2118    5.7951   11.2348 C.ar      1 RES1    0.0000
     16 C9         0.8159    7.7748   10.0404 C.ar      1 RES1    0.0000
     17 C10        0.7215    7.0796   11.2302 C.ar      1 RES1    0.0000
     18 C11       -2.7001    4.0075    8.0543 C.3       1 RES1    0.0000
     19 C12       -2.9196    5.0949    7.1161 C.3       1 RES1    0.0000
     20 O6         2.9410    6.2736    3.6290 O.3       2 RES2    0.0000
     21 O7         3.3923    3.7133   -0.4027 O.2       2 RES2    0.0000
     22 O8         4.0807    1.7111   -0.8420 O.2       2 RES2    0.0000
     23 O9         0.2727    3.8506    3.5146 O.3       2 RES2    0.0000
     24 N3         3.7287    2.5867   -0.0549 N.pl3     2 RES2    0.0000
     25 N4         2.6044    4.3654    2.1989 N.3       2 RES2    0.0000
     26 O10        3.1869    4.1291    5.6906 O.2       2 RES2    0.0000
     27 C13        3.7788    2.2837    1.3660 C.ar      2 RES2    0.0000
     28 C14        4.3441    1.7709    4.0523 C.ar      2 RES2    0.0000
     29 C15        3.3145    3.1809    2.3339 C.ar      2 RES2    0.0000
     30 C16        3.1160    3.9771    4.4962 C.2       2 RES2    0.0000
     31 C17        2.4284    4.9694    3.5283 C.3       2 RES2    0.0000
     32 C18        4.4511    1.1267    1.7573 C.ar      2 RES2    0.0000
     33 C19        4.7268    0.8639    3.0821 C.ar      2 RES2    0.0000
     34 C20        3.6432    2.8965    3.6702 C.ar      2 RES2    0.0000
     35 C21        0.9422    5.1057    3.7022 C.3       2 RES2    0.0000
     36 C22        1.3518    4.4488    1.4095 C.3       2 RES2    0.0000
     37 C23        0.3097    4.7978    2.4254 C.3       2 RES2    0.0000
     38 C24        4.3457    6.3834    3.4025 C.3       2 RES2    0.0000
     39 H1        -1.3306    5.4724    5.8668 H         1 RES1    0.0000
     40 H2        -1.6553    6.6893    6.8187 H         1 RES1    0.0000
     41 H3         0.8810    1.8385    7.1115 H         1 RES1    0.0000
     42 H4         0.9810    2.5681    8.4959 H         1 RES1    0.0000
     43 H5         1.0431    3.3966    7.1665 H         1 RES1    0.0000
     44 H6         0.1715    5.3058   12.0242 H         1 RES1    0.0000
     45 H7         1.1662    8.6367   10.0449 H         1 RES1    0.0000
     46 H8         1.0005    7.4747   12.0242 H         1 RES1    0.0000
     47 H9        -3.2566    3.2005    8.0268 H         1 RES1    0.0000
     48 H10       -3.6353    5.0361    6.4503 H         1 RES1    0.0000
     49 H11        4.5550    1.6248    4.9447 H         2 RES2    0.0000
     50 H12        4.7218    0.5177    1.1075 H         2 RES2    0.0000
     51 H13        5.1681    0.0814    3.3201 H         2 RES2    0.0000
     52 H14        0.5682    5.7901    4.2926 H         2 RES2    0.0000
     53 H15        1.1520    3.6006    0.9839 H         2 RES2    0.0000
     54 H16        1.4157    5.1361    0.7276 H         2 RES2    0.0000
     55 H17       -0.5050    5.2685    2.1531 H         2 RES2    0.0000
     56 H18        4.6123    7.3022    3.4848 H         2 RES2    0.0000
     57 H19        4.5527    6.0706    2.5170 H         2 RES2    0.0000
     58 H20        4.8178    5.8529    4.0477 H         2 RES2    0.0000
@<TRIPOS>BOND
     1    1   10 1
     2    2   18 1
     3    3    5 1
     4    4    7 2
     5    5    9 ar
     6    6    8 2
     7    8    9 1
     8    9   15 ar
     9   10    3 1
    10   11    4 1
    11   12    4 2
    12   13    3 1
    13   14    1 1
    14   15   17 ar
    15   16   11 ar
    16   17   16 ar
    17   18   10 1
    18   19    2 1
    19   20   31 1
    20   21   24 2
    21   22   24 2
    22   23   35 1
    23   24   27 1
    24   25   29 1
    25   26   30 2
    26   27   29 ar
    27   28   33 ar
    28   29   34 ar
    29   30   31 1
    30   31   25 1
    31   32   27 ar
    32   33   32 ar
    33   34   28 ar
    34   35   31 1
    35   36   25 1
    36   37   23 1
    37   38   20 1
    38   39   13 1
    39   40   13 1
    40   41   14 1
    41   42   14 1
    42   43   14 1
    43   44   15 1
    44   45   16 1
    45   46   17 1
    46   47   18 1
    47   48   19 1
    48   49   28 1
    49   50   32 1
    50   51   33 1
    51   52   35 1
    52   53   36 1
    53   54   36 1
    54   55   37 1
    55   56   38 1
    56   57   38 1
    57   58   38 1
    58    5   11 ar
    59    8   10 1
    60   13   19 1
    61   18   19 1
    62   30   34 1
    63   35   37 1
    64   36   37 1
@<TRIPOS>SUBSTRUCTURE
     1 RES1 1
     2 RES2 20

@<TRIPOS>CRYSIN
   9.9995    9.8055   23.1817  90.0000  99.2320  90.0000  14 1

