# MOL2 file generated by ConQuest
# Please check atom types

@<TRIPOS>MOLECULE
OJAREW
    29    32     1
SMALL
NO_CHARGES
****
Generated from CSD

@<TRIPOS>ATOM
      1 O1         7.5098    0.3372    5.4870 O.3       1 RES1    0.0000
      2 N1         6.4417    2.4287    6.0565 N.3       1 RES1    0.0000
      3 C1         5.1055    2.7961    5.9576 C.ar      1 RES1    0.0000
      4 C2         4.2668    1.6923    5.7881 C.ar      1 RES1    0.0000
      5 O2         6.0994    1.5587    8.5458 O.3       1 RES1    0.0000
      6 C3         5.0812    0.4931    5.8870 C.2       1 RES1    0.0000
      7 C4         2.9023    1.8275    5.6434 C.ar      1 RES1    0.0000
      8 C5         6.5080    0.9638    6.2252 C.3       1 RES1    0.0000
      9 O3         4.7543   -0.6664    5.7474 O.2       1 RES1    0.0000
     10 O4         0.2472    2.3333    5.2885 O.2       1 RES1    0.0000
     11 C6         4.5698    4.0844    5.9714 C.ar      1 RES1    0.0000
     12 C7         3.2134    4.2180    5.8368 C.ar      1 RES1    0.0000
     13 C8         2.3925    3.1015    5.6790 C.ar      1 RES1    0.0000
     14 C9         6.9081    0.7793    7.6615 C.3       1 RES1    0.0000
     15 N2         0.9578    3.2907    5.5670 N.pl3     1 RES1    0.0000
     16 C10        7.4002    2.0454    8.1516 C.3       1 RES1    0.0000
     17 C11        7.3102    3.0697    7.0695 C.3       1 RES1    0.0000
     18 O5         0.5025    4.4025    5.7896 O.2       1 RES1    0.0000
     19 C12        7.4446    0.5710    4.0849 C.3       1 RES1    0.0000
     20 H1         2.3503    1.0879    5.5270 H         1 RES1    0.0000
     21 H2         5.1165    4.8303    6.0688 H         1 RES1    0.0000
     22 H3         2.8331    5.0657    5.8521 H         1 RES1    0.0000
     23 H4         7.3085   -0.0620    7.9640 H         1 RES1    0.0000
     24 H5         8.1345    2.0724    8.8003 H         1 RES1    0.0000
     25 H6         6.9133    3.8920    7.3989 H         1 RES1    0.0000
     26 H7         8.1859    3.2669    6.7022 H         1 RES1    0.0000
     27 H8         8.1651    0.1097    3.6493 H         1 RES1    0.0000
     28 H9         7.5194    1.5126    3.9140 H         1 RES1    0.0000
     29 H10        6.6068    0.2497    3.7446 H         1 RES1    0.0000
@<TRIPOS>BOND
     1    1    8 1
     2    2    3 1
     3    3    4 ar
     4    4    6 1
     5    5   14 1
     6    6    8 1
     7    7    4 ar
     8    8    2 1
     9    9    6 2
    10   10   15 2
    11   11    3 ar
    12   12   11 ar
    13   13    7 ar
    14   14    8 1
    15   15   13 1
    16   16    5 1
    17   17    2 1
    18   18   15 2
    19   19    1 1
    20   20    7 1
    21   21   11 1
    22   22   12 1
    23   23   14 1
    24   24   16 1
    25   25   17 1
    26   26   17 1
    27   27   19 1
    28   28   19 1
    29   29   19 1
    30   12   13 ar
    31   14   16 1
    32   16   17 1
@<TRIPOS>SUBSTRUCTURE
     1 RES1 1

@<TRIPOS>CRYSIN
  10.1128   15.9050    7.4177  90.0000 101.3590  90.0000  14 1

