# MOL2 file generated by ConQuest
# Please check atom types

@<TRIPOS>MOLECULE
OJAXII
   100   105     1
SMALL
NO_CHARGES
****
Generated from CSD

@<TRIPOS>ATOM
      1 O1        -0.5037   -9.5499   -0.4591 O.3       1 RES1    0.0000
      2 O2        -2.5411  -10.6901   -5.0544 O.3       1 RES1    0.0000
      3 O3        -0.6189   -7.7294   -2.7147 O.3       1 RES1    0.0000
      4 O4         2.5296   -9.7497   -0.7077 O.3       1 RES1    0.0000
      5 C1        -3.8784  -10.7571   -5.1677 C.2       1 RES1    0.0000
      6 O5        -4.6389   -9.9597   -4.6794 O.2       1 RES1    0.0000
      7 O6        -0.6348   -8.6512   -5.7344 O.3       1 RES1    0.0000
      8 O7        -3.5323  -10.0832    4.9134 O.2       1 RES1    0.0000
      9 C2        -5.3722  -14.3080   -7.0686 C.ar      1 RES1    0.0000
     10 H1        -5.7114  -15.0917   -7.4348 H         1 RES1    0.0000
     11 C3        -0.5995   -9.4110   -4.5225 C.3       1 RES1    0.0000
     12 H2        -0.1727  -10.2747   -4.7027 H         1 RES1    0.0000
     13 O8        -3.4769   -8.0718    5.7025 O.2       1 RES1    0.0000
     14 O9        -7.7992  -15.0568   -6.0237 O.2       1 RES1    0.0000
     15 O10       -8.2877  -13.0029   -5.5151 O.2       1 RES1    0.0000
     16 C4        -1.9551   -9.4580    2.8149 C.ar      1 RES1    0.0000
     17 H3        -2.1085  -10.3601    2.9821 H         1 RES1    0.0000
     18 C5        -1.8498   -5.6912   -2.6943 C.ar      1 RES1    0.0000
     19 C6         0.8782   -9.6252   -2.4211 C.3       1 RES1    0.0000
     20 H4         1.3868  -10.2678   -2.9559 H         1 RES1    0.0000
     21 C7        -1.2324  -11.1159   -2.1682 C.3       1 RES1    0.0000
     22 H5        -1.6589  -11.6923   -1.5157 H         1 RES1    0.0000
     23 H6        -0.9220  -11.6766   -2.8949 H         1 RES1    0.0000
     24 C8         0.5779   -8.7631   -6.4989 C.3       1 RES1    0.0000
     25 H7         1.3144   -8.9442   -5.8958 H         1 RES1    0.0000
     26 H8         0.7533   -7.9150   -6.9349 H         1 RES1    0.0000
     27 O11       -0.4787   -5.0571    1.2018 O.2       1 RES1    0.0000
     28 N1        -1.1861   -5.3533    2.1595 N.pl3     1 RES1    0.0000
     29 O12       -1.6535   -4.5453    2.9457 O.2       1 RES1    0.0000
     30 C9         3.5295   -9.1254    0.0974 C.3       1 RES1    0.0000
     31 H9         4.1152   -8.6116   -0.4796 H         1 RES1    0.0000
     32 H10        4.0638   -9.8150    0.5174 H         1 RES1    0.0000
     33 C10       -2.6060   -3.9984   -1.1626 C.ar      1 RES1    0.0000
     34 H11       -2.4095   -3.3541   -0.5232 H         1 RES1    0.0000
     35 C11       -5.6738  -12.3018   -5.7330 C.ar      1 RES1    0.0000
     36 H12       -6.2375  -11.7480   -5.2448 H         1 RES1    0.0000
     37 C12       -6.1472  -13.4651   -6.2984 C.ar      1 RES1    0.0000
     38 C13       -0.0337  -10.4541   -1.5201 C.3       1 RES1    0.0000
     39 H13        0.5084  -11.1542   -1.1016 H         1 RES1    0.0000
     40 O13       -3.6597  -15.8288   -8.4971 O.2       1 RES1    0.0000
     41 N2        -3.1978  -14.7765   -8.0786 N.pl3     1 RES1    0.0000
     42 O14       -2.0507  -14.4003   -8.2995 O.2       1 RES1    0.0000
     43 C14       -1.0287   -7.6939    1.4474 C.ar      1 RES1    0.0000
     44 H14       -0.5829   -7.4135    0.6816 H         1 RES1    0.0000
     45 C15       -4.0595  -13.9162   -7.2619 C.ar      1 RES1    0.0000
     46 C16       -2.4045   -8.4810    3.6956 C.ar      1 RES1    0.0000
     47 C17       -2.0512   -9.6513   -4.1301 C.3       1 RES1    0.0000
     48 H15       -2.5620   -8.8276   -4.2725 H         1 RES1    0.0000
     49 C18       -3.5070  -12.7772   -6.6660 C.ar      1 RES1    0.0000
     50 H16       -2.6083  -12.5683   -6.7765 H         1 RES1    0.0000
     51 C19       -0.7396   -6.4644   -3.3672 C.3       1 RES1    0.0000
     52 H17       -0.9458   -6.5915   -4.3060 H         1 RES1    0.0000
     53 H18        0.0938   -5.9733   -3.3018 H         1 RES1    0.0000
     54 C20       -4.3322  -11.9727   -5.9103 C.ar      1 RES1    0.0000
     55 C21       -3.9160   -4.2266   -1.5245 C.ar      1 RES1    0.0000
     56 H19       -4.6006   -3.7268   -1.1452 H         1 RES1    0.0000
     57 C22       -0.6615  -11.4885   -8.8546 C.ar      1 RES1    0.0000
     58 H20       -1.4515  -11.9326   -9.0566 H         1 RES1    0.0000
     59 C23        1.9017   -8.8450   -1.6175 C.3       1 RES1    0.0000
     60 H21        2.5625   -8.4549   -2.2089 H         1 RES1    0.0000
     61 H22        1.4671   -8.1292   -1.1292 H         1 RES1    0.0000
     62 C24        0.1960   -8.6795   -3.4267 C.3       1 RES1    0.0000
     63 H23        0.9047   -8.1745   -3.8743 H         1 RES1    0.0000
     64 C25       -0.6488  -10.5046   -7.8780 C.ar      1 RES1    0.0000
     65 H24       -1.4384  -10.2834   -7.4406 H         1 RES1    0.0000
     66 C26        1.6949  -10.1772   -8.2254 C.ar      1 RES1    0.0000
     67 H25        2.4880   -9.7401   -8.0161 H         1 RES1    0.0000
     68 C27        0.5224   -9.8481   -7.5452 C.ar      1 RES1    0.0000
     69 C28       -4.2035   -5.2088   -2.4560 C.ar      1 RES1    0.0000
     70 H26       -5.0867   -5.3829   -2.6870 H         1 RES1    0.0000
     71 C29        1.6832  -11.1472   -9.2107 C.ar      1 RES1    0.0000
     72 H27        2.4691  -11.3544   -9.6612 H         1 RES1    0.0000
     73 C30       -3.1821   -5.9350   -3.0445 C.ar      1 RES1    0.0000
     74 H28       -3.3820   -6.5880   -3.6767 H         1 RES1    0.0000
     75 C31       -1.2713   -9.0487    1.6799 C.ar      1 RES1    0.0000
     76 C32       -2.1769   -7.1348    3.5096 C.ar      1 RES1    0.0000
     77 H29       -2.4859   -6.4975    4.1112 H         1 RES1    0.0000
     78 C33       -2.2770  -10.1354   -2.7147 C.3       1 RES1    0.0000
     79 H30       -3.1454  -10.5621   -2.6740 H         1 RES1    0.0000
     80 H31       -2.3055   -9.3622   -2.1290 H         1 RES1    0.0000
     81 C34        0.5118  -11.8107   -9.5333 C.ar      1 RES1    0.0000
     82 H32        0.5086  -12.4638  -10.1945 H         1 RES1    0.0000
     83 C35       -1.5832   -4.7212   -1.7453 C.ar      1 RES1    0.0000
     84 H33       -0.7042   -4.5540   -1.4954 H         1 RES1    0.0000
     85 N3        -3.1935   -8.9146    4.8582 N.pl3     1 RES1    0.0000
     86 C36       -1.4656   -6.7848    2.3804 C.ar      1 RES1    0.0000
     87 N4        -7.5227  -13.8604   -5.9423 N.pl3     1 RES1    0.0000
     88 O15       -0.8469  -11.2756    0.9635 O.2       1 RES1    0.0000
     89 C37       -0.8422  -10.0919    0.7005 C.2       1 RES1    0.0000
     90 C38        2.9925   -8.2128    1.1684 C.ar      1 RES1    0.0000
     91 C39        3.1993   -6.8458    1.0943 C.ar      1 RES1    0.0000
     92 H34        3.6336   -6.4835    0.3575 H         1 RES1    0.0000
     93 C40        2.3186   -8.7300    2.2758 C.ar      1 RES1    0.0000
     94 H35        2.1649   -9.6443    2.3339 H         1 RES1    0.0000
     95 C41        1.8812   -7.8994    3.2800 C.ar      1 RES1    0.0000
     96 H36        1.4353   -8.2598    4.0110 H         1 RES1    0.0000
     97 C42        2.0973   -6.5427    3.2146 C.ar      1 RES1    0.0000
     98 H37        1.8018   -5.9872    3.8976 H         1 RES1    0.0000
     99 C43        2.7600   -6.0116    2.1188 C.ar      1 RES1    0.0000
    100 H38        2.9104   -5.0956    2.0680 H         1 RES1    0.0000
@<TRIPOS>BOND
     1    1   38 1
     2    2    5 1
     3    3   51 1
     4    4   30 1
     5    5    6 2
     6    7   11 1
     7    8   85 2
     8    9   10 1
     9   11   12 1
    10   13   85 2
    11   14   87 2
    12   15   87 2
    13   16   17 1
    14   18   51 1
    15   19   20 1
    16   21   22 1
    17   23   21 1
    18   24    7 1
    19   25   24 1
    20   26   24 1
    21   27   28 2
    22   28   29 2
    23   30   31 1
    24   32   30 1
    25   33   34 1
    26   35   36 1
    27   37    9 ar
    28   38   19 1
    29   39   38 1
    30   40   41 2
    31   41   42 2
    32   43   44 1
    33   45    9 ar
    34   46   16 ar
    35   47    2 1
    36   48   47 1
    37   49   45 ar
    38   50   49 1
    39   51   52 1
    40   53   51 1
    41   54    5 1
    42   55   33 ar
    43   56   55 1
    44   57   58 1
    45   59    4 1
    46   60   59 1
    47   61   59 1
    48   62    3 1
    49   63   62 1
    50   64   57 ar
    51   65   64 1
    52   66   67 1
    53   68   24 1
    54   69   55 ar
    55   70   69 1
    56   71   66 ar
    57   72   71 1
    58   73   18 ar
    59   74   73 1
    60   75   16 ar
    61   76   46 ar
    62   77   76 1
    63   78   21 1
    64   79   78 1
    65   80   78 1
    66   81   57 ar
    67   82   81 1
    68   83   18 ar
    69   84   83 1
    70   85   46 1
    71   86   28 1
    72   87   37 1
    73   88   89 2
    74   89    1 1
    75   90   30 1
    76   91   90 ar
    77   92   91 1
    78   93   90 ar
    79   94   93 1
    80   95   93 ar
    81   96   95 1
    82   97   95 ar
    83   98   97 1
    84   99   91 ar
    85  100   99 1
    86   11   47 1
    87   11   62 1
    88   19   59 1
    89   19   62 1
    90   21   38 1
    91   33   83 ar
    92   35   37 ar
    93   35   54 ar
    94   41   45 1
    95   43   75 ar
    96   43   86 ar
    97   47   78 1
    98   49   54 ar
    99   64   68 ar
   100   66   68 ar
   101   69   73 ar
   102   71   81 ar
   103   75   89 1
   104   76   86 ar
   105   97   99 ar
@<TRIPOS>SUBSTRUCTURE
     1 RES1 1

@<TRIPOS>CRYSIN
   7.8734   17.4148   14.5347  90.0000  91.0130  90.0000   4 1

