# MOL2 file generated by ConQuest
# Please check atom types

@<TRIPOS>MOLECULE
OJELUM
    40    41     1
SMALL
NO_CHARGES
****
Generated from CSD

@<TRIPOS>ATOM
      1 N1        -0.1251    8.2975    3.1995 N.2       1 RES1    0.0000
      2 N2        -0.3250    5.5731    2.5474 N.pl3     1 RES1    0.0000
      3 O1         0.6674    9.3891    3.6365 O.3       1 RES1    0.0000
      4 O2        -1.0292   10.9769    4.0121 O.3       1 RES1    0.0000
      5 O3        -1.5778    6.1728    2.7670 O.3       1 RES1    0.0000
      6 O4         0.2342    5.7784    1.4991 O.2       1 RES1    0.0000
      7 O5         0.0175    4.8748    3.4635 O.2       1 RES1    0.0000
      8 O6        -0.9591    9.4911   -4.1938 O.3       1 RES1    0.0000
      9 C1        -0.9628    8.4901    2.2554 C.2       1 RES1    0.0000
     10 C2         0.1536   10.7031    3.3286 C.3       1 RES1    0.0000
     11 H1         0.8400   11.3886    3.5722 H         1 RES1    0.0000
     12 C3        -0.1370   10.7982    1.8555 C.3       1 RES1    0.0000
     13 H2         0.6902   10.6269    1.3389 H         1 RES1    0.0000
     14 H3        -0.4561   11.7096    1.6355 H         1 RES1    0.0000
     15 C4        -1.2101    9.7666    1.4746 C.3       1 RES1    0.0000
     16 H4        -2.1037   10.1291    1.7383 H         1 RES1    0.0000
     17 C5        -0.8702   11.0762    5.4435 C.3       1 RES1    0.0000
     18 H5        -0.2483   11.8134    5.6662 H         1 RES1    0.0000
     19 H6        -0.4976   10.2322    5.8033 H         1 RES1    0.0000
     20 C6        -2.2228   11.3420    6.0464 C.3       1 RES1    0.0000
     21 H7        -2.1378   11.4124    7.0204 H         1 RES1    0.0000
     22 H8        -2.5813   12.1807    5.6875 H         1 RES1    0.0000
     23 H9        -2.8298   10.6053    5.8246 H         1 RES1    0.0000
     24 C7        -1.8233    7.2986    1.9046 C.3       1 RES1    0.0000
     25 H10       -2.7773    7.5565    1.9711 H         1 RES1    0.0000
     26 H11       -1.6453    7.0337    0.9678 H         1 RES1    0.0000
     27 C8        -1.2063    9.5449   -0.0311 C.ar      1 RES1    0.0000
     28 C9        -2.1462   10.1813   -0.8490 C.ar      1 RES1    0.0000
     29 H12       -2.8663   10.6534   -0.4490 H         1 RES1    0.0000
     30 C10       -2.0498   10.1378   -2.2276 C.ar      1 RES1    0.0000
     31 H13       -2.6930   10.5856   -2.7652 H         1 RES1    0.0000
     32 C11       -1.0021    9.4331   -2.8283 C.ar      1 RES1    0.0000
     33 C12       -0.0820    8.7496   -2.0355 C.ar      1 RES1    0.0000
     34 H14        0.6129    8.2412   -2.4378 H         1 RES1    0.0000
     35 C13       -0.1902    8.8182   -0.6513 C.ar      1 RES1    0.0000
     36 H15        0.4442    8.3589   -0.1146 H         1 RES1    0.0000
     37 C14        0.1366    8.8269   -4.8344 C.3       1 RES1    0.0000
     38 H16        0.0620    8.9355   -5.8056 H         1 RES1    0.0000
     39 H17        0.9805    9.2176   -4.5259 H         1 RES1    0.0000
     40 H18        0.1164    7.8727   -4.6098 H         1 RES1    0.0000
@<TRIPOS>BOND
     1    1    3 1
     2    2    5 1
     3    3   10 1
     4    4   10 1
     5    5   24 1
     6    6    2 2
     7    7    2 2
     8    8   32 1
     9    9    1 2
    10   10   11 1
    11   12   10 1
    12   13   12 1
    13   14   12 1
    14   15    9 1
    15   16   15 1
    16   17    4 1
    17   18   17 1
    18   19   17 1
    19   20   17 1
    20   21   20 1
    21   22   20 1
    22   23   20 1
    23   24    9 1
    24   25   24 1
    25   26   24 1
    26   27   15 1
    27   28   27 ar
    28   29   28 1
    29   30   28 ar
    30   31   30 1
    31   32   30 ar
    32   33   32 ar
    33   34   33 1
    34   35   27 ar
    35   36   35 1
    36   37    8 1
    37   38   37 1
    38   39   37 1
    39   40   37 1
    40   12   15 1
    41   33   35 ar
@<TRIPOS>SUBSTRUCTURE
     1 RES1 1

@<TRIPOS>CRYSIN
   5.1957   12.0390   12.8927 112.8260  90.7430 102.1950   2 1

