# MOL2 file generated by ConQuest
# Please check atom types

@<TRIPOS>MOLECULE
OJEYUZ
    31    33     1
SMALL
NO_CHARGES
****
Generated from CSD

@<TRIPOS>ATOM
      1 O1         0.2982    7.4055    7.7210 O.2       1 RES1    0.0000
      2 O2         2.3806    2.9650    4.9923 O.3       1 RES1    0.0000
      3 O3         8.6995    4.6863    1.0011 O.3       1 RES1    0.0000
      4 N1         3.5440    2.7967    4.2104 N.2       1 RES1    0.0000
      5 C1         0.5614    6.4315    7.0789 C.2       1 RES1    0.0000
      6 C2         1.3271    5.1493    7.3821 C.3       1 RES1    0.0000
      7 H1         0.9332    4.6099    8.1128 H         1 RES1    0.0000
      8 H2         2.2980    5.2847    7.5220 H         1 RES1    0.0000
      9 C3         0.2706    6.0116    5.6423 C.3       1 RES1    0.0000
     10 H3         0.7434    6.5539    4.9615 H         1 RES1    0.0000
     11 H4        -0.6946    5.9391    5.4338 H         1 RES1    0.0000
     12 C4         0.9564    4.6410    5.9470 C.3       1 RES1    0.0000
     13 H5         0.2886    3.8971    5.9821 H         1 RES1    0.0000
     14 C5         2.1086    4.2931    5.0949 C.2       1 RES1    0.0000
     15 C6         3.0385    4.9997    4.4078 C.2       1 RES1    0.0000
     16 H6         3.0893    5.9425    4.2994 H         1 RES1    0.0000
     17 C7         3.9209    4.0161    3.8858 C.2       1 RES1    0.0000
     18 C8         5.1438    4.2166    3.0973 C.ar      1 RES1    0.0000
     19 C9         6.1422    3.2325    3.0894 C.ar      1 RES1    0.0000
     20 H7         6.0153    2.4284    3.5795 H         1 RES1    0.0000
     21 C10        7.3062    3.4228    2.3764 C.ar      1 RES1    0.0000
     22 H8         7.9740    2.7480    2.3737 H         1 RES1    0.0000
     23 C11        7.5080    4.6025    1.6595 C.ar      1 RES1    0.0000
     24 C12        6.5260    5.5901    1.6506 C.ar      1 RES1    0.0000
     25 H9         6.6547    6.3912    1.1572 H         1 RES1    0.0000
     26 C13        5.3506    5.3889    2.3767 C.ar      1 RES1    0.0000
     27 H10        4.6815    6.0632    2.3782 H         1 RES1    0.0000
     28 C14        9.0077    5.9164    0.3498 C.3       1 RES1    0.0000
     29 H11        8.3486    6.0870   -0.3554 H         1 RES1    0.0000
     30 H12        9.9023    5.8615   -0.0456 H         1 RES1    0.0000
     31 H13        8.9828    6.6468    1.0023 H         1 RES1    0.0000
@<TRIPOS>BOND
     1    1    5 2
     2    2    4 1
     3    3   23 1
     4    4   17 2
     5    5    6 1
     6    6    7 1
     7    8    6 1
     8    9    5 1
     9   10    9 1
    10   11    9 1
    11   12    6 1
    12   13   12 1
    13   14    2 1
    14   15   14 2
    15   16   15 1
    16   17   15 1
    17   18   17 1
    18   19   18 ar
    19   20   19 1
    20   21   19 ar
    21   22   21 1
    22   23   21 ar
    23   24   23 ar
    24   25   24 1
    25   26   18 ar
    26   27   26 1
    27   28    3 1
    28   29   28 1
    29   30   28 1
    30   31   28 1
    31    9   12 1
    32   12   14 1
    33   24   26 ar
@<TRIPOS>SUBSTRUCTURE
     1 RES1 1

@<TRIPOS>CRYSIN
   6.7640    5.6660   15.2630  90.0000  95.7290  90.0000   4 1

