# MOL2 file generated by ConQuest
# Please check atom types

@<TRIPOS>MOLECULE
OJIJOG
    34    35     1
SMALL
NO_CHARGES
****
Generated from CSD

@<TRIPOS>ATOM
      1 O1         2.2448    0.8102    6.3519 O.2       1 RES1    0.0000
      2 O2         3.0778    0.7992    8.3351 O.2       1 RES1    0.0000
      3 O3         7.2691    2.6401    9.3874 O.2       1 RES1    0.0000
      4 O4         8.4910    3.5661    7.8645 O.2       1 RES1    0.0000
      5 N1         3.1593    1.0677    7.1456 N.pl3     1 RES1    0.0000
      6 N2         7.4854    2.9568    8.2249 N.pl3     1 RES1    0.0000
      7 N3         3.6280    1.7548    4.3284 N.pl3     1 RES1    0.0000
      8 H1         2.8728    1.4006    4.5369 H         1 RES1    0.0000
      9 N4         3.9209    2.0718    3.0113 N.2       1 RES1    0.0000
     10 C1         4.5572    2.0150    5.2802 C.ar      1 RES1    0.0000
     11 C2         4.3666    1.7057    6.6531 C.ar      1 RES1    0.0000
     12 C3         5.3271    2.0073    7.6060 C.ar      1 RES1    0.0000
     13 H2         5.1828    1.8006    8.5009 H         1 RES1    0.0000
     14 C4         6.4894    2.6134    7.2146 C.ar      1 RES1    0.0000
     15 C5         6.7281    2.9159    5.8712 C.ar      1 RES1    0.0000
     16 H3         7.5282    3.3183    5.6211 H         1 RES1    0.0000
     17 C6         5.7937    2.6237    4.9317 C.ar      1 RES1    0.0000
     18 H4         5.9658    2.8257    4.0407 H         1 RES1    0.0000
     19 C7         3.0495    1.7685    2.1293 C.2       1 RES1    0.0000
     20 C8         3.4333    2.0644    0.7013 C.3       1 RES1    0.0000
     21 H5         3.7054    1.2407    0.2684 H         1 RES1    0.0000
     22 H6         4.1923    2.6680    0.6949 H         1 RES1    0.0000
     23 C9         2.2962    2.6889   -0.0868 C.3       1 RES1    0.0000
     24 H7         2.1298    3.5863    0.2417 H         1 RES1    0.0000
     25 H8         2.5483    2.7534   -1.0215 H         1 RES1    0.0000
     26 C10        1.0334    1.8670    0.0368 C.3       1 RES1    0.0000
     27 H9         1.1860    0.9788   -0.3219 H         1 RES1    0.0000
     28 H10        0.3223    2.2821   -0.4753 H         1 RES1    0.0000
     29 C11        0.6232    1.7665    1.4933 C.3       1 RES1    0.0000
     30 H11       -0.1912    1.2441    1.5619 H         1 RES1    0.0000
     31 H12        0.4379    2.6553    1.8361 H         1 RES1    0.0000
     32 C12        1.7126    1.1156    2.3404 C.3       1 RES1    0.0000
     33 H13        1.4701    1.1793    3.2772 H         1 RES1    0.0000
     34 H14        1.7769    0.1749    2.1116 H         1 RES1    0.0000
@<TRIPOS>BOND
     1    1    5 2
     2    2    5 2
     3    3    6 2
     4    4    6 2
     5    5   11 1
     6    6   14 1
     7    7    8 1
     8    9    7 1
     9   10    7 1
    10   11   10 ar
    11   12   11 ar
    12   13   12 1
    13   14   12 ar
    14   15   14 ar
    15   16   15 1
    16   17   10 ar
    17   18   17 1
    18   19    9 2
    19   20   19 1
    20   21   20 1
    21   22   20 1
    22   23   20 1
    23   24   23 1
    24   25   23 1
    25   26   23 1
    26   27   26 1
    27   28   26 1
    28   29   26 1
    29   30   29 1
    30   31   29 1
    31   32   19 1
    32   33   32 1
    33   34   32 1
    34   15   17 ar
    35   29   32 1
@<TRIPOS>SUBSTRUCTURE
     1 RES1 1

@<TRIPOS>CRYSIN
   6.9700    8.0438   11.8063  87.9100  79.8620  81.8790   2 1

