# MOL2 file generated by ConQuest
# Please check atom types

@<TRIPOS>MOLECULE
OJIRUV
    37    39     1
SMALL
NO_CHARGES
****
Generated from CSD

@<TRIPOS>ATOM
      1 N1        -3.4649   12.5697    4.8874 N.pl3     1 RES1    0.0000
      2 O1        -0.0263    9.2752    0.6137 O.3       1 RES1    0.0000
      3 O2         1.6144    8.7515   -0.7918 O.2       1 RES1    0.0000
      4 O3        -3.2689   13.7534    4.6911 O.2       1 RES1    0.0000
      5 O4        -4.2923   12.1595    5.6862 O.2       1 RES1    0.0000
      6 C1         1.0447    8.5289    0.2373 C.2       1 RES1    0.0000
      7 C2         1.3077    7.4733    1.2540 C.3       1 RES1    0.0000
      8 C3         0.5457    7.9415    2.5066 C.3       1 RES1    0.0000
      9 C4        -0.6195    8.6952    1.8055 C.3       1 RES1    0.0000
     10 C5        -1.3182    9.7515    2.6100 C.ar      1 RES1    0.0000
     11 C6        -2.2514    9.3358    3.5534 C.ar      1 RES1    0.0000
     12 C7        -2.9383   10.2502    4.3131 C.ar      1 RES1    0.0000
     13 C8        -2.6889   11.5902    4.1178 C.ar      1 RES1    0.0000
     14 C9        -1.7734   12.0344    3.1975 C.ar      1 RES1    0.0000
     15 C10       -1.0833   11.1049    2.4470 C.ar      1 RES1    0.0000
     16 C11        0.0240    6.7902    3.3620 C.ar      1 RES1    0.0000
     17 C12       -0.8091    5.8194    2.8133 C.ar      1 RES1    0.0000
     18 C13       -1.3160    4.7881    3.5770 C.ar      1 RES1    0.0000
     19 C14       -0.9902    4.6953    4.9033 C.ar      1 RES1    0.0000
     20 C15       -0.1652    5.6219    5.4535 C.ar      1 RES1    0.0000
     21 C16        0.3401    6.6664    4.7018 C.ar      1 RES1    0.0000
     22 C17        1.4200    8.9258    3.2702 C.3       1 RES1    0.0000
     23 H1        -1.2661    8.0528    1.4993 H         1 RES1    0.0000
     24 H2        -1.8778    4.1474    3.1754 H         1 RES1    0.0000
     25 H3         2.2718    8.5012    3.5656 H         1 RES1    0.0000
     26 H4        -1.6418   12.9644    3.0740 H         1 RES1    0.0000
     27 H5        -0.4813   11.4037    1.8164 H         1 RES1    0.0000
     28 H6        -1.0392    5.8707    1.8824 H         1 RES1    0.0000
     29 H7         0.9534    9.3057    4.0064 H         1 RES1    0.0000
     30 H8        -3.5808    9.9928    4.8928 H         1 RES1    0.0000
     31 H9         1.7183    9.6700    2.6839 H         1 RES1    0.0000
     32 H10        0.8813    7.3565    5.1250 H         1 RES1    0.0000
     33 H11       -2.4234    8.3686    3.6622 H         1 RES1    0.0000
     34 H12        0.9427    6.6004    0.9076 H         1 RES1    0.0000
     35 H13        2.2587    7.3750    1.3850 H         1 RES1    0.0000
     36 H14        0.0448    5.6275    6.3697 H         1 RES1    0.0000
     37 H15       -1.3486    3.9676    5.4114 H         1 RES1    0.0000
@<TRIPOS>BOND
     1    1    4 2
     2    2    6 1
     3    3    6 2
     4    5    1 2
     5    6    7 1
     6    7    8 1
     7    8    9 1
     8    9    2 1
     9   10    9 1
    10   11   10 ar
    11   12   11 ar
    12   13    1 1
    13   14   13 ar
    14   15   10 ar
    15   16    8 1
    16   17   16 ar
    17   18   17 ar
    18   19   18 ar
    19   20   19 ar
    20   21   16 ar
    21   22    8 1
    22   23    9 1
    23   24   18 1
    24   25   22 1
    25   26   14 1
    26   27   15 1
    27   28   17 1
    28   29   22 1
    29   30   12 1
    30   31   22 1
    31   32   21 1
    32   33   11 1
    33   34    7 1
    34   35    7 1
    35   36   20 1
    36   37   19 1
    37   12   13 ar
    38   14   15 ar
    39   20   21 ar
@<TRIPOS>SUBSTRUCTURE
     1 RES1 1

@<TRIPOS>CRYSIN
  10.6492   11.5270   12.4995  90.0000 109.4390  90.0000 231 1

