# MOL2 file generated by ConQuest
# Please check atom types

@<TRIPOS>MOLECULE
OJIYIP
   118   105     3
SMALL
NO_CHARGES
****
Generated from CSD

@<TRIPOS>ATOM
      1 O1         1.9608    8.9561   -7.1533 O.3       1 RES1    0.0000
      2 N1         2.7283    9.1454   -6.0255 N.2       1 RES1    0.0000
      3 C1         0.6685    8.3604   -6.7848 C.3       1 RES1    0.0000
      4 H1        -0.0692    8.9746   -6.9852 H         1 RES1    0.0000
      5 C2         0.7803    8.1136   -5.2683 C.3       1 RES1    0.0000
      6 H2         0.0777    8.5849   -4.7742 H         1 RES1    0.0000
      7 C3         0.6845    6.6252   -5.0779 C.3       1 RES1    0.0000
      8 H3        -0.2108    6.3728   -4.8026 H         1 RES1    0.0000
      9 H4         1.3147    6.3246   -4.4057 H         1 RES1    0.0000
     10 C4         0.4375    7.0223   -7.4226 C.3       1 RES1    0.0000
     11 H5         0.8803    6.9722   -8.2830 H         1 RES1    0.0000
     12 H6        -0.5110    6.8627   -7.5481 H         1 RES1    0.0000
     13 C5         2.1386    8.7297   -5.0233 C.2       1 RES1    0.0000
     14 N2         2.4867    5.9348   -6.5600 N.am      1 RES1    0.0000
     15 H7         2.9689    6.1724   -5.8899 H         1 RES1    0.0000
     16 C6         3.0828    5.4987   -7.6837 C.2       1 RES1    0.0000
     17 O2         4.4166    5.5043   -7.5015 O.3       1 RES1    0.0000
     18 O3         2.4973    5.1369   -8.6758 O.2       1 RES1    0.0000
     19 C7         5.3140    5.1777   -8.6232 C.3       1 RES1    0.0000
     20 C8         5.0990    6.0443   -9.8137 C.3       1 RES1    0.0000
     21 H8         4.2505    5.8383  -10.2106 H         1 RES1    0.0000
     22 H9         5.7983    5.8922  -10.4515 H         1 RES1    0.0000
     23 H10        5.1085    6.9667   -9.5444 H         1 RES1    0.0000
     24 C9         6.6936    5.4839   -7.9631 C.3       1 RES1    0.0000
     25 H11        6.7585    6.4248   -7.7789 H         1 RES1    0.0000
     26 H12        7.3993    5.2241   -8.5604 H         1 RES1    0.0000
     27 H13        6.7713    4.9921   -7.1411 H         1 RES1    0.0000
     28 C10        5.1618    3.7524   -8.9512 C.3       1 RES1    0.0000
     29 H14        4.3102    3.6095   -9.3703 H         1 RES1    0.0000
     30 H15        5.2129    3.2309   -8.1454 H         1 RES1    0.0000
     31 H16        5.8622    3.4833   -9.5505 H         1 RES1    0.0000
     32 C11        2.8188    8.8559   -3.7093 C.2       1 RES1    0.0000
     33 C12        2.6730    8.3177   -1.3788 C.3       1 RES1    0.0000
     34 H17        2.4718    7.4510   -0.9901 H         1 RES1    0.0000
     35 H18        3.6363    8.3994   -1.4537 H         1 RES1    0.0000
     36 O4         3.9003    9.3217   -3.5189 O.2       1 RES1    0.0000
     37 O5         2.0555    8.4105   -2.7333 O.3       1 RES1    0.0000
     38 C13        1.0262    6.0128   -6.4608 C.3       1 RES1    0.0000
     39 C14        0.4641    4.5801   -6.5378 C.2       1 RES1    0.0000
     40 O6         1.0964    3.6207   -6.1470 O.2       1 RES1    0.0000
     41 O7        -0.7473    4.5003   -6.9548 O.3       1 RES1    0.0000
     42 C15       -1.3455    3.0992   -6.7969 C.3       1 RES1    0.0000
     43 H19       -1.9864    2.9377   -7.5056 H         1 RES1    0.0000
     44 H20       -0.6419    2.4367   -6.8698 Du        3 SUP3    0.0000
     45 C16       -1.9800    2.9711   -5.5659 C.3       1 RES1    0.0000
     46 H21       -2.3877    2.1045   -5.5072 H         1 RES1    0.0000
     47 H22       -2.6474    3.6504   -5.4768 H         1 RES1    0.0000
     48 H23       -1.3285    3.0658   -4.8633 H         1 RES1    0.0000
     49 C17        0.1810    2.4311   -6.0194 Du        3 SUP3    0.0000
     50 H24        0.2778    1.9690   -5.1731 Du        3 SUP3    0.0000
     51 H25       -0.7505    2.6538   -6.1774 Du        3 SUP3    0.0000
     52 C18        0.7558    1.7463   -7.0784 Du        3 SUP3    0.0000
     53 H26        0.3641    0.8722   -7.1472 Du        3 SUP3    0.0000
     54 H27        1.7021    1.6609   -6.9285 Du        3 SUP3    0.0000
     55 H28        0.6057    2.2288   -7.8943 Du        3 SUP3    0.0000
     56 C19        2.2046    9.2753   -0.5953 C.3       1 RES1    0.0000
     57 H29        2.6229    9.2178    0.2673 H         1 RES1    0.0000
     58 H30        1.2550    9.1732   -0.4981 H         1 RES1    0.0000
     59 H31        2.3962   10.1308   -0.9881 H         1 RES1    0.0000
     60 N3        -2.6272    5.8495    3.4643 N.am      2 RES2    0.0000
     61 H32       -3.0881    6.2058    4.0960 H         2 RES2    0.0000
     62 C20       -3.2701    5.4115    2.3750 C.2       2 RES2    0.0000
     63 O8        -4.5901    5.6045    2.5289 O.3       2 RES2    0.0000
     64 O9        -2.7326    4.9420    1.3910 O.2       2 RES2    0.0000
     65 C21       -5.5514    5.2612    1.4416 C.3       2 RES2    0.0000
     66 C22       -5.5407    3.7803    1.2229 C.3       2 RES2    0.0000
     67 H33       -4.6966    3.5186    0.8463 H         2 RES2    0.0000
     68 H34       -6.2476    3.5409    0.6196 H         2 RES2    0.0000
     69 H35       -5.6706    3.3330    2.0611 H         2 RES2    0.0000
     70 C23       -5.1916    6.0202    0.1822 C.3       2 RES2    0.0000
     71 H36       -4.3655    5.6806   -0.1721 H         2 RES2    0.0000
     72 H37       -5.0926    6.9518    0.3867 H         2 RES2    0.0000
     73 H38       -5.8877    5.9070   -0.4697 H         2 RES2    0.0000
     74 C24       -6.8533    5.7511    2.0126 C.3       2 RES2    0.0000
     75 H39       -7.0619    5.2538    2.8062 H         2 RES2    0.0000
     76 H40       -7.5516    5.6305    1.3667 H         2 RES2    0.0000
     77 H41       -6.7755    6.6827    2.2312 H         2 RES2    0.0000
     78 O10       -2.1066    8.5645    4.7965 O.3       2 RES2    0.0000
     79 N4        -2.6421    9.0099    3.5979 N.2       2 RES2    0.0000
     80 C25       -0.5567    8.0300    3.0613 C.3       2 RES2    0.0000
     81 H42        0.2384    8.5552    2.8346 H         2 RES2    0.0000
     82 C26       -0.7899    7.9762    4.5495 C.3       2 RES2    0.0000
     83 H43       -0.0862    8.4513    5.0395 H         2 RES2    0.0000
     84 C27       -0.8282    6.4897    4.9200 C.3       2 RES2    0.0000
     85 H44        0.0351    6.2002    5.2541 H         2 RES2    0.0000
     86 H45       -1.4978    6.3264    5.6023 H         2 RES2    0.0000
     87 C28       -0.4450    6.5807    2.5774 C.3       2 RES2    0.0000
     88 H46       -0.8601    6.4767    1.7068 H         2 RES2    0.0000
     89 H47        0.4854    6.3097    2.5147 H         2 RES2    0.0000
     90 C29       -1.8288    8.7297    2.6524 C.2       2 RES2    0.0000
     91 C30       -1.1805    5.7511    3.6303 C.3       2 RES2    0.0000
     92 C31       -0.7845    4.2628    3.7093 C.2       2 RES2    0.0000
     93 O11       -1.5361    3.3683    3.8975 O.2       2 RES2    0.0000
     94 O12        0.5046    4.1125    3.5878 O.3       2 RES2    0.0000
     95 C32        1.1284    2.7911    3.2213 C.3       2 RES2    0.0000
     96 H48        0.5003    2.1323    2.8771 H         2 RES2    0.0000
     97 H49        1.9182    2.8579    2.6665 H         2 RES2    0.0000
     98 C33        1.3732    2.6909    4.5799 C.3       2 RES2    0.0000
     99 H50        1.8192    1.8614    4.7641 H         2 RES2    0.0000
    100 H51        0.5482    2.7299    5.0638 H         2 RES2    0.0000
    101 H52        1.9395    3.4221    4.8552 H         2 RES2    0.0000
    102 C34        0.9474    2.7225    4.0595 Du        3 SUP3    0.0000
    103 H53        0.6887    2.6260    4.9889 Du        3 SUP3    0.0000
    104 H54        0.4482    2.0618    3.5513 Du        3 SUP3    0.0000
    105 C35        2.3004    2.4255    3.9502 Du        3 SUP3    0.0000
    106 H55        2.4590    1.5347    4.2741 Du        3 SUP3    0.0000
    107 H56        2.8092    3.0509    4.4685 Du        3 SUP3    0.0000
    108 H57        2.5665    2.4812    3.0290 Du        3 SUP3    0.0000
    109 C36       -2.2035    9.0674    1.2958 C.2       2 RES2    0.0000
    110 O13       -1.3711    8.8280    0.4049 O.2       2 RES2    0.0000
    111 O14       -3.2850    9.6464    1.0913 O.3       2 RES2    0.0000
    112 C37       -3.6087    9.8339   -0.5932 C.3       2 RES2    0.0000
    113 H58       -4.2761    9.1918   -0.8787 H         2 RES2    0.0000
    114 H59       -3.9461   10.7265   -0.7714 H         2 RES2    0.0000
    115 C38       -2.4058    9.6316   -1.2776 C.3       2 RES2    0.0000
    116 H60       -2.5495    9.7708   -2.2170 H         2 RES2    0.0000
    117 H61       -2.1130    8.7241   -1.1338 H         2 RES2    0.0000
    118 H62       -1.7458   10.2384   -0.9557 H         2 RES2    0.0000
@<TRIPOS>BOND
     1    1    2 1
     2    2   13 2
     3    3    1 1
     4    4    3 1
     5    5    3 1
     6    6    5 1
     7    7    5 1
     8    8    7 1
     9    9    7 1
    10   10    3 1
    11   11   10 1
    12   12   10 1
    13   13    5 1
    14   14   15 1
    15   16   14 1
    16   17   16 1
    17   18   16 2
    18   19   17 1
    19   20   19 1
    20   21   20 1
    21   22   20 1
    22   23   20 1
    23   24   19 1
    24   25   24 1
    25   26   24 1
    26   27   24 1
    27   28   19 1
    28   29   28 1
    29   30   28 1
    30   31   28 1
    31   32   13 1
    32   33   34 1
    33   35   33 1
    34   36   32 2
    35   37   32 1
    36   38    7 1
    37   39   38 1
    38   40   39 2
    39   41   39 1
    40   42   41 1
    41   43   42 1
    42   45   42 1
    43   46   45 1
    44   47   45 1
    45   48   45 1
    46   56   33 1
    47   57   56 1
    48   58   56 1
    49   59   56 1
    50   60   61 1
    51   62   60 1
    52   63   62 1
    53   64   62 2
    54   65   63 1
    55   66   65 1
    56   67   66 1
    57   68   66 1
    58   69   66 1
    59   70   65 1
    60   71   70 1
    61   72   70 1
    62   73   70 1
    63   74   65 1
    64   75   74 1
    65   76   74 1
    66   77   74 1
    67   78   79 1
    68   79   90 2
    69   80   81 1
    70   82   78 1
    71   83   82 1
    72   84   82 1
    73   85   84 1
    74   86   84 1
    75   87   80 1
    76   88   87 1
    77   89   87 1
    78   90   80 1
    79   91   60 1
    80   92   91 1
    81   93   92 2
    82   94   92 1
    83   95   94 1
    84   96   95 1
    85   97   95 1
    86   98   95 1
    87   99   98 1
    88  100   98 1
    89  101   98 1
    90  109   90 1
    91  110  109 2
    92  111  109 1
    93  112  111 1
    94  113  112 1
    95  114  112 1
    96  115  112 1
    97  116  115 1
    98  117  115 1
    99  118  115 1
   100   10   38 1
   101   14   38 1
   102   33   37 1
   103   80   82 1
   104   84   91 1
   105   87   91 1
@<TRIPOS>SUBSTRUCTURE
     1 RES1 1
     2 RES2 60
     3 SUP3 44

@<TRIPOS>CRYSIN
  10.6450   18.5580   20.2470  90.0000  90.0000  90.0000  19 1

