# MOL2 file generated by ConQuest
# Please check atom types

@<TRIPOS>MOLECULE
OJIYIP01
   108    93    12
SMALL
NO_CHARGES
****
Generated from CSD

@<TRIPOS>ATOM
      1 O1         3.2173    9.6710   15.1880 O.3       1 RES1    0.0000
      2 O2         3.6409    9.3894   19.7057 O.co2     1 RES1    0.0000
      3 O3         1.9369    8.6293   18.8524 O.co2     1 RES1    0.0000
      4 O4         2.5365   13.2834   18.5972 O.2       1 RES1    0.0000
      5 O5         0.6934   12.5811   17.4309 O.3       1 RES1    0.0000
      6 O6         3.8021   14.8576   16.1470 O.2       1 RES1    0.0000
      7 O7         5.8581   14.1355   16.5557 O.3       1 RES1    0.0000
      8 N1         2.6145    9.2359   16.3603 N.2       1 RES1    0.0000
      9 N2         2.6830   12.3771   16.5178 N.2       1 RES1    0.0000
     10 H1         2.2435   12.0486   15.8539 H         1 RES1    0.0000
     11 C1         4.5240   10.2505   15.4791 C.3       1 RES1    0.0000
     12 H2         5.2405    9.7631   15.0225 H         1 RES1    0.0000
     13 C2         4.5556   11.7363   15.1382 C.3       1 RES1    0.0000
     14 H3         5.4481   12.0071   14.8710 H         1 RES1    0.0000
     15 H4         3.9402   11.9330   14.4145 H         1 RES1    0.0000
     16 C3         4.1341   12.4548   16.4082 C.3       1 RES1    0.0000
     17 C4         4.8148   11.6315   17.4828 C.3       1 RES1    0.0000
     18 H5         5.7443   11.8897   17.5804 H         1 RES1    0.0000
     19 H6         4.3680   11.7417   18.3381 H         1 RES1    0.0000
     20 C5         4.6989   10.2036   16.9903 C.3       1 RES1    0.0000
     21 H7         5.4787    9.6692   17.2475 H         1 RES1    0.0000
     22 C6         3.4343    9.5175   17.3233 C.2       1 RES1    0.0000
     23 C7         3.0982    9.2684   18.7348 C.2       1 RES1    0.0000
     24 C8         1.9854   12.7942   17.6044 C.2       1 RES1    0.0000
     25 C9        -0.2687   12.9079   18.5035 C.3       1 RES1    0.0000
     26 C10       -1.5681   12.4295   17.9612 C.3       1 RES1    0.0000
     27 H8        -1.7198   12.8230   17.1000 H         1 RES1    0.0000
     28 H9        -2.2762   12.6822   18.5594 H         1 RES1    0.0000
     29 H10       -1.5470   11.4727   17.8775 H         1 RES1    0.0000
     30 C11        0.0896   12.1497   19.8014 C.3       1 RES1    0.0000
     31 H11       -0.5996   12.2923   20.4554 H         1 RES1    0.0000
     32 H12        0.9252   12.4764   20.1424 H         1 RES1    0.0000
     33 H13        0.1654   11.2127   19.6140 H         1 RES1    0.0000
     34 C12       -0.2750   14.3882   18.7268 C.3       1 RES1    0.0000
     35 H14       -0.3414   14.8396   17.8815 H         1 RES1    0.0000
     36 H15        0.5385   14.6482   19.1654 H         1 RES1    0.0000
     37 H16       -1.0253   14.6265   19.2771 H         1 RES1    0.0000
     38 C13        4.5377   13.9766   16.3344 C.2       1 RES1    0.0000
     39 C14        6.3133   15.5418   16.3782 C.3       1 RES1    0.0000
     40 H17        5.6884   16.0094   15.8021 H         1 RES1    0.0000
     41 H18        6.3165   15.9877   17.2395 H         1 RES1    0.0000
     42 C15        7.3766   15.5960   15.9137 C.3       1 RES1    0.0000
     43 H19        7.4219   15.0219   15.1461 H         1 RES1    0.0000
     44 H20        8.0247   15.3126   16.5637 H         1 RES1    0.0000
     45 H21        7.5642   16.5004   15.6505 H         1 RES1    0.0000
     46 C16        6.6337    5.9846    3.1700 C.2       2 RES2    0.0000
     47 H22        6.0351    6.7247    2.9786 H         2 RES2    0.0000
     48 H23        7.3840    6.0387    2.5599 H         2 RES2    0.0000
     49 C17        4.9571    6.8529    4.0572 Du       12 SUP12   0.0000
     50 H24        4.8475    7.3115    4.9025 Du       12 SUP12   0.0000
     51 C18        7.1290    6.0929    4.5835 Du       12 SUP12   0.0000
     52 H25        7.5094    5.2552    4.8547 H         3 RES3    0.0000
     53 H26        6.3966    6.3149    5.1637 H         4 RES4    0.0000
     54 H27        7.7981    6.7807    4.6453 H         5 RES5    0.0000
     55 C19        4.3733    7.6563    2.8450 C.2       6 RES6    0.0000
     56 O8         3.2562    0.3105    2.8929 Du       12 SUP12   0.0000
     57 O9         1.4890   -0.1607    6.6051 O.2       2 RES2    0.0000
     58 O10        3.2594    0.9406    7.3388 O.3       2 RES2    0.0000
     59 O11        2.6261    4.1594    1.4215 O.2       2 RES2    0.0000
     60 O12        0.7461    3.6684    2.6397 O.3       2 RES2    0.0000
     61 O13        5.9339    4.7317    2.9686 O.3       2 RES2    0.0000
     62 O14        4.1193    5.6380    3.9236 O.2       2 RES2    0.0000
     63 N3         2.5112    0.1083    4.0412 N.2       2 RES2    0.0000
     64 N4         2.7178    3.3019    3.5129 N.2       2 RES2    0.0000
     65 H28        2.2541    3.0239    4.1808 H         2 RES2    0.0000
     66 C20        4.5777    0.8864    3.2497 C.2       2 RES2    0.0000
     67 H29        5.3122    0.2780    3.0264 H         2 RES2    0.0000
     68 C21        4.7442    2.2368    2.5838 C.3       2 RES2    0.0000
     69 H30        4.2647    2.2620    1.7405 H         2 RES2    0.0000
     70 H31        5.6821    2.4173    2.4124 H         2 RES2    0.0000
     71 C22        4.1646    3.2766    3.5687 C.3       2 RES2    0.0000
     72 C23        4.5661    2.6773    4.9424 C.3       2 RES2    0.0000
     73 H32        5.4629    2.9517    5.1896 H         2 RES2    0.0000
     74 H33        3.9496    2.9643    5.6342 H         2 RES2    0.0000
     75 C24        4.4934    1.1409    4.7410 C.3       2 RES2    0.0000
     76 H34        5.2089    0.6806    5.2275 H         2 RES2    0.0000
     77 C25        3.1266    0.5398    5.0500 C.2       2 RES2    0.0000
     78 C26        2.5291    0.3990    6.4018 C.2       2 RES2    0.0000
     79 C27        2.6809    0.9803    8.6846 C.3       2 RES2    0.0000
     80 H35        2.8916    1.8252    9.1112 H         2 RES2    0.0000
     81 H36        1.7166    0.8954    8.6327 H         2 RES2    0.0000
     82 C28        3.2151   -0.0704    9.4182 C.3       2 RES2    0.0000
     83 H37        4.0814   -0.2961    9.0713 H         2 RES2    0.0000
     84 H38        2.6356   -0.8340    9.3505 H         2 RES2    0.0000
     85 H39        3.2973    0.1914   10.3393 H         2 RES2    0.0000
     86 C29        2.1129    3.7604    2.4184 C.2       2 RES2    0.0000
     87 C30       -0.2013    3.9500    1.5571 C.3       2 RES2    0.0000
     88 C31       -0.1117    5.3816    1.2301 C.3       2 RES2    0.0000
     89 H40        0.7208    5.5567    0.7855 H         2 RES2    0.0000
     90 H41       -0.1570    5.8979    2.0396 H         2 RES2    0.0000
     91 H42       -0.8399    5.6253    0.6559 H         2 RES2    0.0000
     92 C32       -1.5702    3.5781    2.2250 C.3       2 RES2    0.0000
     93 H43       -1.6197    3.9771    3.0982 H         2 RES2    0.0000
     94 H44       -1.6387    2.6249    2.3047 H         2 RES2    0.0000
     95 H45       -2.2910    3.9067    1.6827 H         2 RES2    0.0000
     96 C33        0.0337    3.1412    0.3668 C.3       2 RES2    0.0000
     97 H46        0.1201    2.2187    0.6200 H         2 RES2    0.0000
     98 H47        0.8409    3.4319   -0.0638 H         2 RES2    0.0000
     99 H48       -0.7050    3.2387   -0.2373 H         2 RES2    0.0000
    100 C34        4.7389    4.6559    3.4411 C.2       2 RES2    0.0000
    101 C35        1.1803    8.6420   20.7185 C.2       7 RES7    0.0000
    102 C36        3.8148    8.9055   22.0124 C.2       8 RES8    0.0000
    103 C37        2.2235    7.8476   20.0427 Du       12 SUP12   0.0000
    104 H49        2.0128    6.9035   19.9589 H         9 RES9    0.0000
    105 H50        3.1129    7.9776   20.4015 H        10 RES10   0.0000
    106 C38        2.8115    8.8550   20.9478 C.2      11 RES11   0.0000
    107 H51        2.0570    9.4327   21.1452 Du       12 SUP12   0.0000
    108 H52        2.4933    7.9505   20.8023 Du       12 SUP12   0.0000
@<TRIPOS>BOND
     1    1    8 1
     2    2   23 1
     3    3   23 1
     4    4   24 1
     5    5   24 1
     6    6   38 1
     7    7   38 1
     8    8   22 1
     9    9   10 1
    10   11    1 1
    11   12   11 1
    12   13   11 1
    13   14   13 1
    14   15   13 1
    15   16    9 1
    16   17   16 1
    17   18   17 1
    18   19   17 1
    19   20   11 1
    20   21   20 1
    21   22   20 1
    22   23   22 1
    23   24    9 1
    24   25    5 1
    25   26   25 1
    26   27   26 1
    27   28   26 1
    28   29   26 1
    29   30   25 1
    30   31   30 1
    31   32   30 1
    32   33   30 1
    33   34   25 1
    34   35   34 1
    35   36   34 1
    36   37   34 1
    37   38   16 1
    38   39    7 1
    39   40   39 1
    40   41   39 1
    41   42   39 1
    42   43   42 1
    43   44   42 1
    44   45   42 1
    45   46   47 1
    46   48   46 1
    47   57   78 1
    48   58   78 1
    49   59   86 1
    50   60   86 1
    51   61   46 1
    52   62  100 1
    53   63   77 1
    54   64   65 1
    55   66   67 1
    56   68   66 1
    57   69   68 1
    58   70   68 1
    59   71   64 1
    60   72   71 1
    61   73   72 1
    62   74   72 1
    63   75   66 1
    64   76   75 1
    65   77   75 1
    66   78   77 1
    67   79   58 1
    68   80   79 1
    69   81   79 1
    70   82   79 1
    71   83   82 1
    72   84   82 1
    73   85   82 1
    74   86   64 1
    75   87   60 1
    76   88   87 1
    77   89   88 1
    78   90   88 1
    79   91   88 1
    80   92   87 1
    81   93   92 1
    82   94   92 1
    83   95   92 1
    84   96   87 1
    85   97   96 1
    86   98   96 1
    87   99   96 1
    88  100   61 1
    89   13   16 1
    90   17   20 1
    91   68   71 1
    92   71  100 1
    93   72   75 1
@<TRIPOS>SUBSTRUCTURE
     1 RES1 1
     2 RES2 46
     3 RES3 52
     4 RES4 53
     5 RES5 54
     6 RES6 55
     7 RES7 101
     8 RES8 102
     9 RES9 104
    10 RES10 105
    11 RES11 106
    12 SUP12 49

@<TRIPOS>CRYSIN
  10.5380   18.0530   19.9370  90.0000  90.0000  90.0000  19 1

