# MOL2 file generated by ConQuest
# Please check atom types

@<TRIPOS>MOLECULE
OJIZUE
    41    45     1
SMALL
NO_CHARGES
****
Generated from CSD

@<TRIPOS>ATOM
      1 O1         7.1491    5.8932   15.0530 O.3       1 RES1    0.0000
      2 N1         7.4808    5.8005   16.4365 N.2       1 RES1    0.0000
      3 N2         6.7833    9.0113   17.9794 N.3       1 RES1    0.0000
      4 C1         6.6865    7.1552   14.7777 C.2       1 RES1    0.0000
      5 C2         6.7160    7.8759   15.9191 C.2       1 RES1    0.0000
      6 C3         7.2012    6.9901   16.8865 C.2       1 RES1    0.0000
      7 C4         7.2185    7.6028   18.2550 C.3       1 RES1    0.0000
      8 H1         8.1407    7.5834   18.6418 H         1 RES1    0.0000
      9 C5         6.1957    6.9989   19.2400 C.3       1 RES1    0.0000
     10 H2         5.9459    6.0788   18.9743 H         1 RES1    0.0000
     11 H3         6.5566    6.9818   20.1620 H         1 RES1    0.0000
     12 C6         5.0159    7.9326   19.1362 C.3       1 RES1    0.0000
     13 H4         4.4354    7.6946   18.3701 H         1 RES1    0.0000
     14 H5         4.4773    7.9253   19.9670 H         1 RES1    0.0000
     15 C7         5.6783    9.2689   18.9264 C.3       1 RES1    0.0000
     16 H6         5.0377    9.9214   18.5475 H         1 RES1    0.0000
     17 H7         6.0270    9.6242   19.7816 H         1 RES1    0.0000
     18 C8         6.3783    9.2038   16.5398 C.3       1 RES1    0.0000
     19 H8         5.3892    9.3458   16.4934 H         1 RES1    0.0000
     20 C9         7.0803   10.3942   15.9264 C.ar      1 RES1    0.0000
     21 C10        6.3581   11.5063   15.5265 C.ar      1 RES1    0.0000
     22 H9         5.4144   11.5165   15.6382 H         1 RES1    0.0000
     23 C11        6.9920   12.6042   14.9664 C.ar      1 RES1    0.0000
     24 H10        6.4857   13.3671   14.7127 H         1 RES1    0.0000
     25 C12        8.3570   12.5894   14.7785 C.ar      1 RES1    0.0000
     26 H11        8.7924   13.3380   14.3882 H         1 RES1    0.0000
     27 C13        9.0936   11.4784   15.1598 C.ar      1 RES1    0.0000
     28 H12       10.0334   11.4624   15.0244 H         1 RES1    0.0000
     29 C14        8.4603   10.3945   15.7356 C.ar      1 RES1    0.0000
     30 H13        8.9715    9.6409   16.0043 H         1 RES1    0.0000
     31 C15        6.2923    7.3983   13.3915 C.ar      1 RES1    0.0000
     32 C16        6.2327    8.6938   12.8965 C.ar      1 RES1    0.0000
     33 H14        6.4037    9.4278   13.4738 H         1 RES1    0.0000
     34 C17        5.9263    8.9229   11.5670 C.ar      1 RES1    0.0000
     35 H15        5.8834    9.8123   11.2375 H         1 RES1    0.0000
     36 C18        5.6820    7.8653   10.7225 C.ar      1 RES1    0.0000
     37 H16        5.5020    8.0219    9.8037 H         1 RES1    0.0000
     38 C19        5.7006    6.5832   11.2110 C.ar      1 RES1    0.0000
     39 H17        5.5020    5.8564   10.6333 H         1 RES1    0.0000
     40 C20        6.0055    6.3412   12.5373 C.ar      1 RES1    0.0000
     41 H18        6.0186    5.4501   12.8648 H         1 RES1    0.0000
@<TRIPOS>BOND
     1    1    2 1
     2    2    6 2
     3    3    7 1
     4    4    1 1
     5    5    4 2
     6    6    5 1
     7    7    6 1
     8    8    7 1
     9    9    7 1
    10   10    9 1
    11   11    9 1
    12   12    9 1
    13   13   12 1
    14   14   12 1
    15   15    3 1
    16   16   15 1
    17   17   15 1
    18   18    3 1
    19   19   18 1
    20   20   18 1
    21   21   20 ar
    22   22   21 1
    23   23   21 ar
    24   24   23 1
    25   25   23 ar
    26   26   25 1
    27   27   25 ar
    28   28   27 1
    29   29   20 ar
    30   30   29 1
    31   31    4 1
    32   32   31 ar
    33   33   32 1
    34   34   32 ar
    35   35   34 1
    36   36   34 ar
    37   37   36 1
    38   38   36 ar
    39   39   38 1
    40   40   31 ar
    41   41   40 1
    42    5   18 1
    43   12   15 1
    44   27   29 ar
    45   38   40 ar
@<TRIPOS>SUBSTRUCTURE
     1 RES1 1

@<TRIPOS>CRYSIN
   9.3239   10.3911   15.9851  90.0000  90.0000  90.0000  19 1

