# MOL2 file generated by ConQuest
# Please check atom types

@<TRIPOS>MOLECULE
OJOMIL
    42    44     1
SMALL
NO_CHARGES
****
Generated from CSD

@<TRIPOS>ATOM
      1 O1         3.2936    1.8090   20.1525 O.2       1 RES1    0.0000
      2 O2         4.2893    0.3493   18.8990 O.2       1 RES1    0.0000
      3 O3         0.3050   -2.3786   10.4849 O.2       1 RES1    0.0000
      4 O4         1.3503   -2.1263    8.6087 O.2       1 RES1    0.0000
      5 N1         3.6576    1.3937   19.0517 N.pl3     1 RES1    0.0000
      6 N2         1.8625    5.6176   14.4964 N.2       1 RES1    0.0000
      7 N3         1.2457    4.3502   11.9357 N.2       1 RES1    0.0000
      8 N4         0.9385   -1.6977    9.6901 N.pl3     1 RES1    0.0000
      9 C1         3.3397    2.2006   17.8680 C.ar      1 RES1    0.0000
     10 C2         2.7480    3.4360   18.0421 C.ar      1 RES1    0.0000
     11 H1         2.5209    3.7440   18.9131 H         1 RES1    0.0000
     12 C3         2.4926    4.2152   16.9343 C.ar      1 RES1    0.0000
     13 H2         2.0927    5.0707   17.0410 H         1 RES1    0.0000
     14 C4         2.8191    3.7529   15.6539 C.ar      1 RES1    0.0000
     15 C5         3.4000    2.4977   15.5247 C.ar      1 RES1    0.0000
     16 H3         3.6187    2.1755   14.6588 H         1 RES1    0.0000
     17 C6         3.6670    1.7085   16.6219 C.ar      1 RES1    0.0000
     18 H4         4.0643    0.8515   16.5243 H         1 RES1    0.0000
     19 C7         2.5695    4.5552   14.4511 C.2       1 RES1    0.0000
     20 H5         2.9415    4.2790   13.6220 H         1 RES1    0.0000
     21 C8         1.5971    6.3437   13.3164 C.ar      1 RES1    0.0000
     22 C9         1.5677    7.7313   13.4331 C.ar      1 RES1    0.0000
     23 H6         1.7363    8.1289   14.2796 H         1 RES1    0.0000
     24 C10        1.3000    8.5414   12.3534 C.ar      1 RES1    0.0000
     25 H7         1.3230    9.4868   12.4511 H         1 RES1    0.0000
     26 C11        0.9969    7.9751   11.1244 C.ar      1 RES1    0.0000
     27 H8         0.7920    8.5281   10.3809 H         1 RES1    0.0000
     28 C12        0.9957    6.5941   10.9929 C.ar      1 RES1    0.0000
     29 H9         0.7691    6.2060   10.1561 H         1 RES1    0.0000
     30 C13        1.3201    5.7657   12.0649 C.ar      1 RES1    0.0000
     31 C14        1.6601    3.8157   10.8547 C.2       1 RES1    0.0000
     32 H10        2.0776    4.3645   10.1997 H         1 RES1    0.0000
     33 C15        1.5122    2.3792   10.5893 C.ar      1 RES1    0.0000
     34 C16        1.9014    1.8718    9.3482 C.ar      1 RES1    0.0000
     35 H11        2.2815    2.4525    8.7000 H         1 RES1    0.0000
     36 C17        1.7378    0.5323    9.0583 C.ar      1 RES1    0.0000
     37 H12        2.0034    0.1820    8.2168 H         1 RES1    0.0000
     38 C18        1.1815   -0.2838   10.0159 C.ar      1 RES1    0.0000
     39 C19        0.8086    0.1726   11.2674 C.ar      1 RES1    0.0000
     40 H13        0.4416   -0.4183   11.9142 H         1 RES1    0.0000
     41 C20        0.9868    1.5097   11.5462 C.ar      1 RES1    0.0000
     42 H14        0.7483    1.8455   12.4041 H         1 RES1    0.0000
@<TRIPOS>BOND
     1    1    5 2
     2    2    5 2
     3    3    8 2
     4    4    8 2
     5    5    9 1
     6    6   19 2
     7    7   30 1
     8    8   38 1
     9    9   10 ar
    10   10   11 1
    11   12   10 ar
    12   13   12 1
    13   14   12 ar
    14   15   14 ar
    15   16   15 1
    16   17    9 ar
    17   18   17 1
    18   19   14 1
    19   20   19 1
    20   21    6 1
    21   22   21 ar
    22   23   22 1
    23   24   22 ar
    24   25   24 1
    25   26   24 ar
    26   27   26 1
    27   28   26 ar
    28   29   28 1
    29   30   21 ar
    30   31    7 2
    31   32   31 1
    32   33   31 1
    33   34   33 ar
    34   35   34 1
    35   36   34 ar
    36   37   36 1
    37   38   36 ar
    38   39   38 ar
    39   40   39 1
    40   41   33 ar
    41   42   41 1
    42   15   17 ar
    43   28   30 ar
    44   39   41 ar
@<TRIPOS>SUBSTRUCTURE
     1 RES1 1

@<TRIPOS>CRYSIN
   3.7131   13.5798   33.5808  90.0000  92.3820  90.0000 231 1

