# MOL2 file generated by ConQuest
# Please check atom types

@<TRIPOS>MOLECULE
OJOZUK
    46    48     1
SMALL
NO_CHARGES
****
Generated from CSD

@<TRIPOS>ATOM
      1 C1        -0.4287    3.9077   15.5905 C.ar      1 RES1    0.0000
      2 C2        -0.4957    4.3161   16.9151 C.ar      1 RES1    0.0000
      3 C3         0.0058    5.5296   17.2975 C.ar      1 RES1    0.0000
      4 C4         0.5851    6.3584   16.3634 C.ar      1 RES1    0.0000
      5 C5         0.6445    5.9728   15.0307 C.ar      1 RES1    0.0000
      6 C6         0.1331    4.7461   14.6344 C.ar      1 RES1    0.0000
      7 C7         0.2589    4.3694   13.1819 C.3       1 RES1    0.0000
      8 O1        -0.5262    3.1808   12.9303 O.3       1 RES1    0.0000
      9 C8        -0.4021    2.6512   11.7018 C.2       1 RES1    0.0000
     10 C9        -1.2601    1.4162   11.5347 C.3       1 RES1    0.0000
     11 C10       -0.9384    0.6467   10.2378 C.3       1 RES1    0.0000
     12 C11       -0.2075   -0.6153   10.6870 C.3       1 RES1    0.0000
     13 C12       -0.4711   -0.6983   12.1521 C.2       1 RES1    0.0000
     14 C13       -1.0100    0.4085   12.6140 C.2       1 RES1    0.0000
     15 O2        -0.7455   -1.8224   10.0435 O.3       1 RES1    0.0000
     16 C14       -0.3013   -2.0548    8.8060 C.2       1 RES1    0.0000
     17 C15       -0.8340   -3.3352    8.2531 C.ar      1 RES1    0.0000
     18 C16       -0.5511   -3.6258    6.9181 C.ar      1 RES1    0.0000
     19 C17       -1.0109   -4.8061    6.3859 C.ar      1 RES1    0.0000
     20 C18       -1.7116   -5.7358    7.1254 C.ar      1 RES1    0.0000
     21 C19       -1.9533   -5.4210    8.4466 C.ar      1 RES1    0.0000
     22 C20       -1.5448   -4.2422    9.0260 C.ar      1 RES1    0.0000
     23 N1        -2.6941   -6.3982    9.2598 N.pl3     1 RES1    0.0000
     24 O3        -2.8688   -6.1409   10.4444 O.2       1 RES1    0.0000
     25 O4        -3.0972   -7.4142    8.7060 O.2       1 RES1    0.0000
     26 N2        -0.7118   -5.1204    4.9780 N.pl3     1 RES1    0.0000
     27 O5        -1.1009   -6.1997    4.5502 O.2       1 RES1    0.0000
     28 O6        -0.1003   -4.2844    4.3279 O.2       1 RES1    0.0000
     29 O7         0.4423   -1.3308    8.1945 O.2       1 RES1    0.0000
     30 O8         0.2952    3.1331   10.8621 O.2       1 RES1    0.0000
     31 H1        -0.7392    3.0651   15.2967 H         1 RES1    0.0000
     32 H2        -0.8967    3.7409   17.5889 H         1 RES1    0.0000
     33 H3         0.0127    5.7245   18.2109 H         1 RES1    0.0000
     34 H4         0.9452    7.1841   16.5177 H         1 RES1    0.0000
     35 H5         1.0484    6.5339   14.4213 H         1 RES1    0.0000
     36 H6        -0.0469    5.0646   12.5783 H         1 RES1    0.0000
     37 H7         1.2310    4.1496   12.9815 H         1 RES1    0.0000
     38 H8        -2.1667    1.7045   11.5186 H         1 RES1    0.0000
     39 H9        -1.2166    0.5792   13.5344 H         1 RES1    0.0000
     40 H10       -0.2244   -1.4503   12.6935 H         1 RES1    0.0000
     41 H11        0.7326   -0.6186   10.4704 H         1 RES1    0.0000
     42 H12       -0.3810    1.1255    9.6526 H         1 RES1    0.0000
     43 H13       -1.8388    0.4731    9.8023 H         1 RES1    0.0000
     44 H14       -1.7093   -4.0337    9.8830 H         1 RES1    0.0000
     45 H15       -1.9561   -6.5162    6.8190 H         1 RES1    0.0000
     46 H16       -0.1149   -3.0165    6.3583 H         1 RES1    0.0000
@<TRIPOS>BOND
     1    1    2 ar
     2    2    3 ar
     3    3    4 ar
     4    4    5 ar
     5    5    6 ar
     6    6    1 ar
     7    7    6 1
     8    8    7 1
     9    9    8 1
    10   10    9 1
    11   11   10 1
    12   12   11 1
    13   13   12 1
    14   14   10 1
    15   15   12 1
    16   16   15 1
    17   17   16 1
    18   18   17 ar
    19   19   18 ar
    20   20   19 ar
    21   21   20 ar
    22   22   17 ar
    23   23   21 1
    24   24   23 2
    25   25   23 2
    26   26   19 1
    27   27   26 2
    28   28   26 2
    29   29   16 2
    30   30    9 2
    31   31    1 1
    32   32    2 1
    33   33    3 1
    34   34    4 1
    35   35    5 1
    36   36    7 1
    37   37    7 1
    38   38   10 1
    39   39   14 1
    40   40   13 1
    41   41   12 1
    42   42   11 1
    43   43   11 1
    44   44   22 1
    45   45   20 1
    46   46   18 1
    47   13   14 2
    48   21   22 ar
@<TRIPOS>SUBSTRUCTURE
     1 RES1 1

@<TRIPOS>CRYSIN
   7.9370   10.1220   12.8220 112.7480 101.2810  91.8840   2 1

