# MOL2 file generated by ConQuest
# Please check atom types

@<TRIPOS>MOLECULE
OJUNEM
    36    36     1
SMALL
NO_CHARGES
****
Generated from CSD

@<TRIPOS>ATOM
      1 N1         5.8149   -0.2003    3.6130 N.3       1 RES1    0.0000
      2 N2         4.7551    0.2372    4.4599 N.2       1 RES1    0.0000
      3 C1         3.5643   -0.1084    4.0971 C.2       1 RES1    0.0000
      4 C2         3.2591   -0.9559    2.9579 C.2       1 RES1    0.0000
      5 H1         4.0079   -1.3902    2.5636 H         1 RES1    0.0000
      6 N3         2.0539   -1.0169    2.5156 N.2       1 RES1    0.0000
      7 N4         1.7597   -1.8183    1.4907 N.3       1 RES1    0.0000
      8 C3         0.4364   -1.7140    0.9944 C.3       1 RES1    0.0000
      9 H2         0.6265   -1.1477    0.1998 H         1 RES1    0.0000
     10 H3         0.1682   -2.5395    0.6961 H         1 RES1    0.0000
     11 H4        -0.1964   -1.2562    1.5553 H         1 RES1    0.0000
     12 C4         2.7866   -2.5663    0.7894 C.3       1 RES1    0.0000
     13 H5         3.0451   -3.3240    1.5308 H         1 RES1    0.0000
     14 H6         2.3078   -2.9838    0.0462 H         1 RES1    0.0000
     15 H7         3.4272   -2.0108    0.4745 H         1 RES1    0.0000
     16 C5         7.0399   -0.1267    4.4041 C.3       1 RES1    0.0000
     17 H8         6.8875   -0.7645    5.1822 H         1 RES1    0.0000
     18 H9         7.2015    0.7745    4.6675 H         1 RES1    0.0000
     19 H10        7.8146   -0.3495    3.8293 H         1 RES1    0.0000
     20 C6         5.9259    0.6225    2.4188 C.3       1 RES1    0.0000
     21 H11        6.6735    0.3251    1.8893 H         1 RES1    0.0000
     22 H12        5.1670    0.5492    1.8946 H         1 RES1    0.0000
     23 H13        6.1944    1.5879    2.7032 H         1 RES1    0.0000
     24 C7         2.4817    0.3609    4.9981 C.ar      1 RES1    0.0000
     25 C8         2.5292    1.6531    5.5250 C.ar      1 RES1    0.0000
     26 H14        3.1890    2.2269    5.2188 H         1 RES1    0.0000
     27 C9         1.5762    2.0847    6.4164 C.ar      1 RES1    0.0000
     28 H15        1.6138    2.9994    6.7235 H         1 RES1    0.0000
     29 C10        0.5937    1.2218    6.8002 C.ar      1 RES1    0.0000
     30 C11        0.5032   -0.0678    6.2969 C.ar      1 RES1    0.0000
     31 H16       -0.1477   -0.6687    6.6467 H         1 RES1    0.0000
     32 C12        1.4481   -0.4815    5.3880 C.ar      1 RES1    0.0000
     33 H17        1.3735   -1.4107    5.0034 H         1 RES1    0.0000
     34 N5        -0.4112    1.6504    7.7824 N.pl3     1 RES1    0.0000
     35 O1        -0.2398    2.7216    8.3407 O.2       1 RES1    0.0000
     36 O2        -1.3491    0.9083    8.0179 O.2       1 RES1    0.0000
@<TRIPOS>BOND
     1    1    2 1
     2    2    3 2
     3    3    4 1
     4    4    5 1
     5    6    4 2
     6    7    6 1
     7    8    7 1
     8    9    8 1
     9   10    8 1
    10   11    8 1
    11   12    7 1
    12   13   12 1
    13   14   12 1
    14   15   12 1
    15   16    1 1
    16   17   16 1
    17   18   16 1
    18   19   16 1
    19   20    1 1
    20   21   20 1
    21   22   20 1
    22   23   20 1
    23   24    3 1
    24   25   24 ar
    25   26   25 1
    26   27   25 ar
    27   28   27 1
    28   29   27 ar
    29   30   29 ar
    30   31   30 1
    31   32   24 ar
    32   33   32 1
    33   34   29 1
    34   35   34 2
    35   36   34 2
    36   30   32 ar
@<TRIPOS>SUBSTRUCTURE
     1 RES1 1

@<TRIPOS>CRYSIN
   9.5312    9.7709    9.9516 105.4440 103.3480 117.7540   2 1

