# MOL2 file generated by ConQuest
# Please check atom types

@<TRIPOS>MOLECULE
OKEBUC
    53    56     1
SMALL
NO_CHARGES
****
Generated from CSD

@<TRIPOS>ATOM
      1 O1         3.1937    0.9012   13.2498 O.3       1 RES1    0.0000
      2 O2         7.4133    1.4762   12.7444 O.2       1 RES1    0.0000
      3 O3         2.1962    3.0409   14.3517 O.2       1 RES1    0.0000
      4 O4         1.5125    3.8397   12.4690 O.2       1 RES1    0.0000
      5 N1         2.1004    3.0137   13.1462 N.pl3     1 RES1    0.0000
      6 C1         2.7550    1.8719   12.3561 C.3       1 RES1    0.0000
      7 H1         2.0951    1.4752   11.7186 H         1 RES1    0.0000
      8 C2         3.9746    2.4129   11.5839 C.3       1 RES1    0.0000
      9 H2         3.9901    3.4116   11.6295 H         1 RES1    0.0000
     10 C3         5.0961    1.8396   12.4296 C.2       1 RES1    0.0000
     11 C4         4.5861    0.9976   13.3460 C.2       1 RES1    0.0000
     12 C5         3.9865    1.9639   10.1385 C.ar      1 RES1    0.0000
     13 C6         3.8031    2.8858    9.1174 C.ar      1 RES1    0.0000
     14 H3         3.6943    3.8057    9.3275 H         1 RES1    0.0000
     15 C7         3.7777    2.4775    7.7963 C.ar      1 RES1    0.0000
     16 H4         3.6512    3.1169    7.1061 H         1 RES1    0.0000
     17 C8         3.9358    1.1395    7.4773 C.ar      1 RES1    0.0000
     18 H5         3.9194    0.8595    6.5703 H         1 RES1    0.0000
     19 C9         4.1187    0.2132    8.4891 C.ar      1 RES1    0.0000
     20 H6         4.2196   -0.7062    8.2739 H         1 RES1    0.0000
     21 C10        4.1561    0.6190    9.8132 C.ar      1 RES1    0.0000
     22 H7         4.2976   -0.0211   10.5014 H         1 RES1    0.0000
     23 C11        6.5254    2.1176   12.1966 C.2       1 RES1    0.0000
     24 C12        6.8280    3.2164   11.2531 C.2       1 RES1    0.0000
     25 H8         6.1364    3.8157   10.9974 H         1 RES1    0.0000
     26 C13        8.0475    3.3809   10.7569 C.2       1 RES1    0.0000
     27 H9         8.7097    2.7713   11.0600 H         1 RES1    0.0000
     28 C14        8.4879    4.3890    9.7993 C.ar      1 RES1    0.0000
     29 C15        7.7072    5.4925    9.4436 C.ar      1 RES1    0.0000
     30 H10        6.8489    5.6093    9.8343 H         1 RES1    0.0000
     31 C16        8.1765    6.4149    8.5274 C.ar      1 RES1    0.0000
     32 H11        7.6417    7.1659    8.2968 H         1 RES1    0.0000
     33 C17        9.4168    6.2520    7.9454 C.ar      1 RES1    0.0000
     34 H12        9.7361    6.8910    7.3192 H         1 RES1    0.0000
     35 C18       10.1918    5.1598    8.2736 C.ar      1 RES1    0.0000
     36 H13       11.0368    5.0347    7.8586 H         1 RES1    0.0000
     37 C19        9.7388    4.2466    9.2061 C.ar      1 RES1    0.0000
     38 H14       10.2896    3.5106    9.4467 H         1 RES1    0.0000
     39 C20        5.1802    0.2018   14.3892 C.2       1 RES1    0.0000
     40 H15        6.1207    0.0666   14.3879 H         1 RES1    0.0000
     41 C21        4.4432   -0.3537   15.3613 C.2       1 RES1    0.0000
     42 H16        3.5073   -0.1945   15.3246 H         1 RES1    0.0000
     43 C22        4.9181   -1.1761   16.4692 C.ar      1 RES1    0.0000
     44 C23        6.1979   -1.7444   16.5165 C.ar      1 RES1    0.0000
     45 H17        6.8190   -1.5720   15.8183 H         1 RES1    0.0000
     46 C24        6.5593   -2.5544   17.5744 C.ar      1 RES1    0.0000
     47 H18        7.4239   -2.9476   17.5906 H         1 RES1    0.0000
     48 C25        5.6754   -2.8017   18.6124 C.ar      1 RES1    0.0000
     49 H19        5.9313   -3.3632   19.3340 H         1 RES1    0.0000
     50 C26        4.4212   -2.2273   18.5912 C.ar      1 RES1    0.0000
     51 H20        3.8196   -2.3751   19.3111 H         1 RES1    0.0000
     52 C27        4.0397   -1.4376   17.5231 C.ar      1 RES1    0.0000
     53 H21        3.1651   -1.0668   17.5051 H         1 RES1    0.0000
@<TRIPOS>BOND
     1    1    6 1
     2    2   23 2
     3    3    5 2
     4    4    5 2
     5    5    6 1
     6    6    7 1
     7    8    6 1
     8    9    8 1
     9   10    8 1
    10   11    1 1
    11   12    8 1
    12   13   12 ar
    13   14   13 1
    14   15   13 ar
    15   16   15 1
    16   17   15 ar
    17   18   17 1
    18   19   17 ar
    19   20   19 1
    20   21   12 ar
    21   22   21 1
    22   23   10 1
    23   24   23 1
    24   25   24 1
    25   26   24 2
    26   27   26 1
    27   28   26 1
    28   29   28 ar
    29   30   29 1
    30   31   29 ar
    31   32   31 1
    32   33   31 ar
    33   34   33 1
    34   35   33 ar
    35   36   35 1
    36   37   28 ar
    37   38   37 1
    38   39   11 1
    39   40   39 1
    40   41   39 2
    41   42   41 1
    42   43   41 1
    43   44   43 ar
    44   45   44 1
    45   46   44 ar
    46   47   46 1
    47   48   46 ar
    48   49   48 1
    49   50   48 ar
    50   51   50 1
    51   52   43 ar
    52   53   52 1
    53   10   11 2
    54   19   21 ar
    55   35   37 ar
    56   50   52 ar
@<TRIPOS>SUBSTRUCTURE
     1 RES1 1

@<TRIPOS>CRYSIN
   9.2799    9.5379   12.2379  88.0090  79.6950  81.4050   2 1

