# MOL2 file generated by ConQuest
# Please check atom types

@<TRIPOS>MOLECULE
OKENOI
    90    96     2
SMALL
NO_CHARGES
****
Generated from CSD

@<TRIPOS>ATOM
      1 O1         8.1866    0.4145    0.9016 O.2       1 RES1    0.0000
      2 O2         5.1249    6.1525    9.9402 O.2       2 RES2    0.0000
      3 N1         8.4425    1.5972    0.4275 N.pl3     1 RES1    0.0000
      4 N2         5.3822    4.9431   10.3418 N.pl3     2 RES2    0.0000
      5 C1         7.4718    2.0935   -0.5075 C.2       1 RES1    0.0000
      6 C2         7.7663    3.0808   -1.3237 C.2       1 RES1    0.0000
      7 C3         9.0859    3.7924   -1.2781 C.3       1 RES1    0.0000
      8 C4         9.6609    3.6300    0.1168 C.2       1 RES1    0.0000
      9 C5         9.5333    2.2951    0.7120 C.2       1 RES1    0.0000
     10 C6        10.0408    3.3370   -2.3819 C.ar      1 RES1    0.0000
     11 C7         9.9911    2.0690   -2.9345 C.ar      1 RES1    0.0000
     12 C8        10.8655    1.7045   -3.9464 C.ar      1 RES1    0.0000
     13 C9        11.7937    2.5967   -4.4271 C.ar      1 RES1    0.0000
     14 C10       11.8694    3.8524   -3.8645 C.ar      1 RES1    0.0000
     15 C11       11.0093    4.2191   -2.8463 C.ar      1 RES1    0.0000
     16 C12       10.2215    4.6714    0.7380 C.2       1 RES1    0.0000
     17 C13       10.6748    4.7844    2.1328 C.ar      1 RES1    0.0000
     18 C14        9.8747    4.3701    3.1955 C.ar      1 RES1    0.0000
     19 C15       10.2719    4.5807    4.5002 C.ar      1 RES1    0.0000
     20 C16       11.4781    5.1844    4.7681 C.ar      1 RES1    0.0000
     21 C17       12.2886    5.5951    3.7259 C.ar      1 RES1    0.0000
     22 C18       11.8858    5.4125    2.4212 C.ar      1 RES1    0.0000
     23 C19       10.6206    1.6766    1.4939 C.ar      1 RES1    0.0000
     24 C20       10.4025    0.9707    2.6684 C.ar      1 RES1    0.0000
     25 C21       11.4670    0.4111    3.3447 C.ar      1 RES1    0.0000
     26 C22       12.7417    0.5276    2.8530 C.ar      1 RES1    0.0000
     27 C23       12.9715    1.2152    1.6898 C.ar      1 RES1    0.0000
     28 C24       11.9193    1.7989    1.0130 C.ar      1 RES1    0.0000
     29 C25        4.3829    4.3693   11.2047 C.2       2 RES2    0.0000
     30 C26        4.6744    3.3517   11.9878 C.2       2 RES2    0.0000
     31 C27        6.0306    2.7171   11.9720 C.3       2 RES2    0.0000
     32 C28        6.6427    2.9290   10.5960 C.2       2 RES2    0.0000
     33 C29        6.4943    4.2853   10.0490 C.2       2 RES2    0.0000
     34 C30        6.9195    3.2361   13.1014 C.ar      2 RES2    0.0000
     35 C31        6.7199    4.4817   13.6767 C.ar      2 RES2    0.0000
     36 C32        7.5319    4.9256   14.6992 C.ar      2 RES2    0.0000
     37 C33        8.5465    4.1349   15.1716 C.ar      2 RES2    0.0000
     38 C34        8.7664    2.8951   14.6013 C.ar      2 RES2    0.0000
     39 C35        7.9627    2.4489   13.5708 C.ar      2 RES2    0.0000
     40 C36        7.2465    1.9133    9.9675 C.2       2 RES2    0.0000
     41 C37        7.8079    1.8550    8.6101 C.ar      2 RES2    0.0000
     42 C38        8.9789    1.1322    8.3960 C.ar      2 RES2    0.0000
     43 C39        9.5500    1.0582    7.1454 C.ar      2 RES2    0.0000
     44 C40        8.9517    1.6779    6.0866 C.ar      2 RES2    0.0000
     45 C41        7.7647    2.3677    6.2619 C.ar      2 RES2    0.0000
     46 C42        7.1866    2.4504    7.5190 C.ar      2 RES2    0.0000
     47 C43        7.5725    4.9678    9.3033 C.ar      2 RES2    0.0000
     48 C44        8.8660    4.8814    9.7967 C.ar      2 RES2    0.0000
     49 C45        9.9118    5.5129    9.1456 C.ar      2 RES2    0.0000
     50 C46        9.6829    6.2156    7.9988 C.ar      2 RES2    0.0000
     51 C47        8.4135    6.2945    7.4933 C.ar      2 RES2    0.0000
     52 C48        7.3548    5.6834    8.1365 C.ar      2 RES2    0.0000
     53 H1         6.6084    1.7004   -0.5362 H         1 RES1    0.0000
     54 H2         7.1246    3.3487   -1.9698 H         1 RES1    0.0000
     55 H3         8.9187    4.7182   -1.4097 H         1 RES1    0.0000
     56 H4         9.3520    1.4450   -2.6076 H         1 RES1    0.0000
     57 H5        12.3757    2.3506   -5.1352 H         1 RES1    0.0000
     58 H6        11.0761    5.0817   -2.4541 H         1 RES1    0.0000
     59 H7        10.3485    5.4465    0.2032 H         1 RES1    0.0000
     60 H8         9.0481    3.9390    3.0141 H         1 RES1    0.0000
     61 H9        11.7545    5.3215    5.6671 H         1 RES1    0.0000
     62 H10       13.1266    6.0029    3.9092 H         1 RES1    0.0000
     63 H11       12.4369    5.7137    1.7081 H         1 RES1    0.0000
     64 H12        9.5176    0.8730    2.9990 H         1 RES1    0.0000
     65 H13       11.3184   -0.0521    4.1601 H         1 RES1    0.0000
     66 H14        3.5052    4.7325   11.2045 H         2 RES2    0.0000
     67 H15        4.0100    3.0164   12.5775 H         2 RES2    0.0000
     68 H16        5.9199    1.7825   12.0953 H         2 RES2    0.0000
     69 H17        6.0134    5.0309   13.3580 H         2 RES2    0.0000
     70 H18        7.3826    5.7827   15.0813 H         2 RES2    0.0000
     71 H19        8.1173    1.5975   13.1785 H         2 RES2    0.0000
     72 H20        7.3240    1.1128   10.4736 H         2 RES2    0.0000
     73 H21        9.3862    0.6880    9.1309 H         2 RES2    0.0000
     74 H22       10.3598    0.5785    7.0206 H         2 RES2    0.0000
     75 H23        6.3670    2.9161    7.6412 H         2 RES2    0.0000
     76 H24        8.2673    6.7717    6.6855 H         2 RES2    0.0000
     77 H25        6.4764    5.7527    7.7817 H         2 RES2    0.0000
     78 H26       10.8200    0.8300   -4.3136 H         1 RES1    0.0000
     79 H27       12.5177    4.4719   -4.1795 H         1 RES1    0.0000
     80 H28        9.7084    4.3090    5.2152 H         1 RES1    0.0000
     81 H29       13.4661    0.1277    3.3190 H         1 RES1    0.0000
     82 H30       13.8538    1.2874    1.3470 H         1 RES1    0.0000
     83 H31       12.0752    2.2920    0.2162 H         1 RES1    0.0000
     84 H32        9.0986    4.4393   15.8834 H         2 RES2    0.0000
     85 H33        9.4769    2.3493   14.9169 H         2 RES2    0.0000
     86 H34        9.3494    1.6301    5.2260 H         2 RES2    0.0000
     87 H35        7.3469    2.7871    5.5179 H         2 RES2    0.0000
     88 H36        9.0325    4.3846   10.5882 H         2 RES2    0.0000
     89 H37       10.7923    5.4504    9.4985 H         2 RES2    0.0000
     90 H38       10.4036    6.6518    7.5612 H         2 RES2    0.0000
@<TRIPOS>BOND
     1    1    3 1
     2    2    4 1
     3    3    5 1
     4    4   29 1
     5    5    6 2
     6    6    7 1
     7    7    8 1
     8    8    9 1
     9    9    3 2
    10   10    7 1
    11   11   10 ar
    12   12   11 ar
    13   13   12 ar
    14   14   13 ar
    15   15   10 ar
    16   16    8 2
    17   17   16 1
    18   18   17 ar
    19   19   18 ar
    20   20   19 ar
    21   21   20 ar
    22   22   17 ar
    23   23    9 1
    24   24   23 ar
    25   25   24 ar
    26   26   25 ar
    27   27   26 ar
    28   28   23 ar
    29   29   30 2
    30   30   31 1
    31   31   32 1
    32   32   33 1
    33   33    4 2
    34   34   31 1
    35   35   34 ar
    36   36   35 ar
    37   37   36 ar
    38   38   37 ar
    39   39   34 ar
    40   40   32 2
    41   41   40 1
    42   42   41 ar
    43   43   42 ar
    44   44   43 ar
    45   45   44 ar
    46   46   41 ar
    47   47   33 1
    48   48   47 ar
    49   49   48 ar
    50   50   49 ar
    51   51   50 ar
    52   52   47 ar
    53   53    5 1
    54   54    6 1
    55   55    7 1
    56   56   11 1
    57   57   13 1
    58   58   15 1
    59   59   16 1
    60   60   18 1
    61   61   20 1
    62   62   21 1
    63   63   22 1
    64   64   24 1
    65   65   25 1
    66   66   29 1
    67   67   30 1
    68   68   31 1
    69   69   35 1
    70   70   36 1
    71   71   39 1
    72   72   40 1
    73   73   42 1
    74   74   43 1
    75   75   46 1
    76   76   51 1
    77   77   52 1
    78   78   12 1
    79   79   14 1
    80   80   19 1
    81   81   26 1
    82   82   27 1
    83   83   28 1
    84   84   37 1
    85   85   38 1
    86   86   44 1
    87   87   45 1
    88   88   48 1
    89   89   49 1
    90   90   50 1
    91   14   15 ar
    92   21   22 ar
    93   27   28 ar
    94   38   39 ar
    95   45   46 ar
    96   51   52 ar
@<TRIPOS>SUBSTRUCTURE
     1 RES1 1
     2 RES2 2

@<TRIPOS>CRYSIN
  13.3310   13.0300   22.4760  90.0000 105.8460  90.0000  14 2

