# MOL2 file generated by ConQuest
# Please check atom types

@<TRIPOS>MOLECULE
OKEQEA
    68    72     2
SMALL
NO_CHARGES
****
Generated from CSD

@<TRIPOS>ATOM
      1 C1         0.6352   -1.2849    3.8318 C.3       1 RES1    0.0000
      2 C2        -0.2819   -1.8857    4.8458 C.3       1 RES1    0.0000
      3 C3         0.3142   -1.7129    6.2290 C.3       1 RES1    0.0000
      4 C4         0.4830   -0.2015    6.4757 C.3       1 RES1    0.0000
      5 C5        -0.0193    0.5250    5.2408 C.3       1 RES1    0.0000
      6 C6         0.1188    2.0152    5.3331 C.3       1 RES1    0.0000
      7 C7        -1.4426    0.1386    4.9472 C.3       1 RES1    0.0000
      8 C8         0.7484   -1.2447    1.4513 C.ar      1 RES1    0.0000
      9 C9         1.9972   -0.6508    1.4528 C.ar      1 RES1    0.0000
     10 C10        2.6871   -0.5455    0.2497 C.ar      1 RES1    0.0000
     11 C11        2.0817   -0.9614   -0.8989 C.ar      1 RES1    0.0000
     12 C12        0.8389   -1.5425   -0.9095 C.ar      1 RES1    0.0000
     13 C13        0.1688   -1.6857    0.2769 C.ar      1 RES1    0.0000
     14 C14       -5.1275   -1.7235    3.4596 C.3       2 RES2    0.0000
     15 C15       -5.9646   -2.6236    4.3343 C.3       2 RES2    0.0000
     16 C16       -5.3456   -2.6887    5.7190 C.3       2 RES2    0.0000
     17 C17       -5.1466   -1.2516    6.2139 C.3       2 RES2    0.0000
     18 C18       -5.8407   -0.3182    5.2302 C.3       2 RES2    0.0000
     19 C19       -5.8233    1.1212    5.6524 C.3       2 RES2    0.0000
     20 C20       -7.2513   -0.7879    4.9971 C.3       2 RES2    0.0000
     21 C21       -4.9696   -1.4394    1.0957 C.ar      2 RES2    0.0000
     22 C22       -3.7582   -0.7659    1.1305 C.ar      2 RES2    0.0000
     23 C23       -3.0761   -0.5629   -0.0439 C.ar      2 RES2    0.0000
     24 C24       -3.6065   -1.0212   -1.2228 C.ar      2 RES2    0.0000
     25 C25       -4.8253   -1.6523   -1.2773 C.ar      2 RES2    0.0000
     26 C26       -5.5125   -1.8425   -0.1150 C.ar      2 RES2    0.0000
     27 N1         2.7832   -0.7962   -2.1626 N.pl3     1 RES1    0.0000
     28 N2        -2.8506   -0.8856   -2.4426 N.pl3     2 RES2    0.0000
     29 O1         0.0040   -1.4023    2.5727 O.3       1 RES1    0.0000
     30 O2        -1.5642   -1.2766    4.8216 O.3       1 RES1    0.0000
     31 O3         1.5604   -2.3546    6.3834 O.3       1 RES1    0.0000
     32 O4        -0.2296    0.2402    7.6153 O.3       1 RES1    0.0000
     33 O5         0.8137    0.0939    4.1512 O.3       1 RES1    0.0000
     34 O6         1.4483    2.4584    5.6070 O.3       1 RES1    0.0000
     35 O7         3.9628   -0.4818   -2.1308 O.2       1 RES1    0.0000
     36 O8         2.1803   -0.9318   -3.1917 O.2       1 RES1    0.0000
     37 O9        -5.7479   -1.7076    2.1823 O.3       2 RES2    0.0000
     38 O10       -7.2722   -2.1001    4.4236 O.3       2 RES2    0.0000
     39 O11       -4.0959   -3.3653    5.6993 O.3       2 RES2    0.0000
     40 O12       -5.6805   -1.0440    7.5048 O.3       2 RES2    0.0000
     41 O13       -5.1350   -0.4114    3.9923 O.3       2 RES2    0.0000
     42 O14       -4.5527    1.5660    6.0550 O.3       2 RES2    0.0000
     43 O15       -1.7829   -0.2894   -2.4108 O.2       2 RES2    0.0000
     44 O16       -3.2992   -1.3758   -3.4626 O.2       2 RES2    0.0000
     45 H1         1.5348   -1.7720    3.8470 H         1 RES1    0.0000
     46 H2        -0.3891   -2.8668    4.6188 H         1 RES1    0.0000
     47 H3        -0.3143   -2.1660    6.8858 H         1 RES1    0.0000
     48 H4         1.4570    0.0258    6.6452 H         1 RES1    0.0000
     49 H5        -0.5050    2.3539    6.0353 H         1 RES1    0.0000
     50 H6        -0.1824    2.4092    4.4357 H         1 RES1    0.0000
     51 H7        -2.0478    0.4682    5.6706 H         1 RES1    0.0000
     52 H8        -1.7367    0.5705    4.0710 H         1 RES1    0.0000
     53 H9         2.4077   -0.3197    2.3215 H         1 RES1    0.0000
     54 H10        3.6153   -0.1621    0.2058 H         1 RES1    0.0000
     55 H11        0.4295   -1.8387   -1.7782 H         1 RES1    0.0000
     56 H12       -0.7313   -2.1425    0.3027 H         1 RES1    0.0000
     57 H13       -4.1668   -2.0440    3.3990 H         2 RES2    0.0000
     58 H14       -5.9677   -3.5554    3.9166 H         2 RES2    0.0000
     59 H15       -5.9660   -3.2168    6.3077 H         2 RES2    0.0000
     60 H16       -4.1560   -1.0379    6.2744 H         2 RES2    0.0000
     61 H17       -6.4665    1.2220    6.4515 H         2 RES2    0.0000
     62 H18       -6.1739    1.7046    4.9200 H         2 RES2    0.0000
     63 H19       -7.7551   -0.7955    5.8794 H         2 RES2    0.0000
     64 H20       -7.7386   -0.1432    4.3812 H         2 RES2    0.0000
     65 H21       -3.3866   -0.4493    2.0203 H         2 RES2    0.0000
     66 H22       -2.1991   -0.0735   -0.0545 H         2 RES2    0.0000
     67 H23       -5.1972   -1.9637   -2.1505 H         2 RES2    0.0000
     68 H24       -6.4209   -2.2826   -0.1180 H         2 RES2    0.0000
@<TRIPOS>BOND
     1    1    2 1
     2    2    3 1
     3    3    4 1
     4    4    5 1
     5    5    6 1
     6    6   34 1
     7    7    5 1
     8    8    9 ar
     9    9   10 ar
    10   10   11 ar
    11   11   12 ar
    12   12   13 ar
    13   13    8 ar
    14   14   15 1
    15   15   16 1
    16   16   17 1
    17   17   18 1
    18   18   19 1
    19   19   42 1
    20   20   18 1
    21   21   22 ar
    22   22   23 ar
    23   23   24 ar
    24   24   25 ar
    25   25   26 ar
    26   26   21 ar
    27   27   11 1
    28   28   24 1
    29   29    1 1
    30   30    2 1
    31   31    3 1
    32   32    4 1
    33   33    1 1
    34   35   27 2
    35   36   27 2
    36   37   14 1
    37   38   15 1
    38   39   16 1
    39   40   17 1
    40   41   14 1
    41   43   28 2
    42   44   28 2
    43   45    1 1
    44   46    2 1
    45   47    3 1
    46   48    4 1
    47   49    6 1
    48   50    6 1
    49   51    7 1
    50   52    7 1
    51   53    9 1
    52   54   10 1
    53   55   12 1
    54   56   13 1
    55   57   14 1
    56   58   15 1
    57   59   16 1
    58   60   17 1
    59   61   19 1
    60   62   19 1
    61   63   20 1
    62   64   20 1
    63   65   22 1
    64   66   23 1
    65   67   25 1
    66   68   26 1
    67    5   33 1
    68    7   30 1
    69    8   29 1
    70   18   41 1
    71   20   38 1
    72   21   37 1
@<TRIPOS>SUBSTRUCTURE
     1 RES1 1
     2 RES2 14

@<TRIPOS>CRYSIN
  11.5330    7.5760   15.3090  90.0000  98.6800  90.0000   4 1

