# MOL2 file generated by ConQuest
# Please check atom types

@<TRIPOS>MOLECULE
OKETOP
    54    57     1
SMALL
USER_CHARGES
****
Generated from CSD

@<TRIPOS>ATOM
      1 O1         3.7715   13.6825    2.7001 O.2       1 RES1   -1.0000
      2 O2         2.6397   13.1604   -1.2840 O.3       1 RES1    0.0000
      3 O3         5.5641   16.8480   -1.9312 O.3       1 RES1    0.0000
      4 O4         6.4126   13.4824    1.4440 O.3       1 RES1    0.0000
      5 N1         3.7206   12.4665    2.2261 N.pl3     1 RES1    1.0000
      6 C1         2.5183    9.1728    3.4857 C.3       1 RES1    0.0000
      7 H1         2.3871    8.2456    3.1362 H         1 RES1    0.0000
      8 C2         3.0835   10.1698    2.5195 C.ar      1 RES1    0.0000
      9 C3         3.3766    9.9219    1.1937 C.ar      1 RES1    0.0000
     10 H2         3.2489    9.0550    0.8270 H         1 RES1    0.0000
     11 C4         3.8601   10.9553    0.4035 C.ar      1 RES1    0.0000
     12 H3         4.0736   10.7805   -0.5054 H         1 RES1    0.0000
     13 C5         4.0394   12.2290    0.9031 C.ar      1 RES1    0.0000
     14 C6         3.2942   11.4531    3.0351 C.ar      1 RES1    0.0000
     15 C7         2.9614   11.7693    4.4721 C.3       1 RES1    0.0000
     16 H4         2.2538   12.4760    4.4805 H         1 RES1    0.0000
     17 C8         2.3864   10.5094    5.1153 C.3       1 RES1    0.0000
     18 H5         2.1408   10.6121    6.0785 H         1 RES1    0.0000
     19 C9         1.2937    9.8082    4.2386 C.3       1 RES1    0.0000
     20 C10        3.3054    9.2959    4.8119 C.3       1 RES1    0.0000
     21 H6         4.2620    9.5261    4.6982 H         1 RES1    0.0000
     22 H7         3.1875    8.5305    5.4293 H         1 RES1    0.0000
     23 C11        4.5091   13.3839    0.1083 C.ar      1 RES1    0.0000
     24 C12        3.7687   13.8708   -0.9782 C.ar      1 RES1    0.0000
     25 C13        4.1553   15.0205   -1.6620 C.ar      1 RES1    0.0000
     26 H8         3.6459   15.3382   -2.3971 H         1 RES1    0.0000
     27 C14        5.2968   15.6915   -1.2501 C.ar      1 RES1    0.0000
     28 C15        6.0832   15.2163   -0.2135 C.ar      1 RES1    0.0000
     29 H9         6.8731   15.6751    0.0459 H         1 RES1    0.0000
     30 C16        5.6883   14.0468    0.4395 C.ar      1 RES1    0.0000
     31 C17        4.1692   12.2842    5.2791 C.3       1 RES1    0.0000
     32 H10        4.7965   11.5475    5.4353 H         1 RES1    0.0000
     33 H11        3.8608   12.6376    6.1405 H         1 RES1    0.0000
     34 H12        4.6186   12.9950    4.7761 H         1 RES1    0.0000
     35 C18        0.5185    8.7907    5.0702 C.3       1 RES1    0.0000
     36 H13       -0.1437    9.2577    5.6211 H         1 RES1    0.0000
     37 H14        1.1395    8.3018    5.6491 H         1 RES1    0.0000
     38 H15        0.0621    8.1607    4.4745 H         1 RES1    0.0000
     39 C19        0.3119   10.6614    3.4438 C.3       1 RES1    0.0000
     40 H16       -0.2973   10.0794    2.9444 H         1 RES1    0.0000
     41 H17        0.8066   11.2311    2.8185 H         1 RES1    0.0000
     42 H18       -0.2044   11.2243    4.0590 H         1 RES1    0.0000
     43 C20        1.7870   13.6934   -2.2926 C.3       1 RES1    0.0000
     44 H19        1.4814   14.5850   -2.0255 H         1 RES1    0.0000
     45 H20        1.0125   13.1046   -2.4090 H         1 RES1    0.0000
     46 H21        2.2796   13.7564   -3.1382 H         1 RES1    0.0000
     47 C21        6.6994   17.6088   -1.5147 C.3       1 RES1    0.0000
     48 H22        6.5870   17.8786   -0.5793 H         1 RES1    0.0000
     49 H23        6.7824   18.4072   -2.0775 H         1 RES1    0.0000
     50 H24        7.5088   17.0624   -1.6020 H         1 RES1    0.0000
     51 C22        7.6574   14.0906    1.7964 C.3       1 RES1    0.0000
     52 H25        8.2645   14.0605    1.0287 H         1 RES1    0.0000
     53 H26        8.0573   13.6044    2.5469 H         1 RES1    0.0000
     54 H27        7.5039   15.0232    2.0555 H         1 RES1    0.0000
@<TRIPOS>BOND
     1    1    5 1
     2    2   24 1
     3    3   27 1
     4    4   30 1
     5    5   13 ar
     6    6    7 1
     7    8    6 1
     8    9    8 ar
     9   10    9 1
    10   11    9 ar
    11   12   11 1
    12   13   11 ar
    13   14    5 ar
    14   15   14 1
    15   16   15 1
    16   17   15 1
    17   18   17 1
    18   19    6 1
    19   20    6 1
    20   21   20 1
    21   22   20 1
    22   23   13 1
    23   24   23 ar
    24   25   24 ar
    25   26   25 1
    26   27   25 ar
    27   28   27 ar
    28   29   28 1
    29   30   23 ar
    30   31   15 1
    31   32   31 1
    32   33   31 1
    33   34   31 1
    34   35   19 1
    35   36   35 1
    36   37   35 1
    37   38   35 1
    38   39   19 1
    39   40   39 1
    40   41   39 1
    41   42   39 1
    42   43    2 1
    43   44   43 1
    44   45   43 1
    45   46   43 1
    46   47    3 1
    47   48   47 1
    48   49   47 1
    49   50   47 1
    50   51    4 1
    51   52   51 1
    52   53   51 1
    53   54   51 1
    54    8   14 ar
    55   17   19 1
    56   17   20 1
    57   28   30 ar
@<TRIPOS>SUBSTRUCTURE
     1 RES1 1

@<TRIPOS>CRYSIN
   6.9778   13.6948   19.9755  90.0000  90.0000  90.0000  19 1

