# MOL2 file generated by ConQuest
# Please check atom types

@<TRIPOS>MOLECULE
OKIPON
    35    38     1
SMALL
NO_CHARGES
****
Generated from CSD

@<TRIPOS>ATOM
      1 O1        11.9846    0.0372    2.3502 O.3       1 RES1    0.0000
      2 O2        12.0059    6.3523    2.7173 O.3       1 RES1    0.0000
      3 N1        11.1079    1.0512    1.8482 N.2       1 RES1    0.0000
      4 N2        11.1424    5.3357    3.2551 N.2       1 RES1    0.0000
      5 C1        10.0737    3.1832    2.5631 C.3       1 RES1    0.0000
      6 C2         9.1868    3.3204    3.8075 C.3       1 RES1    0.0000
      7 C3         9.9446    3.1858    5.1813 C.3       1 RES1    0.0000
      8 C4        10.7127    1.8640    5.2437 C.3       1 RES1    0.0000
      9 C5        11.7204    1.7384    4.0443 C.3       1 RES1    0.0000
     10 C6        12.3442    0.3359    3.7222 C.3       1 RES1    0.0000
     11 C7        10.9585    1.9820    2.7375 C.2       1 RES1    0.0000
     12 C8         9.1715    3.1242    1.2747 C.3       1 RES1    0.0000
     13 C9         9.9152    3.2614   -0.0229 C.3       1 RES1    0.0000
     14 C10       10.7635    4.5639   -0.0991 C.3       1 RES1    0.0000
     15 C11       11.6778    4.6806    1.0875 C.3       1 RES1    0.0000
     16 C12       12.1878    6.0857    1.3197 C.3       1 RES1    0.0000
     17 C13       10.9870    4.4319    2.3768 C.2       1 RES1    0.0000
     18 H1         8.7266    4.3332    3.6983 H         1 RES1    0.0000
     19 H2         8.6555    2.3845    3.7809 H         1 RES1    0.0000
     20 H3        10.6771    4.0511    5.2217 H         1 RES1    0.0000
     21 H4         9.3158    3.1665    5.9283 H         1 RES1    0.0000
     22 H5        11.3273    1.8974    6.0568 H         1 RES1    0.0000
     23 H6        10.1285    1.0128    5.1758 H         1 RES1    0.0000
     24 H7        12.5159    2.4358    4.0562 H         1 RES1    0.0000
     25 H8        13.4810    0.3461    3.5515 H         1 RES1    0.0000
     26 H9        12.2314   -0.2949    4.3958 H         1 RES1    0.0000
     27 H10        8.3710    3.7563    1.4408 H         1 RES1    0.0000
     28 H11        8.6047    2.3461    1.2297 H         1 RES1    0.0000
     29 H12        9.2041    3.1409   -0.7800 H         1 RES1    0.0000
     30 H13       10.4435    2.4743   -0.2111 H         1 RES1    0.0000
     31 H14       10.1590    5.2818   -0.4130 H         1 RES1    0.0000
     32 H15       11.1139    4.7306   -1.0186 H         1 RES1    0.0000
     33 H16       12.3940    4.0639    0.9085 H         1 RES1    0.0000
     34 H17       11.5000    6.7177    0.8626 H         1 RES1    0.0000
     35 H18       13.2067    6.2177    1.0554 H         1 RES1    0.0000
@<TRIPOS>BOND
     1    1    3 1
     2    2    4 1
     3    3   11 2
     4    4   17 2
     5    5    6 1
     6    6    7 1
     7    7    8 1
     8    8    9 1
     9    9   10 1
    10   10    1 1
    11   11    5 1
    12   12    5 1
    13   13   12 1
    14   14   13 1
    15   15   14 1
    16   16    2 1
    17   17    5 1
    18   18    6 1
    19   19    6 1
    20   20    7 1
    21   21    7 1
    22   22    8 1
    23   23    8 1
    24   24    9 1
    25   25   10 1
    26   26   10 1
    27   27   12 1
    28   28   12 1
    29   29   13 1
    30   30   13 1
    31   31   14 1
    32   32   14 1
    33   33   15 1
    34   34   16 1
    35   35   16 1
    36    9   11 1
    37   15   16 1
    38   15   17 1
@<TRIPOS>SUBSTRUCTURE
     1 RES1 1

@<TRIPOS>CRYSIN
  10.1590   12.8200    9.1770  90.0000  90.0000  90.0000  29 1

