# MOL2 file generated by ConQuest
# Please check atom types

@<TRIPOS>MOLECULE
OKIROR
    38    37     2
SMALL
NO_CHARGES
****
Generated from CSD

@<TRIPOS>ATOM
      1 O1         2.7421   12.5379    2.1270 O.3       1 RES1    0.0000
      2 O2         0.4287   13.6426   -0.3498 O.2       1 RES1    0.0000
      3 O3         0.6108   14.4515    1.6455 O.2       1 RES1    0.0000
      4 O4         2.7579   12.1731   -0.7068 O.2       1 RES1    0.0000
      5 O5         3.1652   13.9292   -1.7896 O.2       1 RES1    0.0000
      6 O6         1.9565   16.2542   -0.4415 O.2       1 RES1    0.0000
      7 O7         3.9867   15.9875    0.3144 O.2       1 RES1    0.0000
      8 O8         3.4529    8.6481    4.3604 O.3       1 RES1    0.0000
      9 O9         1.3920    5.7647    6.0407 O.2       1 RES1    0.0000
     10 O10        3.4562    6.4611    5.9582 O.2       1 RES1    0.0000
     11 O11        3.4824    6.3506    2.1337 O.2       1 RES1    0.0000
     12 O12        3.6137    4.8444    3.6968 O.2       1 RES1    0.0000
     13 O13        0.7873    5.0647    3.0272 O.2       1 RES1    0.0000
     14 O14       -0.1211    6.8892    3.7884 O.2       1 RES1    0.0000
     15 N1         3.0073   10.5936    3.2115 N.ar      1 RES1    0.0000
     16 N2         4.9166   10.3062    4.6209 N.ar      1 RES1    0.0000
     17 N3         4.6339   12.3359    3.3842 N.ar      1 RES1    0.0000
     18 N4         1.0587   14.0648    0.5901 N.pl3     1 RES1    0.0000
     19 N5         2.9919   13.3630   -0.7569 N.pl3     1 RES1    0.0000
     20 N6         2.8624   15.6290    0.0875 N.pl3     1 RES1    0.0000
     21 N7         2.3597    6.2501    5.4835 N.pl3     1 RES1    0.0000
     22 N8         3.2135    5.8887    3.2163 N.pl3     1 RES1    0.0000
     23 N9         0.8154    6.1534    3.5608 N.pl3     1 RES1    0.0000
     24 N10        6.4350   12.0237    4.7688 N.3       1 RES1    0.0000
     25 C1         3.5171   11.8009    2.9501 C.ar      1 RES1    0.0000
     26 C2         3.7983    9.9189    4.0338 C.ar      1 RES1    0.0000
     27 C3         5.3203   11.5390    4.2398 C.ar      1 RES1    0.0000
     28 C4         3.2920   13.7980    1.7251 C.3       1 RES1    0.0000
     29 H1         4.2641   13.7148    1.5574 H         1 RES1    0.0000
     30 H2         3.1487   14.4801    2.4286 H         1 RES1    0.0000
     31 C5         2.5676   14.1826    0.4606 C.3       1 RES1    0.0000
     32 C6         2.2326    8.1763    3.8024 C.3       1 RES1    0.0000
     33 H3         2.1967    8.3826    2.8350 H         1 RES1    0.0000
     34 H4         1.4622    8.6122    4.2463 H         1 RES1    0.0000
     35 C7         2.1822    6.6760    4.0202 C.3       1 RES1    0.0000
     36 H5         6.7137   12.8132    4.5215 H         1 RES1    0.0000
     37 H6         6.8805   11.5391    5.3207 H         1 RES1    0.0000
     38 O15        3.5737   12.2622   -0.4179 Du        2 SUP2    0.0000
@<TRIPOS>BOND
     1    1   25 1
     2    2   18 2
     3    3   18 2
     4    4   19 2
     5    5   19 2
     6    6   20 2
     7    7   20 2
     8    8   26 1
     9    9   21 2
    10   10   21 2
    11   11   22 2
    12   12   22 2
    13   13   23 2
    14   14   23 2
    15   15   25 ar
    16   16   26 ar
    17   17   25 ar
    18   18   31 1
    19   19   31 1
    20   20   31 1
    21   21   35 1
    22   22   35 1
    23   23   35 1
    24   24   27 1
    25   26   15 ar
    26   27   16 ar
    27   28    1 1
    28   29   28 1
    29   30   28 1
    30   31   28 1
    31   32    8 1
    32   33   32 1
    33   34   32 1
    34   35   32 1
    35   36   24 1
    36   37   24 1
    37   17   27 ar
@<TRIPOS>SUBSTRUCTURE
     1 RES1 1
     2 SUP2 38

@<TRIPOS>CRYSIN
   6.0315   11.7427   11.9923 101.5000 101.7380  97.6070   2 1

