# MOL2 file generated by ConQuest
# Please check atom types

@<TRIPOS>MOLECULE
OKIRIL
   145   144     4
SMALL
NO_CHARGES
****
Generated from CSD

@<TRIPOS>ATOM
      1 O1         3.0965    5.8555   17.0704 O.3       1 RES1    0.0000
      2 O2         3.5409    3.0715   15.1557 O.2       1 RES1    0.0000
      3 O3         4.2430    3.2517   17.2260 O.2       1 RES1    0.0000
      4 O4         1.3168    5.0817   15.0230 O.2       1 RES1    0.0000
      5 O5         0.4389    3.0919   15.2129 O.2       1 RES1    0.0000
      6 O6         1.8573    1.5000   17.3704 O.2       1 RES1    0.0000
      7 O7         0.4892    2.9184   18.2840 O.2       1 RES1    0.0000
      8 O8         4.4646    9.9338   15.7562 O.3       1 RES1    0.0000
      9 O9         5.8600   12.4457   14.2683 O.2       1 RES1    0.0000
     10 O10        6.9202   11.8998   16.1215 O.2       1 RES1    0.0000
     11 O11        4.8490   10.1328   12.9763 O.2       1 RES1    0.0000
     12 O12        6.9857    9.8130   12.3885 O.2       1 RES1    0.0000
     13 O13        8.7829   10.7314   14.3036 O.2       1 RES1    0.0000
     14 O14        8.2577    8.7348   15.0555 O.2       1 RES1    0.0000
     15 O15        0.2118    9.3436   17.3337 O.3       1 RES1    0.0000
     16 O16       -2.5353    9.8539   18.1054 O.2       1 RES1    0.0000
     17 O17       -1.7786    9.8317   20.1492 O.2       1 RES1    0.0000
     18 O18        1.0558   10.2739   19.7962 O.2       1 RES1    0.0000
     19 O19        0.3428   12.2671   20.3208 O.2       1 RES1    0.0000
     20 O20       -2.4054   12.6379   19.0832 O.2       1 RES1    0.0000
     21 O21       -0.8407   13.2842   17.7030 O.2       1 RES1    0.0000
     22 N1         3.7669    7.8368   16.3238 N.ar      1 RES1    0.0000
     23 N2         2.3486    9.7297   16.5257 N.ar      1 RES1    0.0000
     24 N3         1.5690    7.5885   17.2130 N.ar      1 RES1    0.0000
     25 N4         3.3869    3.3079   16.3121 N.pl3     1 RES1    0.0000
     26 N5         1.1727    3.9830   15.5535 N.pl3     1 RES1    0.0000
     27 N6         1.4019    2.6259   17.5575 N.pl3     1 RES1    0.0000
     28 N7         6.4354   11.6753   15.0272 N.pl3     1 RES1    0.0000
     29 N8         6.0937   10.0392   13.1669 N.pl3     1 RES1    0.0000
     30 N9         7.9826    9.8164   14.6707 N.pl3     1 RES1    0.0000
     31 N10       -1.7612   10.1600   18.9702 N.pl3     1 RES1    0.0000
     32 N11        0.3276   11.2212   19.6868 N.pl3     1 RES1    0.0000
     33 N12       -1.3812   12.4780   18.4337 N.pl3     1 RES1    0.0000
     34 C1         2.7744    7.1395   16.8600 C.ar      1 RES1    0.0000
     35 C2         3.4950    9.1192   16.2098 C.ar      1 RES1    0.0000
     36 C3         1.4423    8.8930   16.9934 C.ar      1 RES1    0.0000
     37 C4         2.1051    5.0086   17.6747 C.3       1 RES1    0.0000
     38 H1         1.2305    5.4712   17.7135 H         1 RES1    0.0000
     39 H2         2.3737    4.7603   18.5925 H         1 RES1    0.0000
     40 C5         2.0156    3.7688   16.7887 C.3       1 RES1    0.0000
     41 C6         5.7366    9.3198   15.5708 C.3       1 RES1    0.0000
     42 H3         5.6318    8.4185   15.1755 H         1 RES1    0.0000
     43 H4         6.2072    9.2331   16.4392 H         1 RES1    0.0000
     44 C7         6.5162   10.2229   14.6354 C.3       1 RES1    0.0000
     45 C8        -0.0251   10.7331   17.2229 C.3       1 RES1    0.0000
     46 H5        -0.6311   10.9287   16.4639 H         1 RES1    0.0000
     47 H6         0.8244   11.2263   17.0887 H         1 RES1    0.0000
     48 C9        -0.6780   11.1226   18.5607 C.3       1 RES1    0.0000
     49 O22        4.2714    0.2891   10.1780 O.3       2 RES2    0.0000
     50 O23        5.4910    2.3997   12.3974 O.2       2 RES2    0.0000
     51 O24        3.7407    1.1293   12.7694 O.2       2 RES2    0.0000
     52 O25        7.0894    0.7993   10.3824 O.2       2 RES2    0.0000
     53 O26        7.9586    0.4932   12.3197 O.2       2 RES2    0.0000
     54 O27        5.8185   -0.1207   14.3660 O.2       2 RES2    0.0000
     55 O28        6.1515   -1.8878   13.1221 O.2       2 RES2    0.0000
     56 O29        3.7898    2.6276    6.3840 O.3       2 RES2    0.0000
     57 O30        4.3991    5.7892    4.8573 O.2       2 RES2    0.0000
     58 O31        5.1634    5.1072    6.7772 O.2       2 RES2    0.0000
     59 O32        2.1269    3.7892    4.4693 O.2       2 RES2    0.0000
     60 O33        1.3233    5.7178    4.9314 O.2       2 RES2    0.0000
     61 O34        2.8705    7.0239    7.1966 O.2       2 RES2    0.0000
     62 O35        1.3648    5.6293    7.9030 O.2       2 RES2    0.0000
     63 O36        6.1898   -1.2007    6.3222 O.3       2 RES2    0.0000
     64 O37        8.2566   -3.0017    5.4860 O.2       2 RES2    0.0000
     65 O38        6.6134   -4.4218    5.4122 O.2       2 RES2    0.0000
     66 O39        4.1829   -2.6854    4.8855 O.2       2 RES2    0.0000
     67 O40        4.8642   -3.6497    3.0732 O.2       2 RES2    0.0000
     68 O41        7.8887   -3.1310    2.6366 O.2       2 RES2    0.0000
     69 O42        6.5981   -1.4337    2.1981 O.2       2 RES2    0.0000
     70 N13        4.0060    1.4456    8.3100 N.ar      2 RES2    0.0000
     71 N14        5.0378    0.7687    6.2852 N.ar      2 RES2    0.0000
     72 N15        5.3108   -0.5323    8.2754 N.ar      2 RES2    0.0000
     73 N16        4.8828    1.3555   12.4574 N.pl3     2 RES2    0.0000
     74 N17        7.0359    0.5289   11.5537 N.pl3     2 RES2    0.0000
     75 N18        5.8873   -0.7262   13.3152 N.pl3     2 RES2    0.0000
     76 N19        4.2823    5.2841    5.9869 N.pl3     2 RES2    0.0000
     77 N20        2.0374    4.7722    5.1552 N.pl3     2 RES2    0.0000
     78 N21        2.3420    5.9252    7.2517 N.pl3     2 RES2    0.0000
     79 N22        7.1582   -3.3640    5.1294 N.pl3     2 RES2    0.0000
     80 N23        5.0073   -2.9507    4.0433 N.pl3     2 RES2    0.0000
     81 N24        7.0283   -2.3181    2.9020 N.pl3     2 RES2    0.0000
     82 C10        4.5694    0.3878    8.8744 C.ar      2 RES2    0.0000
     83 C11        4.2812    1.5902    7.0600 C.ar      2 RES2    0.0000
     84 C12        5.4800   -0.2704    6.9739 C.ar      2 RES2    0.0000
     85 C13        4.8850   -0.6871   10.9995 C.3       2 RES2    0.0000
     86 H7         5.4931   -1.2585   10.4665 H         2 RES2    0.0000
     87 H8         4.2004   -1.2619   11.4266 H         2 RES2    0.0000
     88 C14        5.6657    0.0884   12.0585 C.3       2 RES2    0.0000
     89 C15        2.9677    3.5085    7.1765 C.3       2 RES2    0.0000
     90 H9         3.3695    3.6514    8.0696 H         2 RES2    0.0000
     91 H10        2.0603    3.1293    7.2895 H         2 RES2    0.0000
     92 C16        2.9098    4.8028    6.3999 C.3       2 RES2    0.0000
     93 C17        6.4070   -0.9898    4.9138 C.3       2 RES2    0.0000
     94 H11        7.2762   -0.5425    4.7584 H         2 RES2    0.0000
     95 H12        5.6875   -0.4286    4.5290 H         2 RES2    0.0000
     96 C18        6.3972   -2.3946    4.2819 C.3       2 RES2    0.0000
     97 O43        7.6889    8.7586    5.1771 O.3       3 RES3    0.0000
     98 O44        6.5042   10.8675    3.0012 O.2       3 RES3    0.0000
     99 O45        8.0732    9.5137    2.3467 O.2       3 RES3    0.0000
    100 O46        4.8762    9.2892    5.0603 O.2       3 RES3    0.0000
    101 O47        3.9864    9.1736    3.0923 O.2       3 RES3    0.0000
    102 O48        5.9026    8.1957    1.0325 O.2       3 RES3    0.0000
    103 O49        5.8349    6.4933    2.3969 O.2       3 RES3    0.0000
    104 O50        8.1464   11.1056    8.9955 O.3       3 RES3    0.0000
    105 O51        7.5644   14.2570   10.5791 O.2       3 RES3    0.0000
    106 O52        6.7979   13.6379    8.6298 O.2       3 RES3    0.0000
    107 O53        9.5974   12.2518   11.0517 O.2       3 RES3    0.0000
    108 O54       10.8203   13.9100   10.4220 O.2       3 RES3    0.0000
    109 O55        9.2055   15.5172    8.3979 O.2       3 RES3    0.0000
    110 O56       10.5616   14.0767    7.5055 O.2       3 RES3    0.0000
    111 O57        5.7181    7.2756    8.9747 O.3       3 RES3    0.0000
    112 O58        3.6435    5.4729    9.8695 O.2       3 RES3    0.0000
    113 O59        5.3064    4.0562    9.9627 O.2       3 RES3    0.0000
    114 O60        7.7249    5.8317   10.4107 O.2       3 RES3    0.0000
    115 O61        7.0851    4.9235   12.2971 O.2       3 RES3    0.0000
    116 O62        4.0453    5.3861   12.7281 O.2       3 RES3    0.0000
    117 O63        5.2606    7.1940   13.0688 O.2       3 RES3    0.0000
    118 N25        7.9455    9.9508    7.0222 N.ar      3 RES3    0.0000
    119 N26        6.8951    9.2382    9.0255 N.ar      3 RES3    0.0000
    120 N27        6.6396    7.9457    7.0522 N.ar      3 RES3    0.0000
    121 N28        7.0086    9.7586    2.8293 N.pl3     3 RES3    0.0000
    122 N29        4.9068    9.0409    3.8932 N.pl3     3 RES3    0.0000
    123 N30        5.8775    7.7093    2.1445 N.pl3     3 RES3    0.0000
    124 N31        7.6572   13.7570    9.4922 N.pl3     3 RES3    0.0000
    125 N32        9.8988   13.1413   10.3200 N.pl3     3 RES3    0.0000
    126 N33        9.6346   14.4066    8.2161 N.pl3     3 RES3    0.0000
    127 N34        4.7605    5.0953   10.2430 N.pl3     3 RES3    0.0000
    128 N35        6.9115    5.5681   11.2819 N.pl3     3 RES3    0.0000
    129 N36        4.8577    6.2314   12.4108 N.pl3     3 RES3    0.0000
    130 C19        7.3788    8.8692    6.4528 C.ar      3 RES3    0.0000
    131 C20        7.6485   10.0596    8.2955 C.ar      3 RES3    0.0000
    132 C21        6.4529    8.2076    8.3449 C.ar      3 RES3    0.0000
    133 C22        7.0490    7.7909    4.3454 C.3       3 RES3    0.0000
    134 H13        6.4649    7.2025    4.8855 H         3 RES3    0.0000
    135 H14        7.7238    7.2297    3.8865 H         3 RES3    0.0000
    136 C23        6.2269    8.5664    3.3288 C.3       3 RES3    0.0000
    137 C24        8.9576   12.0086    8.2320 C.3       3 RES3    0.0000
    138 H15        8.5427   12.1872    7.3495 H         3 RES3    0.0000
    139 H16        9.8595   11.6294    8.0872 H         3 RES3    0.0000
    140 C25        9.0417   13.2961    9.0545 C.3       3 RES3    0.0000
    141 C26        5.4964    7.4746   10.3782 C.3       3 RES3    0.0000
    142 H17        4.6197    7.9117   10.5265 H         3 RES3    0.0000
    143 H18        6.2018    8.0596   10.7559 H         3 RES3    0.0000
    144 C27        5.5248    6.1191   11.0666 C.3       3 RES3    0.0000
    145 O64        5.2912    6.6242    2.4781 Du        4 SUP4    0.0000
@<TRIPOS>BOND
     1    1   34 1
     2    2   25 2
     3    3   25 2
     4    4   26 2
     5    5   26 2
     6    6   27 2
     7    7   27 2
     8    8   35 1
     9    9   28 2
    10   10   28 2
    11   11   29 2
    12   12   29 2
    13   13   30 2
    14   14   30 2
    15   15   36 1
    16   16   31 2
    17   17   31 2
    18   18   32 2
    19   19   32 2
    20   20   33 2
    21   21   33 2
    22   22   34 ar
    23   23   35 ar
    24   24   34 ar
    25   25   40 1
    26   26   40 1
    27   27   40 1
    28   28   44 1
    29   29   44 1
    30   30   44 1
    31   31   48 1
    32   32   48 1
    33   33   48 1
    34   35   22 ar
    35   36   23 ar
    36   37    1 1
    37   38   37 1
    38   39   37 1
    39   40   37 1
    40   41    8 1
    41   42   41 1
    42   43   41 1
    43   44   41 1
    44   45   15 1
    45   46   45 1
    46   47   45 1
    47   48   45 1
    48   49   82 1
    49   50   73 2
    50   51   73 2
    51   52   74 2
    52   53   74 2
    53   54   75 2
    54   55   75 2
    55   56   83 1
    56   57   76 2
    57   58   76 2
    58   59   77 2
    59   60   77 2
    60   61   78 2
    61   62   78 2
    62   63   84 1
    63   64   79 2
    64   65   79 2
    65   66   80 2
    66   67   80 2
    67   68   81 2
    68   69   81 2
    69   70   82 ar
    70   71   83 ar
    71   72   82 ar
    72   73   88 1
    73   74   88 1
    74   75   88 1
    75   76   92 1
    76   77   92 1
    77   78   92 1
    78   79   96 1
    79   80   96 1
    80   81   96 1
    81   83   70 ar
    82   84   71 ar
    83   85   49 1
    84   86   85 1
    85   87   85 1
    86   88   85 1
    87   89   56 1
    88   90   89 1
    89   91   89 1
    90   92   89 1
    91   93   63 1
    92   94   93 1
    93   95   93 1
    94   96   93 1
    95   97  130 1
    96   98  121 2
    97   99  121 2
    98  100  122 2
    99  101  122 2
   100  102  123 2
   101  103  123 2
   102  104  131 1
   103  105  124 2
   104  106  124 2
   105  107  125 2
   106  108  125 2
   107  109  126 2
   108  110  126 2
   109  111  132 1
   110  112  127 2
   111  113  127 2
   112  114  128 2
   113  115  128 2
   114  116  129 2
   115  117  129 2
   116  118  130 ar
   117  119  131 ar
   118  120  130 ar
   119  121  136 1
   120  122  136 1
   121  123  136 1
   122  124  140 1
   123  125  140 1
   124  126  140 1
   125  127  144 1
   126  128  144 1
   127  129  144 1
   128  131  118 ar
   129  132  119 ar
   130  133   97 1
   131  134  133 1
   132  135  133 1
   133  136  133 1
   134  137  104 1
   135  138  137 1
   136  139  137 1
   137  140  137 1
   138  141  111 1
   139  142  141 1
   140  143  141 1
   141  144  141 1
   142   24   36 ar
   143   72   84 ar
   144  120  132 ar
@<TRIPOS>SUBSTRUCTURE
     1 RES1 1
     2 RES2 49
     3 RES3 97
     4 SUP4 145

@<TRIPOS>CRYSIN
  10.9186   17.0070   35.3000  90.0000  90.0000  90.0000  33 1

