# MOL2 file generated by ConQuest
# Please check atom types

@<TRIPOS>MOLECULE
OKIRUX
    24    24     1
SMALL
NO_CHARGES
****
Generated from CSD

@<TRIPOS>ATOM
      1 O1         3.7623    0.4106    3.5655 O.3       1 RES1    0.0000
      2 O2         1.8156    1.1307    5.7563 O.2       1 RES1    0.0000
      3 O3         2.9676   -0.5871    6.4321 O.2       1 RES1    0.0000
      4 O4         1.0450    0.5042    2.6591 O.2       1 RES1    0.0000
      5 O5        -0.3031   -0.1150    4.2499 O.2       1 RES1    0.0000
      6 O6         0.8246   -2.2734    5.8321 O.2       1 RES1    0.0000
      7 O7         1.6658   -3.0323    3.9707 O.2       1 RES1    0.0000
      8 O8         6.2169    3.6662    1.7045 O.2       1 RES1    0.0000
      9 O9         5.1041    0.0328   -0.7812 O.2       1 RES1    0.0000
     10 N1         4.8972    2.0487    2.5941 N.am      1 RES1    0.0000
     11 H1         4.9105    2.4272    3.3583 H         1 RES1    0.0000
     12 N2         5.6448    1.8568    0.4335 N.am      1 RES1    0.0000
     13 H2         6.1119    2.1464   -0.2332 H         1 RES1    0.0000
     14 N3         4.3975    0.0863    1.3839 N.2       1 RES1    0.0000
     15 N4         2.2345   -0.0027    5.6624 N.pl3     1 RES1    0.0000
     16 N5         0.7744   -0.0669    3.6974 N.pl3     1 RES1    0.0000
     17 N6         1.4224   -2.1644    4.7881 N.pl3     1 RES1    0.0000
     18 C1         4.3593    0.8211    2.4430 C.2       1 RES1    0.0000
     19 C2         5.6317    2.6031    1.5770 C.2       1 RES1    0.0000
     20 C3         5.0421    0.6192    0.2972 C.2       1 RES1    0.0000
     21 C4         3.1673   -0.9013    3.5471 C.3       1 RES1    0.0000
     22 H3         3.7878   -1.5720    3.9285 H         1 RES1    0.0000
     23 H4         2.9379   -1.1681    2.6213 H         1 RES1    0.0000
     24 C5         1.9208   -0.7823    4.3941 C.3       1 RES1    0.0000
@<TRIPOS>BOND
     1    1   18 1
     2    2   15 2
     3    3   15 2
     4    4   16 2
     5    5   16 2
     6    6   17 2
     7    7   17 2
     8    8   19 2
     9    9   20 2
    10   10   11 1
    11   12   13 1
    12   14   18 2
    13   15   24 1
    14   16   24 1
    15   17   24 1
    16   18   10 1
    17   19   10 1
    18   20   12 1
    19   21    1 1
    20   22   21 1
    21   23   21 1
    22   24   21 1
    23   12   19 1
    24   14   20 1
@<TRIPOS>SUBSTRUCTURE
     1 RES1 1

@<TRIPOS>CRYSIN
  13.2903    6.6865   11.6787  90.0000  93.1750  90.0000  14 1

