# MOL2 file generated by ConQuest
# Please check atom types

@<TRIPOS>MOLECULE
OKOKAC
    35    37     1
SMALL
NO_CHARGES
****
Generated from CSD

@<TRIPOS>ATOM
      1 O1         7.2828    6.4354    2.7978 O.3       1 RES1    0.0000
      2 O2         7.3815    6.2285    4.2461 O.3       1 RES1    0.0000
      3 H1         8.2497    6.1737    4.2584 H         1 RES1    0.0000
      4 O3         4.4872    6.7274    2.5544 O.3       1 RES1    0.0000
      5 N1         3.6014    6.1506    3.4155 N.pl3     1 RES1    0.0000
      6 N2         2.3631    6.6500    3.5577 N.2       1 RES1    0.0000
      7 N3         1.7139    5.8492    4.3688 N.2       1 RES1    0.0000
      8 C1         6.6721    7.7264    2.5796 C.3       1 RES1    0.0000
      9 C2         5.2794    7.7745    3.2200 C.3       1 RES1    0.0000
     10 H2         5.3549    7.5646    4.1943 H         1 RES1    0.0000
     11 C3         4.5853    9.1129    3.0451 C.3       1 RES1    0.0000
     12 H3         3.7244    9.1044    3.5349 H         1 RES1    0.0000
     13 H4         4.3908    9.2591    2.0857 H         1 RES1    0.0000
     14 C4         5.4587   10.2600    3.5698 C.3       1 RES1    0.0000
     15 H5         5.0165   11.1257    3.3839 H         1 RES1    0.0000
     16 H6         5.5657   10.1729    4.5506 H         1 RES1    0.0000
     17 C5         6.8306   10.2342    2.9023 C.3       1 RES1    0.0000
     18 H7         7.3921   10.9623    3.2709 H         1 RES1    0.0000
     19 H8         6.7292   10.3868    1.9293 H         1 RES1    0.0000
     20 C6         7.5171    8.8868    3.1407 C.3       1 RES1    0.0000
     21 H9         7.6539    8.7545    4.1117 H         1 RES1    0.0000
     22 H10        8.4053    8.8890    2.7039 H         1 RES1    0.0000
     23 C7         6.6127    7.7953    1.1052 C.1       1 RES1    0.0000
     24 C8         6.6172    7.8374   -0.0796 C.1       1 RES1    0.0000
     25 H11        6.6204    7.8711   -1.0288 H         1 RES1    0.0000
     26 C9         3.7860    4.9933    4.1056 C.ar      1 RES1    0.0000
     27 C10        2.5521    4.8116    4.7332 C.ar      1 RES1    0.0000
     28 C11        2.3460    3.6834    5.5493 C.ar      1 RES1    0.0000
     29 H12        1.5203    3.5423    5.9976 H         1 RES1    0.0000
     30 C12        3.3840    2.7984    5.6710 C.ar      1 RES1    0.0000
     31 H13        3.2694    2.0256    6.2116 H         1 RES1    0.0000
     32 C13        4.6218    3.0018    5.0146 C.ar      1 RES1    0.0000
     33 H14        5.3120    2.3581    5.1253 H         1 RES1    0.0000
     34 C14        4.8578    4.1030    4.2197 C.ar      1 RES1    0.0000
     35 H15        5.6884    4.2464    3.7815 H         1 RES1    0.0000
@<TRIPOS>BOND
     1    1    2 1
     2    2    3 1
     3    4    5 1
     4    5    6 1
     5    6    7 2
     6    7   27 1
     7    8    1 1
     8    9    4 1
     9   10    9 1
    10   11    9 1
    11   12   11 1
    12   13   11 1
    13   14   11 1
    14   15   14 1
    15   16   14 1
    16   17   14 1
    17   18   17 1
    18   19   17 1
    19   20    8 1
    20   21   20 1
    21   22   20 1
    22   23    8 1
    23   24   23 3
    24   25   24 1
    25   26    5 1
    26   27   26 ar
    27   28   27 ar
    28   29   28 1
    29   30   28 ar
    30   31   30 1
    31   32   30 ar
    32   33   32 1
    33   34   26 ar
    34   35   34 1
    35    8    9 1
    36   17   20 1
    37   32   34 ar
@<TRIPOS>SUBSTRUCTURE
     1 RES1 1

@<TRIPOS>CRYSIN
   8.3949   14.4583   11.5551  90.0000 109.9270  90.0000  14 1

