# MOL2 file generated by ConQuest
# Please check atom types

@<TRIPOS>MOLECULE
OKOSOX
    48    51     1
SMALL
NO_CHARGES
****
Generated from CSD

@<TRIPOS>ATOM
      1 C1         8.4217    4.7234    1.4463 C.3       1 RES1    0.0000
      2 H1         7.6231    5.1239    1.0441 H         1 RES1    0.0000
      3 C2         8.4843    5.5322    3.6739 C.3       1 RES1    0.0000
      4 H2         9.0404    5.2571    4.4326 H         1 RES1    0.0000
      5 C3         9.3307    6.3938    2.6991 C.3       1 RES1    0.0000
      6 H3         8.8772    7.2291    2.5086 H         1 RES1    0.0000
      7 H4        10.1938    6.5956    3.0932 H         1 RES1    0.0000
      8 C4         8.6221    3.1088    3.1395 C.2       1 RES1    0.0000
      9 C5         8.9212    2.3383    1.8102 C.3       1 RES1    0.0000
     10 C6         8.8283    3.4542    0.7339 C.3       1 RES1    0.0000
     11 H5         9.6856    3.5729    0.2974 H         1 RES1    0.0000
     12 H6         8.1685    3.2194    0.0615 H         1 RES1    0.0000
     13 C7        10.3678    1.8467    1.9929 C.2       1 RES1    0.0000
     14 C8        11.6620   -0.0304    2.6243 C.3       1 RES1    0.0000
     15 H7        11.9239   -0.4024    1.7784 H         1 RES1    0.0000
     16 H8        11.6092   -0.7304    3.2778 H         1 RES1    0.0000
     17 H9        12.3110    0.6198    2.9024 H         1 RES1    0.0000
     18 C9         7.9643    1.1867    1.5751 C.ar      1 RES1    0.0000
     19 C10        7.9828    0.3672    0.4320 C.ar      1 RES1    0.0000
     20 C11        7.1246   -0.6942    0.2427 C.ar      1 RES1    0.0000
     21 H10        7.1970   -1.2386   -0.5087 H         1 RES1    0.0000
     22 C12        6.1677   -0.9253    1.1882 C.ar      1 RES1    0.0000
     23 C13        6.0465   -0.1283    2.2998 C.ar      1 RES1    0.0000
     24 H11        5.3672   -0.2771    2.9168 H         1 RES1    0.0000
     25 C14        6.9516    0.8979    2.4850 C.ar      1 RES1    0.0000
     26 H12        6.8812    1.4188    3.2532 H         1 RES1    0.0000
     27 C15        7.2634    6.2470    4.1817 C.ar      1 RES1    0.0000
     28 C16        5.9879    5.8974    3.8131 C.ar      1 RES1    0.0000
     29 H13        5.8579    5.1963    3.2163 H         1 RES1    0.0000
     30 C17        4.8902    6.5779    4.3202 C.ar      1 RES1    0.0000
     31 H14        4.0320    6.3312    4.0613 H         1 RES1    0.0000
     32 C18        5.0681    7.6119    5.2018 C.ar      1 RES1    0.0000
     33 H15        4.3321    8.0653    5.5443 H         1 RES1    0.0000
     34 C19        6.3397    7.9732    5.5753 C.ar      1 RES1    0.0000
     35 H16        6.4619    8.6762    6.1720 H         1 RES1    0.0000
     36 C20        7.4394    7.3045    5.0746 C.ar      1 RES1    0.0000
     37 H17        8.2956    7.5590    5.3331 H         1 RES1    0.0000
     38 N1         8.1998    4.3642    2.8267 N.am      1 RES1    0.0000
     39 N2         8.9427    0.5822   -0.6765 N.pl3     1 RES1    0.0000
     40 N3         5.2294   -2.0249    0.9782 N.pl3     1 RES1    0.0000
     41 O1         9.4979    5.6575    1.5261 O.3       1 RES1    0.0000
     42 O2         8.7667    2.6720    4.2572 O.2       1 RES1    0.0000
     43 O3        11.3396    2.5050    1.7620 O.2       1 RES1    0.0000
     44 O4        10.3701    0.6042    2.4922 O.3       1 RES1    0.0000
     45 O5        10.0062    1.1313   -0.4453 O.2       1 RES1    0.0000
     46 O6         8.6123    0.1761   -1.7771 O.2       1 RES1    0.0000
     47 O7         5.6018   -2.9786    0.3075 O.2       1 RES1    0.0000
     48 O8         4.1190   -1.9307    1.4820 O.2       1 RES1    0.0000
@<TRIPOS>BOND
     1    1    2 1
     2    3    4 1
     3    5    3 1
     4    6    5 1
     5    7    5 1
     6    8    9 1
     7    9   10 1
     8   10    1 1
     9   11   10 1
    10   12   10 1
    11   13    9 1
    12   14   15 1
    13   16   14 1
    14   17   14 1
    15   18    9 1
    16   19   18 ar
    17   20   19 ar
    18   21   20 1
    19   22   20 ar
    20   23   22 ar
    21   24   23 1
    22   25   18 ar
    23   26   25 1
    24   27    3 1
    25   28   27 ar
    26   29   28 1
    27   30   28 ar
    28   31   30 1
    29   32   30 ar
    30   33   32 1
    31   34   32 ar
    32   35   34 1
    33   36   27 ar
    34   37   36 1
    35   38    1 1
    36   39   19 1
    37   40   22 1
    38   41    1 1
    39   42    8 2
    40   43   13 2
    41   44   13 1
    42   45   39 2
    43   46   39 2
    44   47   40 2
    45   48   40 2
    46    3   38 1
    47    5   41 1
    48    8   38 1
    49   14   44 1
    50   23   25 ar
    51   34   36 ar
@<TRIPOS>SUBSTRUCTURE
     1 RES1 1

@<TRIPOS>CRYSIN
   9.7745    9.7915   20.5118  90.0000  90.0000  90.0000  19 1

