# MOL2 file generated by ConQuest
# Please check atom types

@<TRIPOS>MOLECULE
OKUHIM
    53    54     1
SMALL
NO_CHARGES
****
Generated from CSD

@<TRIPOS>ATOM
      1 O1        -0.5319    3.8717    1.1611 O.2       1 RES1    0.0000
      2 N1         0.6593    3.4672    1.3365 N.pl3     1 RES1    0.0000
      3 N2         2.2980    2.1346    2.0848 N.2       1 RES1    0.0000
      4 C1         1.8785    4.2203    0.9234 C.3       1 RES1    0.0000
      5 C2         2.9179    3.0652    1.0888 C.3       1 RES1    0.0000
      6 C3         1.0428    2.3737    2.1192 C.2       1 RES1    0.0000
      7 C4         2.0520    5.3512    1.9387 C.3       1 RES1    0.0000
      8 H1         2.1258    4.9705    2.8695 H         1 RES1    0.0000
      9 H2         2.8393    5.8773    1.7061 H         1 RES1    0.0000
     10 H3         1.2601    5.9174    1.8731 H         1 RES1    0.0000
     11 C5         1.7072    4.7736   -0.4851 C.3       1 RES1    0.0000
     12 H4         1.3840    4.0880   -1.0934 H         1 RES1    0.0000
     13 H5         1.0770    5.5406   -0.4660 H         1 RES1    0.0000
     14 H6         2.5525    5.0969   -0.8057 H         1 RES1    0.0000
     15 C6         4.2825    3.5062    1.5917 C.3       1 RES1    0.0000
     16 H7         4.6797    4.1779    0.9806 H         1 RES1    0.0000
     17 H8         4.2044    3.9227    2.4813 H         1 RES1    0.0000
     18 H9         4.8816    2.6889    1.6328 H         1 RES1    0.0000
     19 C7         3.0854    2.2566   -0.1983 C.3       1 RES1    0.0000
     20 H10        2.2146    1.9522   -0.5303 H         1 RES1    0.0000
     21 H11        3.6578    1.4623   -0.0158 H         1 RES1    0.0000
     22 H12        3.5138    2.7958   -0.8959 H         1 RES1    0.0000
     23 C8         0.0000    1.5310    2.8210 C.3       1 RES1    0.0000
     24 C9        -0.6873    0.6469    1.7668 C.3       1 RES1    0.0000
     25 H13       -1.3746    0.0960    2.1857 H         1 RES1    0.0000
     26 H14       -1.0986    1.1973    1.0787 H         1 RES1    0.0000
     27 H15        0.0067    0.0705    1.3450 H         1 RES1    0.0000
     28 O1C        0.5319    3.8717    4.4808 O.2       1 RES1    0.0000
     29 N1C       -0.6593    3.4672    4.3055 N.pl3     1 RES1    0.0000
     30 N2C       -2.2980    2.1346    3.5571 N.2       1 RES1    0.0000
     31 C1C       -1.8785    4.2203    4.7186 C.3       1 RES1    0.0000
     32 C2C       -2.9179    3.0652    4.5532 C.3       1 RES1    0.0000
     33 C3C       -1.0428    2.3737    3.5227 C.2       1 RES1    0.0000
     34 C4C       -2.0520    5.3512    3.7033 C.3       1 RES1    0.0000
     35 H1C       -2.1258    4.9705    2.7725 H         1 RES1    0.0000
     36 H2C       -2.8393    5.8773    3.9358 H         1 RES1    0.0000
     37 H3C       -1.2601    5.9174    3.7688 H         1 RES1    0.0000
     38 C5C       -1.7072    4.7736    6.1270 C.3       1 RES1    0.0000
     39 H4C       -1.3840    4.0880    6.7354 H         1 RES1    0.0000
     40 H5C       -1.0770    5.5406    6.1080 H         1 RES1    0.0000
     41 H6C       -2.5525    5.0969    6.4476 H         1 RES1    0.0000
     42 C6C       -4.2825    3.5062    4.0502 C.3       1 RES1    0.0000
     43 H7C       -4.6797    4.1779    4.6614 H         1 RES1    0.0000
     44 H8C       -4.2044    3.9227    3.1606 H         1 RES1    0.0000
     45 H9C       -4.8816    2.6889    4.0092 H         1 RES1    0.0000
     46 C7C       -3.0854    2.2566    5.8402 C.3       1 RES1    0.0000
     47 H10C      -2.2146    1.9522    6.1723 H         1 RES1    0.0000
     48 H11C      -3.6578    1.4623    5.6577 H         1 RES1    0.0000
     49 H12C      -3.5138    2.7958    6.5379 H         1 RES1    0.0000
     50 C9C        0.6873    0.6469    3.8751 C.3       1 RES1    0.0000
     51 H13C       1.3746    0.0960    3.4563 H         1 RES1    0.0000
     52 H14C       1.0986    1.1973    4.5632 H         1 RES1    0.0000
     53 H15C      -0.0067    0.0705    4.2969 H         1 RES1    0.0000
@<TRIPOS>BOND
     1    1    2 1
     2    2    4 1
     3    3    5 1
     4    4    5 1
     5    5   15 1
     6    6    2 1
     7    7    4 1
     8    8    7 1
     9    9    7 1
    10   10    7 1
    11   11    4 1
    12   12   11 1
    13   13   11 1
    14   14   11 1
    15   15   16 1
    16   17   15 1
    17   18   15 1
    18   19    5 1
    19   20   19 1
    20   21   19 1
    21   22   19 1
    22   23    6 1
    23   24   23 1
    24   25   24 1
    25   26   24 1
    26   27   24 1
    27   28   29 1
    28   29   31 1
    29   30   32 1
    30   31   32 1
    31   32   42 1
    32   33   23 1
    33   34   31 1
    34   35   34 1
    35   36   34 1
    36   37   34 1
    37   38   31 1
    38   39   38 1
    39   40   38 1
    40   41   38 1
    41   42   43 1
    42   44   42 1
    43   45   42 1
    44   46   32 1
    45   47   46 1
    46   48   46 1
    47   49   46 1
    48   50   23 1
    49   51   50 1
    50   52   50 1
    51   53   50 1
    52    3    6 2
    53   29   33 1
    54   30   33 2
@<TRIPOS>SUBSTRUCTURE
     1 RES1 1

@<TRIPOS>CRYSIN
  13.4628   12.1558   11.2839  90.0000  90.0000  90.0000  60 1

