# MOL2 file generated by ConQuest
# Please check atom types

@<TRIPOS>MOLECULE
OKUTUK
    45    44     2
SMALL
NO_CHARGES
****
Generated from CSD

@<TRIPOS>ATOM
      1 O1         8.2847    6.9138    5.0888 O.2       1 RES1    0.0000
      2 C1         7.4981    6.8922    6.0429 C.2       1 RES1    0.0000
      3 C2         6.1008    7.2033    6.0022 C.2       1 RES1    0.0000
      4 H1         5.6327    7.0496    6.7906 H         1 RES1    0.0000
      5 N1         4.0188    7.9166    5.0786 N.3       1 RES1    0.0000
      6 C3         5.3603    7.6951    4.9628 C.2       1 RES1    0.0000
      7 C4         5.7918    8.1318    3.5560 C.3       1 RES1    0.0000
      8 C5         4.2292    9.2712    1.7864 C.ar      1 RES1    0.0000
      9 H2         4.8998    9.3751    1.1504 H         1 RES1    0.0000
     10 C6         2.9365    9.7021    1.5246 C.ar      1 RES1    0.0000
     11 H3         2.7372   10.0890    0.7023 H         1 RES1    0.0000
     12 C7         1.9482    9.5629    2.4694 C.ar      1 RES1    0.0000
     13 H4         1.0907    9.8680    2.2793 H         1 RES1    0.0000
     14 C8         2.2023    8.9771    3.7004 C.ar      1 RES1    0.0000
     15 H5         1.5334    8.8800    4.3389 H         1 RES1    0.0000
     16 C9         3.4915    8.5460    3.9351 C.ar      1 RES1    0.0000
     17 C10        4.5008    8.6880    3.0024 C.ar      1 RES1    0.0000
     18 C11        3.2207    7.5887    6.2485 C.3       1 RES1    0.0000
     19 H6         3.3514    6.6658    6.4772 H         1 RES1    0.0000
     20 H7         2.2931    7.7428    6.0560 H         1 RES1    0.0000
     21 H8         3.4902    8.1428    6.9856 H         1 RES1    0.0000
     22 C12        6.8583    9.2314    3.6061 C.3       1 RES1    0.0000
     23 H9         6.5337    9.9685    4.1289 H         1 RES1    0.0000
     24 H10        7.0503    9.5312    2.7145 H         1 RES1    0.0000
     25 H11        7.6584    8.8831    4.0061 H         1 RES1    0.0000
     26 C13        6.2507    6.9281    2.7165 C.3       1 RES1    0.0000
     27 H12        5.5434    6.2799    2.6725 H         1 RES1    0.0000
     28 H13        7.0237    6.5300    3.1228 H         1 RES1    0.0000
     29 H14        6.4706    7.2213    1.8291 H         1 RES1    0.0000
     30 C14        8.0522    6.4635    7.3786 C.ar      1 RES1    0.0000
     31 C15        9.0783    5.5292    7.4001 C.ar      1 RES1    0.0000
     32 H15        9.4103    5.1947    6.5989 H         1 RES1    0.0000
     33 C16        9.6102    5.0907    8.5900 C.ar      1 RES1    0.0000
     34 H16       10.2858    4.4521    8.6025 H         1 RES1    0.0000
     35 C17        9.1218    5.6177    9.7593 C.ar      1 RES1    0.0000
     36 N2         9.6555    5.1617   11.0488 N.pl3     1 RES1    0.0000
     37 O2         9.2800    5.7647   12.0517 O.2       1 RES1    0.0000
     38 O3        10.4312    4.2019   11.0133 O.2       1 RES1    0.0000
     39 C18        8.1421    6.5688    9.7758 C.ar      1 RES1    0.0000
     40 H17        7.8473    6.9311   10.5802 H         1 RES1    0.0000
     41 C19        7.5985    6.9830    8.5811 C.ar      1 RES1    0.0000
     42 H18        6.9200    7.6191    8.5809 H         1 RES1    0.0000
     43 N3         9.6675    5.1092   11.0230 Du        2 SUP2    0.0000
     44 O4         8.9771    5.1674   12.0452 Du        2 SUP2    0.0000
     45 O5        10.7976    4.6377   11.0197 Du        2 SUP2    0.0000
@<TRIPOS>BOND
     1    1    2 2
     2    2    3 1
     3    3    4 1
     4    5    6 1
     5    6    3 2
     6    7    6 1
     7    8    9 1
     8   10    8 ar
     9   11   10 1
    10   12   10 ar
    11   13   12 1
    12   14   12 ar
    13   15   14 1
    14   16    5 1
    15   17    7 1
    16   18    5 1
    17   19   18 1
    18   20   18 1
    19   21   18 1
    20   22    7 1
    21   23   22 1
    22   24   22 1
    23   25   22 1
    24   26    7 1
    25   27   26 1
    26   28   26 1
    27   29   26 1
    28   30    2 1
    29   31   30 ar
    30   32   31 1
    31   33   31 ar
    32   34   33 1
    33   35   33 ar
    34   36   35 1
    35   37   36 2
    36   38   36 2
    37   39   35 ar
    38   40   39 1
    39   41   30 ar
    40   42   41 1
    41    8   17 ar
    42   14   16 ar
    43   16   17 ar
    44   39   41 ar
@<TRIPOS>SUBSTRUCTURE
     1 RES1 1
     2 SUP2 43

@<TRIPOS>CRYSIN
   8.5784    9.0870   11.1379  79.9260  78.8480  86.9900   2 1

