# MOL2 file generated by ConQuest
# Please check atom types

@<TRIPOS>MOLECULE
OKUTOE
    44    46     1
SMALL
NO_CHARGES
****
Generated from CSD

@<TRIPOS>ATOM
      1 O1         1.0928    3.8857    4.9726 O.2       1 RES1    0.0000
      2 C1         1.1799    2.7201    5.3949 C.2       1 RES1    0.0000
      3 C2         1.2587    1.5308    4.6161 C.2       1 RES1    0.0000
      4 H1         1.2346    0.7126    5.0974 H         1 RES1    0.0000
      5 N1         1.4794    0.2329    2.6166 N.3       1 RES1    0.0000
      6 C3         1.3653    1.4267    3.2447 C.2       1 RES1    0.0000
      7 C4         1.4142    2.5396    2.1825 C.3       1 RES1    0.0000
      8 C5         1.6842    2.1458   -0.4006 C.ar      1 RES1    0.0000
      9 H2         1.6611    3.0710   -0.6162 H         1 RES1    0.0000
     10 C6         1.8280    1.1891   -1.4061 C.ar      1 RES1    0.0000
     11 H3         1.9054    1.4598   -2.3128 H         1 RES1    0.0000
     12 C7         1.8596   -0.1629   -1.0760 C.ar      1 RES1    0.0000
     13 H4         1.9622   -0.8056   -1.7673 H         1 RES1    0.0000
     14 C8         1.7428   -0.5977    0.2425 C.ar      1 RES1    0.0000
     15 H5         1.7573   -1.5210    0.4656 H         1 RES1    0.0000
     16 C9         1.6048    0.3846    1.2165 C.ar      1 RES1    0.0000
     17 C10        1.5749    1.7309    0.9070 C.ar      1 RES1    0.0000
     18 C11        1.4774   -1.0615    3.2840 C.3       1 RES1    0.0000
     19 H6         0.6557   -1.1571    3.8080 H         1 RES1    0.0000
     20 H7         2.2540   -1.1232    3.8787 H         1 RES1    0.0000
     21 H8         1.5227   -1.7745    2.6140 H         1 RES1    0.0000
     22 C12        2.6423    3.4495    2.3798 C.3       1 RES1    0.0000
     23 H9         2.6868    4.1016    1.6489 H         1 RES1    0.0000
     24 H10        3.4568    2.9041    2.3804 H         1 RES1    0.0000
     25 H11        2.5650    3.9218    3.2348 H         1 RES1    0.0000
     26 C13        0.1089    3.3480    2.1333 C.3       1 RES1    0.0000
     27 H12       -0.6453    2.7425    1.9747 H         1 RES1    0.0000
     28 H13        0.1578    4.0047    1.4077 H         1 RES1    0.0000
     29 H14       -0.0203    3.8136    2.9859 H         1 RES1    0.0000
     30 C14        1.2306    2.5713    6.9118 C.ar      1 RES1    0.0000
     31 C15        0.9697    1.3836    7.5929 C.ar      1 RES1    0.0000
     32 H15        0.7682    0.5883    7.1136 H         1 RES1    0.0000
     33 C16        1.0080    1.3797    8.9770 C.ar      1 RES1    0.0000
     34 C17        1.3022    2.5026    9.7310 C.ar      1 RES1    0.0000
     35 H16        1.3247    2.4783   10.6804 H         1 RES1    0.0000
     36 C18        1.5602    3.6607    9.0242 C.ar      1 RES1    0.0000
     37 C19        1.5293    3.7232    7.6461 C.ar      1 RES1    0.0000
     38 H17        1.7089    4.5428    7.1996 H         1 RES1    0.0000
     39 N2         0.6996    0.1292    9.7016 N.pl3     1 RES1    0.0000
     40 O2         0.1785   -0.7811    9.0712 O.2       1 RES1    0.0000
     41 O3         0.9798    0.0837   10.8904 O.2       1 RES1    0.0000
     42 N3         1.8897    4.8796    9.7901 N.pl3     1 RES1    0.0000
     43 O4         1.6357    4.8918   10.9856 O.2       1 RES1    0.0000
     44 O5         2.4229    5.8038    9.1842 O.2       1 RES1    0.0000
@<TRIPOS>BOND
     1    1    2 2
     2    2    3 1
     3    3    4 1
     4    5    6 1
     5    6    3 2
     6    7    6 1
     7    8    9 1
     8   10    8 ar
     9   11   10 1
    10   12   10 ar
    11   13   12 1
    12   14   12 ar
    13   15   14 1
    14   16    5 1
    15   17    7 1
    16   18    5 1
    17   19   18 1
    18   20   18 1
    19   21   18 1
    20   22    7 1
    21   23   22 1
    22   24   22 1
    23   25   22 1
    24   26    7 1
    25   27   26 1
    26   28   26 1
    27   29   26 1
    28   30    2 1
    29   31   30 ar
    30   32   31 1
    31   33   31 ar
    32   34   33 ar
    33   35   34 1
    34   36   34 ar
    35   37   30 ar
    36   38   37 1
    37   39   33 1
    38   40   39 2
    39   41   39 2
    40   42   36 1
    41   43   42 2
    42   44   42 2
    43    8   17 ar
    44   14   16 ar
    45   16   17 ar
    46   36   37 ar
@<TRIPOS>SUBSTRUCTURE
     1 RES1 1

@<TRIPOS>CRYSIN
   6.9082    7.8601   15.5780  99.2320  91.3610  93.4200   2 1

