# MOL2 file generated by ConQuest
# Please check atom types

@<TRIPOS>MOLECULE
OKUXUP
    18    18     1
SMALL
NO_CHARGES
****
Generated from CSD

@<TRIPOS>ATOM
      1 O1         0.6714    2.6679    0.8350 O.2       1 RES1    0.0000
      2 O2         3.0065    0.6585    3.4019 O.3       1 RES1    0.0000
      3 O3         1.4753    0.6756    0.5350 O.2       1 RES1    0.0000
      4 O4         0.1894    3.6641    3.6112 O.2       1 RES1    0.0000
      5 N1         2.7186    2.1921    1.6213 N.3       1 RES1    0.0000
      6 O5         0.5629    2.2150    5.1873 O.2       1 RES1    0.0000
      7 N2         0.9200    2.8984    4.2341 N.pl3     1 RES1    0.0000
      8 N3         2.2652    2.8658    3.8923 N.3       1 RES1    0.0000
      9 N4         1.5342    1.8130    0.9795 N.pl3     1 RES1    0.0000
     10 C1         2.6145    3.3218    2.5426 C.3       1 RES1    0.0000
     11 H1         1.9356    3.9374    2.2238 H         1 RES1    0.0000
     12 H2         3.4600    3.7960    2.5703 H         1 RES1    0.0000
     13 C2         3.0444    1.7160    4.3494 C.3       1 RES1    0.0000
     14 H3         3.9647    1.9876    4.4924 H         1 RES1    0.0000
     15 H4         2.6892    1.4032    5.1959 H         1 RES1    0.0000
     16 C3         3.5208    1.0948    2.1507 C.3       1 RES1    0.0000
     17 H5         3.5150    0.3568    1.5223 H         1 RES1    0.0000
     18 H6         4.4389    1.3877    2.2620 H         1 RES1    0.0000
@<TRIPOS>BOND
     1    1    9 2
     2    2   13 1
     3    3    9 2
     4    4    7 2
     5    5    9 1
     6    6    7 2
     7    7    8 1
     8    8   10 1
     9   10    5 1
    10   11   10 1
    11   12   10 1
    12   13    8 1
    13   14   13 1
    14   15   13 1
    15   16    2 1
    16   17   16 1
    17   18   16 1
    18    5   16 1
@<TRIPOS>SUBSTRUCTURE
     1 RES1 1

@<TRIPOS>CRYSIN
   5.8128   17.2389    7.1072  90.0000 112.0560  90.0000 231 1

