# MOL2 file generated by ConQuest
# Please check atom types

@<TRIPOS>MOLECULE
OKUXUN
    34    35     1
SMALL
NO_CHARGES
****
Generated from CSD

@<TRIPOS>ATOM
      1 O1         1.8701    1.4281    1.4946 O.2       1 RES1    0.0000
      2 N1         3.1536    1.5373    1.0871 N.pl3     1 RES1    0.0000
      3 C1         3.5722    1.0351   -0.2591 C.3       1 RES1    0.0000
      4 C2         2.9211   -0.2993   -0.5447 C.3       1 RES1    0.0000
      5 H1         3.1853   -0.9431    0.2000 H         1 RES1    0.0000
      6 H2         1.8948   -0.1522   -0.6190 H         1 RES1    0.0000
      7 H3         3.2526   -0.6354   -1.4094 H         1 RES1    0.0000
      8 C3         3.1171    2.0957   -1.2646 C.3       1 RES1    0.0000
      9 H4         3.6573    3.0511   -1.0570 H         1 RES1    0.0000
     10 H5         3.3330    1.7903   -2.1617 H         1 RES1    0.0000
     11 H6         2.1301    2.1559   -1.1999 H         1 RES1    0.0000
     12 C4         5.1088    1.0184   -0.0407 C.3       1 RES1    0.0000
     13 C5         5.9228    1.3133   -1.2989 C.3       1 RES1    0.0000
     14 H7         5.6739    2.2833   -1.6951 H         1 RES1    0.0000
     15 H8         5.7086    0.6221   -1.9522 H         1 RES1    0.0000
     16 H9         6.8833    1.2443   -1.0856 H         1 RES1    0.0000
     17 C6         5.6100   -0.2669    0.6104 C.3       1 RES1    0.0000
     18 H10        5.5064   -0.9696   -0.0571 H         1 RES1    0.0000
     19 H11        5.0625   -0.4831    1.3903 H         1 RES1    0.0000
     20 H12        6.6209   -0.1406    0.8190 H         1 RES1    0.0000
     21 N2         5.2399    2.1167    0.9400 N.pl3     1 RES1    0.0000
     22 H13        6.0623    2.3280    1.2665 H         1 RES1    0.0000
     23 C7         4.1105    2.2036    1.6662 C.2       1 RES1    0.0000
     24 C8         4.0256    2.9826    2.9042 C.ar      1 RES1    0.0000
     25 N3         5.2160    3.1474    3.5213 N.ar      1 RES1    0.0000
     26 C9         5.2560    3.8817    4.6240 C.ar      1 RES1    0.0000
     27 H14        6.1216    4.0174    5.0566 H         1 RES1    0.0000
     28 C10        4.1357    4.4845    5.1585 C.ar      1 RES1    0.0000
     29 H15        4.2653    4.9985    5.9708 H         1 RES1    0.0000
     30 C11        2.9373    4.3283    4.5434 C.ar      1 RES1    0.0000
     31 H16        2.1675    4.7239    4.8662 H         1 RES1    0.0000
     32 C12        2.8450    3.5817    3.3644 C.ar      1 RES1    0.0000
     33 O2         1.6889    3.4943    2.7250 O.3       1 RES1    0.0000
     34 H17        1.7304    2.5597    2.0950 H         1 RES1    0.0000
@<TRIPOS>BOND
     1    1    2 1
     2    2    3 1
     3    3    4 1
     4    4    5 1
     5    6    4 1
     6    7    4 1
     7    8    3 1
     8    9    8 1
     9   10    8 1
    10   11    8 1
    11   12    3 1
    12   13   12 1
    13   14   13 1
    14   15   13 1
    15   16   13 1
    16   17   12 1
    17   18   17 1
    18   19   17 1
    19   20   17 1
    20   21   12 1
    21   22   21 1
    22   23    2 2
    23   24   23 1
    24   25   24 ar
    25   26   25 ar
    26   27   26 1
    27   28   26 ar
    28   29   28 1
    29   30   28 ar
    30   31   30 1
    31   32   24 ar
    32   33   32 1
    33   34   33 1
    34   21   23 1
    35   30   32 ar
@<TRIPOS>SUBSTRUCTURE
     1 RES1 1

@<TRIPOS>CRYSIN
  16.3310   16.5460   11.3560  90.0000 123.0100  90.0000  15 1

