# MOL2 file generated by ConQuest
# Please check atom types

@<TRIPOS>MOLECULE
OKUXIC
    34    34     1
SMALL
NO_CHARGES
****
Generated from CSD

@<TRIPOS>ATOM
      1 O1         0.3233   11.9998    4.5375 O.3       1 RES1    0.0000
      2 O2         2.8533   12.0374    4.9275 O.3       1 RES1    0.0000
      3 O3        -2.8256   11.2096    2.9996 O.2       1 RES1    0.0000
      4 O4        -0.7595   10.3540    2.7552 O.3       1 RES1    0.0000
      5 O5         4.3155   14.0408    3.7810 O.2       1 RES1    0.0000
      6 O6         6.1901   13.1710    4.6504 O.3       1 RES1    0.0000
      7 O7         1.8981    7.1858    8.2501 O.2       1 RES1    0.0000
      8 O8         3.8454    7.8558    7.5667 O.2       1 RES1    0.0000
      9 N1         2.6176    7.9385    7.5901 N.pl3     1 RES1    0.0000
     10 C1         0.7970   10.9723    5.2964 C.ar      1 RES1    0.0000
     11 C2         2.1936   10.9931    5.5174 C.ar      1 RES1    0.0000
     12 C3         2.7846    9.9996    6.2638 C.ar      1 RES1    0.0000
     13 C4         1.9786    8.9954    6.7970 C.ar      1 RES1    0.0000
     14 C5         0.6158    8.9467    6.5938 C.ar      1 RES1    0.0000
     15 C6         0.0325    9.9498    5.8319 C.ar      1 RES1    0.0000
     16 C7        -1.0895   12.1066    4.3227 C.3       1 RES1    0.0000
     17 C8        -1.6585   11.1769    3.2930 C.2       1 RES1    0.0000
     18 C9        -1.2665    9.4544    1.7341 C.3       1 RES1    0.0000
     19 C10        4.2657   12.0517    5.1493 C.3       1 RES1    0.0000
     20 C11        4.8862   13.2122    4.4270 C.2       1 RES1    0.0000
     21 C12        7.0120   14.2029    4.0519 C.3       1 RES1    0.0000
     22 H1         3.7229    9.9983    6.4102 H         1 RES1    0.0000
     23 H2         0.0905    8.2471    6.9620 H         1 RES1    0.0000
     24 H3        -0.9046    9.9349    5.6731 H         1 RES1    0.0000
     25 H4        -1.2769   12.9964    4.0464 H         1 RES1    0.0000
     26 H5        -1.5251   11.9322    5.1462 H         1 RES1    0.0000
     27 H6        -1.3685    9.9290    0.9137 H         1 RES1    0.0000
     28 H7        -2.1096    9.1094    2.0026 H         1 RES1    0.0000
     29 H8        -0.6564    8.7380    1.6080 H         1 RES1    0.0000
     30 H9         4.6438   11.2424    4.8247 H         1 RES1    0.0000
     31 H10        4.4373   12.1327    6.0786 H         1 RES1    0.0000
     32 H11        7.8923   13.8705    3.9180 H         1 RES1    0.0000
     33 H12        7.0422   14.9584    4.6239 H         1 RES1    0.0000
     34 H13        6.6421   14.4572    3.2121 H         1 RES1    0.0000
@<TRIPOS>BOND
     1    1   10 1
     2    2   11 1
     3    3   17 2
     4    4   17 1
     5    5   20 2
     6    6   20 1
     7    7    9 2
     8    8    9 2
     9    9   13 1
    10   10   11 ar
    11   11   12 ar
    12   12   13 ar
    13   13   14 ar
    14   14   15 ar
    15   15   10 ar
    16   16    1 1
    17   17   16 1
    18   18    4 1
    19   19    2 1
    20   20   19 1
    21   21    6 1
    22   22   12 1
    23   23   14 1
    24   24   15 1
    25   25   16 1
    26   26   16 1
    27   27   18 1
    28   28   18 1
    29   29   18 1
    30   30   19 1
    31   31   19 1
    32   32   21 1
    33   33   21 1
    34   34   21 1
@<TRIPOS>SUBSTRUCTURE
     1 RES1 1

@<TRIPOS>CRYSIN
  11.5978   14.7402    7.7831  90.0000  90.0000  90.0000  29 1

