# MOL2 file generated by ConQuest
# Please check atom types

@<TRIPOS>MOLECULE
OKUYIC
    40    41     1
SMALL
NO_CHARGES
****
Generated from CSD

@<TRIPOS>ATOM
      1 O1         5.4724   -0.0743    1.5864 O.3       1 RES1    0.0000
      2 H1         6.1186    0.0524    1.0077 H         1 RES1    0.0000
      3 N1         4.3583   -0.4418    0.7508 N.3       1 RES1    0.0000
      4 C1         3.9828   -1.9109    0.9166 C.3       1 RES1    0.0000
      5 C2         5.1104   -2.7219    1.5296 C.3       1 RES1    0.0000
      6 H2         5.8795   -2.6933    1.0034 H         1 RES1    0.0000
      7 H3         4.8187   -3.6803    1.6578 H         1 RES1    0.0000
      8 H4         5.4210   -2.3522    2.3971 H         1 RES1    0.0000
      9 C3         3.7267   -2.4171   -0.4956 C.3       1 RES1    0.0000
     10 H5         4.5614   -2.3499   -0.9947 H         1 RES1    0.0000
     11 H6         3.0318   -1.8844   -0.9914 H         1 RES1    0.0000
     12 H7         3.4315   -3.3963   -0.4631 H         1 RES1    0.0000
     13 C4         2.7056   -1.8773    1.7945 C.3       1 RES1    0.0000
     14 C5         3.0159   -1.7801    3.2852 C.3       1 RES1    0.0000
     15 H8         2.2230   -1.5375    3.7809 H         1 RES1    0.0000
     16 H9         3.7224   -1.1581    3.5016 H         1 RES1    0.0000
     17 H10        3.3664   -2.6479    3.6364 H         1 RES1    0.0000
     18 C6         1.7214   -3.0093    1.5460 C.3       1 RES1    0.0000
     19 H11        0.9328   -2.8841    2.1612 H         1 RES1    0.0000
     20 H12        2.1661   -3.8234    1.6894 H         1 RES1    0.0000
     21 H13        1.2992   -2.9854    0.5696 H         1 RES1    0.0000
     22 N2         2.1125   -0.6170    1.2717 N.3       1 RES1    0.0000
     23 O2         1.1113   -0.0961    2.1550 O.3       1 RES1    0.0000
     24 H14        0.3284   -0.1874    1.7328 H         1 RES1    0.0000
     25 C7         3.2101    0.3580    1.2491 C.3       1 RES1    0.0000
     26 H15        3.4080    0.6914    2.1351 H         1 RES1    0.0000
     27 C8         2.9013    1.5400    0.3610 C.ar      1 RES1    0.0000
     28 C9         2.0965    1.4361   -0.7693 C.ar      1 RES1    0.0000
     29 O3         1.4513    0.2728   -1.0976 O.3       1 RES1    0.0000
     30 H16        1.5530   -0.2933   -0.3935 H         1 RES1    0.0000
     31 C10        1.9520    2.5505   -1.5808 C.ar      1 RES1    0.0000
     32 H17        1.4492    2.5070   -2.3829 H         1 RES1    0.0000
     33 C11        2.5652    3.7156   -1.2132 C.ar      1 RES1    0.0000
     34 H18        2.4672    4.4973   -1.7209 H         1 RES1    0.0000
     35 C12        3.3020    3.7744   -0.0497 C.ar      1 RES1    0.0000
     36 C13        3.9606    5.0419    0.4148 C.3       1 RES1    0.0000
     37 H19        4.4135    4.8814    1.2458 H         1 RES1    0.0000
     38 H20        3.2953    5.7217    0.5392 H         1 RES1    0.0000
     39 H21        4.5963    5.3330   -0.2446 H         1 RES1    0.0000
     40 N3         3.4732    2.6908    0.7252 N.ar      1 RES1    0.0000
@<TRIPOS>BOND
     1    1    2 1
     2    3    1 1
     3    4    3 1
     4    5    4 1
     5    6    5 1
     6    7    5 1
     7    8    5 1
     8    9    4 1
     9   10    9 1
    10   11    9 1
    11   12    9 1
    12   13    4 1
    13   14   13 1
    14   15   14 1
    15   16   14 1
    16   17   14 1
    17   18   13 1
    18   19   18 1
    19   20   18 1
    20   21   18 1
    21   22   13 1
    22   23   22 1
    23   24   23 1
    24   25    3 1
    25   26   25 1
    26   27   25 1
    27   28   27 ar
    28   29   28 1
    29   30   29 1
    30   31   28 ar
    31   32   31 1
    32   33   31 ar
    33   34   33 1
    34   35   33 ar
    35   36   35 1
    36   37   36 1
    37   38   36 1
    38   39   36 1
    39   40   27 ar
    40   22   25 1
    41   35   40 ar
@<TRIPOS>SUBSTRUCTURE
     1 RES1 1

@<TRIPOS>CRYSIN
  11.4290   11.6390   12.0120  90.0000 115.1750  90.0000 231 1

