# MOL2 file generated by ConQuest
# Please check atom types

@<TRIPOS>MOLECULE
OLAVIG
    51    53     1
SMALL
NO_CHARGES
****
Generated from CSD

@<TRIPOS>ATOM
      1 H1         8.7052    6.6199    3.8833 H         1 RES1    0.0000
      2 H2         7.2957    4.6767    5.4789 H         1 RES1    0.0000
      3 H3         3.6447    2.5812    8.7375 H         1 RES1    0.0000
      4 H4         6.7679    3.9299   10.6960 H         1 RES1    0.0000
      5 H5         6.4575    0.3408    5.3902 H         1 RES1    0.0000
      6 H6         4.6444    2.4362    2.2245 H         1 RES1    0.0000
      7 H7         5.2405    0.4640    6.0149 H         1 RES1    0.0000
      8 H8         5.8490    4.8217    5.6350 H         1 RES1    0.0000
      9 H9         8.4444    7.6785    2.7014 H         1 RES1    0.0000
     10 H10        4.9611    0.2538    4.6178 H         1 RES1    0.0000
     11 H11        5.4764    4.4084    3.5034 H         1 RES1    0.0000
     12 C1         8.5282    6.5532    3.0096 C.3       1 RES1    0.0000
     13 O1         5.4951    3.0119    7.2031 O.3       1 RES1    0.0000
     14 C2         5.3696    3.2722    9.5167 C.ar      1 RES1    0.0000
     15 C3         4.0850    2.7995    9.5137 C.ar      1 RES1    0.0000
     16 C4         4.0024    2.9742   11.8813 C.ar      1 RES1    0.0000
     17 C5         6.1967    3.3825    8.2715 C.2       1 RES1    0.0000
     18 O2         7.3354    3.7109    8.2592 O.2       1 RES1    0.0000
     19 N1         3.2741    2.7908   13.1370 N.pl3     1 RES1    0.0000
     20 C6         3.3982    2.6335   10.7011 C.ar      1 RES1    0.0000
     21 H12        2.6699    2.2912   10.6960 H         1 RES1    0.0000
     22 C7         5.9527    3.6406   10.7188 C.ar      1 RES1    0.0000
     23 C8         6.0762    2.5298    3.6609 C.3       1 RES1    0.0000
     24 C9         6.2060    2.9402    5.9267 C.3       1 RES1    0.0000
     25 C10        5.2715    3.4890   11.9041 C.ar      1 RES1    0.0000
     26 O3         2.1490    2.3398   13.1049 O.2       1 RES1    0.0000
     27 O4         7.3168    5.9093    2.6833 O.3       1 RES1    0.0000
     28 O5         3.8111    3.1417   14.1695 O.2       1 RES1    0.0000
     29 C11        5.3740    2.1027    4.9432 C.3       1 RES1    0.0000
     30 C12        7.3398    4.4860    2.8167 C.3       1 RES1    0.0000
     31 C13        6.2681    4.0328    3.7710 C.3       1 RES1    0.0000
     32 C14        6.4413    4.2946    5.2653 C.3       1 RES1    0.0000
     33 C15        6.3854    2.8162    1.2591 C.2       1 RES1    0.0000
     34 C16        3.9006    2.5254    4.9854 C.3       1 RES1    0.0000
     35 H13        3.4523    2.1027    4.2168 H         1 RES1    0.0000
     36 H14        3.8372    3.5891    4.9681 H         1 RES1    0.0000
     37 H15        3.4833    2.1752    5.7490 H         1 RES1    0.0000
     38 C17        7.1734    3.8378    1.4453 C.2       1 RES1    0.0000
     39 C18        5.5559    2.1382    2.2983 C.3       1 RES1    0.0000
     40 C19        5.5019    0.6105    5.2146 C.3       1 RES1    0.0000
     41 C20        8.0619    4.3801    0.3778 C.3       1 RES1    0.0000
     42 H16        8.1650    4.2634    3.1658 H         1 RES1    0.0000
     43 H17        6.9107    2.1752    3.6892 H         1 RES1    0.0000
     44 H18        7.7738    3.9299   -0.5361 H         1 RES1    0.0000
     45 H19        8.0470    5.2568    0.2786 H         1 RES1    0.0000
     46 H20        5.5509    1.2399    2.2709 H         1 RES1    0.0000
     47 H21        6.9852    2.5160    6.1500 H         1 RES1    0.0000
     48 H22        9.0901    4.1619    0.4432 H         1 RES1    0.0000
     49 H23        6.1781    2.4942    0.4516 H         1 RES1    0.0000
     50 H24        9.1584    6.2646    2.4313 H         1 RES1    0.0000
     51 H25        5.6875    3.7559   12.7052 H         1 RES1    0.0000
@<TRIPOS>BOND
     1    1   12 1
     2    2   32 1
     3    3   15 1
     4    4   22 1
     5    5   40 1
     6    6   39 1
     7    7   40 1
     8    8   32 1
     9    9   12 1
    10   10   40 1
    11   11   31 1
    12   12   27 1
    13   13   17 1
    14   14   15 ar
    15   15   20 ar
    16   16   19 1
    17   17   14 1
    18   18   17 2
    19   19   26 2
    20   20   16 ar
    21   21   20 1
    22   22   14 ar
    23   23   29 1
    24   24   13 1
    25   25   16 ar
    26   27   30 1
    27   28   19 2
    28   29   24 1
    29   30   31 1
    30   31   23 1
    31   32   24 1
    32   33   38 2
    33   34   29 1
    34   35   34 1
    35   36   34 1
    36   37   34 1
    37   38   30 1
    38   39   23 1
    39   40   29 1
    40   41   38 1
    41   42   30 1
    42   43   23 1
    43   44   41 1
    44   45   41 1
    45   46   39 1
    46   47   24 1
    47   48   41 1
    48   49   33 1
    49   50   12 1
    50   51   25 1
    51   22   25 ar
    52   31   32 1
    53   33   39 1
@<TRIPOS>SUBSTRUCTURE
     1 RES1 1

@<TRIPOS>CRYSIN
   6.2091    7.2507   42.2100  90.0000  90.0000  90.0000  19 1

