# MOL2 file generated by ConQuest
# Please check atom types

@<TRIPOS>MOLECULE
OLAXUV
    36    37     1
SMALL
NO_CHARGES
****
Generated from CSD

@<TRIPOS>ATOM
      1 O1         3.3540    6.5471    5.0558 O.3       1 RES1    0.0000
      2 H1         2.9047    6.7967    5.7471 H         1 RES1    0.0000
      3 N1         7.3752    4.1677    4.9641 N.pl3     1 RES1    0.0000
      4 C1         3.1905    5.1563    4.9021 C.3       1 RES1    0.0000
      5 O2         3.8058    4.4640    6.0136 O.3       1 RES1    0.0000
      6 C2         3.8782    4.7682    3.5952 C.3       1 RES1    0.0000
      7 H2         3.5160    5.3094    2.8762 H         1 RES1    0.0000
      8 H3         3.6765    3.8405    3.3971 H         1 RES1    0.0000
      9 C3         5.3995    4.9486    3.6333 C.3       1 RES1    0.0000
     10 H4         5.5793    5.8884    3.8453 H         1 RES1    0.0000
     11 O3         8.0197    3.2269    4.5558 O.2       1 RES1    0.0000
     12 C4         5.8770    4.1043    4.8330 C.3       1 RES1    0.0000
     13 H5         5.6036    3.1723    4.6999 H         1 RES1    0.0000
     14 O4         7.8533    5.1663    5.4523 O.2       1 RES1    0.0000
     15 O5         7.8299    3.9705   -1.4400 O.3       1 RES1    0.0000
     16 C5         5.2241    4.6439    6.1076 C.3       1 RES1    0.0000
     17 H6         5.5670    4.1688    6.8803 H         1 RES1    0.0000
     18 H7         5.4314    5.5858    6.2114 H         1 RES1    0.0000
     19 C6         1.7371    4.7284    4.9266 C.3       1 RES1    0.0000
     20 H8         1.3407    4.9890    5.7619 H         1 RES1    0.0000
     21 H9         1.6827    3.7744    4.8305 H         1 RES1    0.0000
     22 H10        1.2675    5.1500    4.2033 H         1 RES1    0.0000
     23 C7         6.0846    4.6381    2.3062 C.ar      1 RES1    0.0000
     24 C8         5.7138    3.5762    1.4893 C.ar      1 RES1    0.0000
     25 H11        5.0531    2.9862    1.7739 H         1 RES1    0.0000
     26 C9         6.3182    3.3863    0.2517 C.ar      1 RES1    0.0000
     27 H12        6.0539    2.6720   -0.2826 H         1 RES1    0.0000
     28 C10        7.3026    4.2411   -0.1944 C.ar      1 RES1    0.0000
     29 C11        7.7009    5.2827    0.6124 C.ar      1 RES1    0.0000
     30 H13        8.3735    5.8611    0.3324 H         1 RES1    0.0000
     31 C12        7.0889    5.4652    1.8533 C.ar      1 RES1    0.0000
     32 H14        7.3687    6.1690    2.3930 H         1 RES1    0.0000
     33 C13        8.6449    4.9796   -2.0323 C.3       1 RES1    0.0000
     34 H15        8.9492    4.6806   -2.8924 H         1 RES1    0.0000
     35 H16        9.4016    5.1521   -1.4684 H         1 RES1    0.0000
     36 H17        8.1322    5.7846   -2.1360 H         1 RES1    0.0000
@<TRIPOS>BOND
     1    1    2 1
     2    3   11 2
     3    4    1 1
     4    5    4 1
     5    6    4 1
     6    7    6 1
     7    8    6 1
     8    9    6 1
     9   10    9 1
    10   12    3 1
    11   13   12 1
    12   14    3 2
    13   15   28 1
    14   16    5 1
    15   17   16 1
    16   18   16 1
    17   19    4 1
    18   20   19 1
    19   21   19 1
    20   22   19 1
    21   23    9 1
    22   24   23 ar
    23   25   24 1
    24   26   24 ar
    25   27   26 1
    26   28   26 ar
    27   29   28 ar
    28   30   29 1
    29   31   23 ar
    30   32   31 1
    31   33   15 1
    32   34   33 1
    33   35   33 1
    34   36   33 1
    35    9   12 1
    36   12   16 1
    37   29   31 ar
@<TRIPOS>SUBSTRUCTURE
     1 RES1 1

@<TRIPOS>CRYSIN
   9.4527    5.2444   14.0100  90.0000 106.1200  90.0000   4 1

