# MOL2 file generated by ConQuest
# Please check atom types

@<TRIPOS>MOLECULE
OLAZOR
    81    86     2
SMALL
USER_CHARGES
****
Generated from CSD

@<TRIPOS>ATOM
      1 C1        -0.6003    6.9843    5.6145 C.2       1 RES1    0.0000
      2 C2        -0.2566    8.3120    5.8377 C.2       1 RES1    0.0000
      3 C3         0.5759    9.1038    5.0031 C.2       1 RES1    0.0000
      4 C4         0.8158   10.5083    5.1205 C.2       1 RES1    0.0000
      5 H1         0.5247   11.0682    5.8310 H         1 RES1    0.0000
      6 C5         1.5337   10.9012    4.0337 C.2       1 RES1    0.0000
      7 H2         1.8332   11.7843    3.8537 H         1 RES1    0.0000
      8 C6         1.7630    9.7550    3.2051 C.2       1 RES1    0.0000
      9 C7         2.4054    9.7057    1.9612 C.2       1 RES1    0.0000
     10 C8         2.4574    8.5883    1.1038 C.2       1 RES1    0.0000
     11 C9         3.1741    8.5835   -0.1593 C.2       1 RES1    0.0000
     12 H3         3.6773    9.2996   -0.5279 H         1 RES1    0.0000
     13 C10        2.9870    7.3664   -0.7074 C.2       1 RES1    0.0000
     14 H4         3.3144    7.0672   -1.5477 H         1 RES1    0.0000
     15 C11        2.1922    6.6022    0.2294 C.2       1 RES1    0.0000
     16 C12        1.8607    5.2421    0.0106 C.2       1 RES1    0.0000
     17 C13        1.0548    4.4431    0.8334 C.2       1 RES1    0.0000
     18 C14        0.8435    3.0362    0.7422 C.2       1 RES1    0.0000
     19 H5         1.1330    2.4739    0.0336 H         1 RES1    0.0000
     20 C15        0.1562    2.6373    1.8453 C.2       1 RES1    0.0000
     21 H6        -0.1145    1.7470    2.0396 H         1 RES1    0.0000
     22 C16       -0.0911    3.7823    2.6604 C.2       1 RES1    0.0000
     23 C17       -0.7247    3.8003    3.9147 C.2       1 RES1    0.0000
     24 C18       -0.8381    4.9153    4.7507 C.2       1 RES1    0.0000
     25 C19       -1.8030    5.1268    5.8526 C.2       1 RES1    0.0000
     26 O1        -1.6238    6.4292    6.3133 O.3       1 RES1    0.0000
     27 O2        -2.7122    4.4744    6.2713 O.2       1 RES1    0.0000
     28 C20       -0.9341    9.0100    6.9724 C.ar      1 RES1    0.0000
     29 C21       -2.3295    9.1290    7.0365 C.ar      1 RES1    0.0000
     30 H7        -2.8683    8.7109    6.3757 H         1 RES1    0.0000
     31 C22       -2.9269    9.8499    8.0527 C.ar      1 RES1    0.0000
     32 H8        -3.8743    9.9208    8.0866 H         1 RES1    0.0000
     33 C23       -2.1535   10.4699    9.0219 C.ar      1 RES1    0.0000
     34 H9        -2.5669   10.9721    9.7135 H         1 RES1    0.0000
     35 C24       -0.7783   10.3521    8.9754 C.ar      1 RES1    0.0000
     36 H10       -0.2434   10.7702    9.6391 H         1 RES1    0.0000
     37 C25       -0.1749    9.6228    7.9620 C.ar      1 RES1    0.0000
     38 H11        0.7717    9.5411    7.9426 H         1 RES1    0.0000
     39 C26        3.0721   10.9697    1.5050 C.ar      1 RES1    0.0000
     40 C27        4.0773   11.5476    2.2875 C.ar      1 RES1    0.0000
     41 H12        4.3450   11.1307    3.0978 H         1 RES1    0.0000
     42 C28        4.6890   12.7323    1.8832 C.ar      1 RES1    0.0000
     43 H13        5.3567   13.1312    2.4284 H         1 RES1    0.0000
     44 C29        4.3275   13.3258    0.6964 C.ar      1 RES1    0.0000
     45 H14        4.7475   14.1332    0.4247 H         1 RES1    0.0000
     46 C30        3.3609   12.7551   -0.1025 C.ar      1 RES1    0.0000
     47 H15        3.1387   13.1540   -0.9358 H         1 RES1    0.0000
     48 C31        2.7075   11.5897    0.3115 C.ar      1 RES1    0.0000
     49 H16        2.0140   11.2208   -0.2208 H         1 RES1    0.0000
     50 C32        2.5352    4.5393   -1.1259 C.ar      1 RES1    0.0000
     51 C33        3.9378    4.4876   -1.1667 C.ar      1 RES1    0.0000
     52 H17        4.4469    4.9117   -0.4847 H         1 RES1    0.0000
     53 C34        4.5848    3.8196   -2.1990 C.ar      1 RES1    0.0000
     54 H18        5.5347    3.7979   -2.2292 H         1 RES1    0.0000
     55 C35        3.8479    3.1840   -3.1850 C.ar      1 RES1    0.0000
     56 H19        4.2903    2.7346   -3.8945 H         1 RES1    0.0000
     57 C36        2.4652    3.2056   -3.1341 C.ar      1 RES1    0.0000
     58 H20        1.9595    2.7490   -3.7961 H         1 RES1    0.0000
     59 C37        1.8136    3.8941   -2.1167 C.ar      1 RES1    0.0000
     60 H21        0.8632    3.9205   -2.0996 H         1 RES1    0.0000
     61 C38       -1.3547    2.5364    4.3996 C.ar      1 RES1    0.0000
     62 C39       -2.2611    1.8359    3.6070 C.ar      1 RES1    0.0000
     63 H22       -2.4670    2.1483    2.7331 H         1 RES1    0.0000
     64 C40       -2.8656    0.6776    4.0913 C.ar      1 RES1    0.0000
     65 H23       -3.4834    0.2019    3.5490 H         1 RES1    0.0000
     66 C41       -2.5699    0.2223    5.3556 C.ar      1 RES1    0.0000
     67 H24       -2.9938   -0.5599    5.6870 H         1 RES1    0.0000
     68 C42       -1.6573    0.8987    6.1501 C.ar      1 RES1    0.0000
     69 H25       -1.4514    0.5755    7.0188 H         1 RES1    0.0000
     70 C43       -1.0418    2.0558    5.6712 C.ar      1 RES1    0.0000
     71 H26       -0.4101    2.5159    6.2101 H         1 RES1    0.0000
     72 N1         0.4325    4.8613    1.9878 N.pl3     1 RES1    0.0000
     73 H27        0.3780    5.6975    2.2556 H         1 RES1    0.0000
     74 N2         1.8666    7.3652    1.3104 N.2       1 RES1    0.0000
     75 N3         1.1688    8.7037    3.8376 N.pl3     1 RES1    0.0000
     76 H28        1.1654    7.8770    3.5370 H         1 RES1    0.0000
     77 N4        -0.0965    6.0676    4.7449 N.pl3     1 RES1    1.0000
     78 O3         1.1042    6.1632    4.1635 O.2       1 RES1   -1.0000
     79 C44       -1.5913    6.1036    6.3205 Du        2 SUP2    0.0000
     80 O4        -1.8347    4.9262    5.6030 Du        2 SUP2    0.0000
     81 O5        -2.3028    6.3019    7.2635 Du        2 SUP2    0.0000
@<TRIPOS>BOND
     1    1    2 2
     2    2    3 1
     3    3    4 2
     4    4    5 1
     5    6    4 1
     6    7    6 1
     7    8    6 2
     8    9    8 1
     9   10    9 2
    10   11   10 1
    11   12   11 1
    12   13   11 2
    13   14   13 1
    14   15   13 1
    15   16   15 1
    16   17   16 2
    17   18   17 1
    18   19   18 1
    19   20   18 2
    20   21   20 1
    21   22   20 1
    22   23   22 2
    23   24   23 1
    24   25   24 1
    25   26    1 1
    26   27   25 2
    27   28    2 1
    28   29   28 ar
    29   30   29 1
    30   31   29 ar
    31   32   31 1
    32   33   31 ar
    33   34   33 1
    34   35   33 ar
    35   36   35 1
    36   37   28 ar
    37   38   37 1
    38   39    9 1
    39   40   39 ar
    40   41   40 1
    41   42   40 ar
    42   43   42 1
    43   44   42 ar
    44   45   44 1
    45   46   44 ar
    46   47   46 1
    47   48   39 ar
    48   49   48 1
    49   50   16 1
    50   51   50 ar
    51   52   51 1
    52   53   51 ar
    53   54   53 1
    54   55   53 ar
    55   56   55 1
    56   57   55 ar
    57   58   57 1
    58   59   50 ar
    59   60   59 1
    60   61   23 1
    61   62   61 ar
    62   63   62 1
    63   64   62 ar
    64   65   64 1
    65   66   64 ar
    66   67   66 1
    67   68   66 ar
    68   69   68 1
    69   70   61 ar
    70   71   70 1
    71   72   17 1
    72   73   72 1
    73   74   10 1
    74   75    3 1
    75   76   75 1
    76   77    1 1
    77   78   77 1
    78    8   75 1
    79   15   74 2
    80   22   72 1
    81   24   77 2
    82   25   26 1
    83   35   37 ar
    84   46   48 ar
    85   57   59 ar
    86   68   70 ar
@<TRIPOS>SUBSTRUCTURE
     1 RES1 1
     2 SUP2 79

@<TRIPOS>CRYSIN
  10.9842   12.0150   24.5280  90.0000 101.9580  90.0000 231 1

