# MOL2 file generated by ConQuest
# Please check atom types

@<TRIPOS>MOLECULE
OLIBOB
   110   116     2
SMALL
NO_CHARGES
****
Generated from CSD

@<TRIPOS>ATOM
      1 O1        -0.8168    9.2351    7.6015 O.3       1 RES1    0.0000
      2 C1        -3.6542   10.9855   11.1751 C.ar      1 RES1    0.0000
      3 C2        -2.0018    9.5541    9.5916 C.ar      1 RES1    0.0000
      4 C3        -2.9248    9.9594   11.7094 C.ar      1 RES1    0.0000
      5 H1        -3.0057    9.7451   12.6093 H         1 RES1    0.0000
      6 N1        -4.5447   11.7686   12.0599 N.pl3     1 RES1    0.0000
      7 O2        -4.9940   12.8237   11.6315 O.2       1 RES1    0.0000
      8 O3        -0.4870    7.7609    9.2066 O.2       1 RES1    0.0000
      9 C4        -3.5836   11.3134    9.8534 C.ar      1 RES1    0.0000
     10 H2        -4.0907   12.0113    9.5094 H         1 RES1    0.0000
     11 C5        -1.0014    8.7263    8.7458 C.2       1 RES1    0.0000
     12 C6        -2.7399   10.5830    9.0400 C.ar      1 RES1    0.0000
     13 H3        -2.6704   10.7812    8.1336 H         1 RES1    0.0000
     14 C7        -2.0923    9.2654   10.9199 C.ar      1 RES1    0.0000
     15 H4        -1.5743    8.5827   11.2811 H         1 RES1    0.0000
     16 O4        -4.7947   11.3284   13.1285 O.2       1 RES1    0.0000
     17 C8         2.2340    7.4424    5.3172 C.ar      1 RES1    0.0000
     18 C9         3.2935    6.8278    4.4584 C.2       1 RES1    0.0000
     19 C10        0.2461    8.5801    6.8638 C.ar      1 RES1    0.0000
     20 C11        2.4348    8.5794    6.0397 C.ar      1 RES1    0.0000
     21 H5         3.2713    8.9839    6.0007 H         1 RES1    0.0000
     22 C12        1.4730    9.1560    6.8206 C.ar      1 RES1    0.0000
     23 H6         1.6555    9.9256    7.3116 H         1 RES1    0.0000
     24 C13        3.9648    5.7346    4.7677 C.2       1 RES1    0.0000
     25 H7         3.8523    5.2648    5.5638 H         1 RES1    0.0000
     26 C14        3.7819    7.4946    3.1280 C.3       1 RES1    0.0000
     27 O5         1.9802    6.7970    2.0204 O.3       1 RES1    0.0000
     28 C15       -0.0261    7.4273    6.1738 C.ar      1 RES1    0.0000
     29 H8        -0.8679    7.0338    6.2192 H         1 RES1    0.0000
     30 C16        0.9814    6.8634    5.4102 C.ar      1 RES1    0.0000
     31 H9         0.8119    6.0747    4.9451 H         1 RES1    0.0000
     32 C17        4.9159    5.3414    3.7056 C.3       1 RES1    0.0000
     33 H10        5.8315    5.4733    3.9976 H         1 RES1    0.0000
     34 H11        4.7951    4.4106    3.4633 H         1 RES1    0.0000
     35 C18        4.6016    6.2176    2.5764 C.3       1 RES1    0.0000
     36 H12        4.0678    5.7389    1.9231 H         1 RES1    0.0000
     37 H13        5.4202    6.5107    2.1459 H         1 RES1    0.0000
     38 C19        4.7426    8.6660    3.4244 C.3       1 RES1    0.0000
     39 H14        5.5925    8.3157    3.7337 H         1 RES1    0.0000
     40 H15        4.3705    9.2170    4.1317 H         1 RES1    0.0000
     41 C20        3.2218    8.5563    1.0773 C.3       1 RES1    0.0000
     42 H16        3.9947    8.0554    0.7723 H         1 RES1    0.0000
     43 H17        2.5362    8.4670    0.3959 H         1 RES1    0.0000
     44 C21        2.7361    7.9322    2.2757 C.3       1 RES1    0.0000
     45 H18        2.1808    8.5760    2.7646 H         1 RES1    0.0000
     46 C22        3.4739    9.5135    1.1249 C.3       1 RES1    0.0000
     47 H19        2.7764   10.0267    1.5510 H         1 RES1    0.0000
     48 H20        3.6296    9.8643    0.2358 H         1 RES1    0.0000
     49 C23        4.9798    9.5770    2.0940 C.3       1 RES1    0.0000
     50 H21        5.7280    9.2311    1.5791 H         1 RES1    0.0000
     51 H22        5.1782   10.4928    2.3449 H         1 RES1    0.0000
     52 C24        0.8082    7.0718    1.4493 C.3       1 RES1    0.0000
     53 H23        0.2614    7.5669    2.0637 H         1 RES1    0.0000
     54 H24        0.3663    6.2521    1.2157 H         1 RES1    0.0000
     55 H25        0.9521    7.5939    0.6576 H         1 RES1    0.0000
     56 O6         3.6953    2.1354    8.2706 O.3       2 RES2    0.0000
     57 C25        2.0253    3.3919    9.2088 C.ar      2 RES2    0.0000
     58 C26        0.6580    4.3516   11.3503 C.ar      2 RES2    0.0000
     59 C27        0.4101    4.8616   10.1195 C.ar      2 RES2    0.0000
     60 H26       -0.2200    5.5371   10.0113 H         2 RES2    0.0000
     61 C28        2.2788    2.8941   10.4742 C.ar      2 RES2    0.0000
     62 H27        2.9292    2.2406   10.5954 H         2 RES2    0.0000
     63 C29        1.5838    3.3566   11.5385 C.ar      2 RES2    0.0000
     64 H28        1.7307    3.0043   12.3865 H         2 RES2    0.0000
     65 N2        -0.0983    4.9239   12.4795 N.pl3     2 RES2    0.0000
     66 C30        1.0834    4.3829    9.0508 C.ar      2 RES2    0.0000
     67 H29        0.9100    4.7249    8.2029 H         2 RES2    0.0000
     68 C31        4.6083    1.7656    7.2186 C.ar      2 RES2    0.0000
     69 C32        7.5248    0.2336    4.5644 C.2       2 RES2    0.0000
     70 O7        -0.7084    5.9126   12.3757 O.2       2 RES2    0.0000
     71 C33        6.6491    2.0005    6.1327 C.ar      2 RES2    0.0000
     72 H30        7.4248    2.4938    5.9921 H         2 RES2    0.0000
     73 C34        5.7267    2.4990    6.9807 C.ar      2 RES2    0.0000
     74 H31        5.8519    3.3246    7.3917 H         2 RES2    0.0000
     75 C35        6.5132    0.8143    5.4707 C.ar      2 RES2    0.0000
     76 O8         2.4831    3.2733    6.8747 O.2       2 RES2    0.0000
     77 C36        2.7736    2.9374    7.9692 C.2       2 RES2    0.0000
     78 C37        4.4061    0.5566    6.5826 C.ar      2 RES2    0.0000
     79 H32        3.6421    0.0523    6.7449 H         2 RES2    0.0000
     80 C38        8.2420   -0.8083    4.8023 C.2       2 RES2    0.0000
     81 H33        8.1924   -1.2823    5.6027 H         2 RES2    0.0000
     82 O9         6.1460    0.3521    2.1957 O.3       2 RES2    0.0000
     83 C39        7.9664    0.9056    3.2470 C.3       2 RES2    0.0000
     84 O10       -0.0136    4.2343   13.5200 O.2       2 RES2    0.0000
     85 C40        8.7276   -0.3033    2.5958 C.3       2 RES2    0.0000
     86 H34        8.1440   -0.7795    1.9858 H         2 RES2    0.0000
     87 H35        9.5008    0.0121    2.1026 H         2 RES2    0.0000
     88 C41        5.3481    0.1264    5.7173 C.ar      2 RES2    0.0000
     89 H36        5.2020   -0.6739    5.2674 H         2 RES2    0.0000
     90 C42        9.1502   -1.1892    3.7034 C.3       2 RES2    0.0000
     91 H37       10.0766   -1.0321    3.9435 H         2 RES2    0.0000
     92 H38        9.0390   -2.1229    3.4655 H         2 RES2    0.0000
     93 C43        8.9858    2.1277    3.4936 C.3       2 RES2    0.0000
     94 H39        8.6415    2.6665    4.2226 H         2 RES2    0.0000
     95 H40        9.8355    1.7601    3.7813 H         2 RES2    0.0000
     96 C44        7.0104    1.5054    2.4920 C.3       2 RES2    0.0000
     97 H41        6.5181    2.1588    3.0328 H         2 RES2    0.0000
     98 C45        7.3118    2.0860    1.1335 C.3       2 RES2    0.0000
     99 H42        7.8948    1.5044    0.6252 H         2 RES2    0.0000
    100 H43        6.4953    2.2405    0.6295 H         2 RES2    0.0000
    101 C46        9.2486    3.0674    2.2735 C.3       2 RES2    0.0000
    102 H44        9.9909    2.7449    1.7414 H         2 RES2    0.0000
    103 H45        9.4385    3.9718    2.5656 H         2 RES2    0.0000
    104 C47        7.8014    3.0121    1.3845 C.3       2 RES2    0.0000
    105 H46        7.1517    3.5482    1.8712 H         2 RES2    0.0000
    106 H47        7.9660    3.4740    0.5473 H         2 RES2    0.0000
    107 C48        4.9835    0.7021    1.6743 C.3       2 RES2    0.0000
    108 H48        4.6729    1.5092    2.0918 H         2 RES2    0.0000
    109 H49        4.3417    0.0002    1.8193 H         2 RES2    0.0000
    110 H50        5.0844    0.8496    0.7312 H         2 RES2    0.0000
@<TRIPOS>BOND
     1    1   11 1
     2    2    4 ar
     3    3   11 1
     4    4    5 1
     5    6    2 1
     6    7    6 2
     7    8   11 2
     8    9    2 ar
     9   10    9 1
    10   12    3 ar
    11   13   12 1
    12   14    3 ar
    13   15   14 1
    14   16    6 2
    15   17   18 1
    16   18   24 2
    17   19    1 1
    18   20   17 ar
    19   21   20 1
    20   22   19 ar
    21   23   22 1
    22   24   25 1
    23   26   18 1
    24   27   44 1
    25   28   19 ar
    26   29   28 1
    27   30   17 ar
    28   31   30 1
    29   32   24 1
    30   33   32 1
    31   34   32 1
    32   35   26 1
    33   36   35 1
    34   37   35 1
    35   38   26 1
    36   39   38 1
    37   40   38 1
    38   41   42 1
    39   43   41 1
    40   44   26 1
    41   45   44 1
    42   46   41 1
    43   47   46 1
    44   48   46 1
    45   49   38 1
    46   50   49 1
    47   51   49 1
    48   52   27 1
    49   53   52 1
    50   54   52 1
    51   55   52 1
    52   56   68 1
    53   57   61 ar
    54   58   59 ar
    55   59   60 1
    56   61   62 1
    57   63   58 ar
    58   64   63 1
    59   65   58 1
    60   66   57 ar
    61   67   66 1
    62   68   73 ar
    63   69   75 1
    64   70   65 2
    65   71   72 1
    66   73   71 ar
    67   74   73 1
    68   75   71 ar
    69   76   77 2
    70   77   56 1
    71   78   68 ar
    72   79   78 1
    73   80   69 2
    74   81   80 1
    75   82   96 1
    76   83   69 1
    77   84   65 2
    78   85   83 1
    79   86   85 1
    80   87   85 1
    81   88   75 ar
    82   89   88 1
    83   90   80 1
    84   91   90 1
    85   92   90 1
    86   93   83 1
    87   94   93 1
    88   95   93 1
    89   96   83 1
    90   97   96 1
    91   98   96 1
    92   99   98 1
    93  100   98 1
    94  101   93 1
    95  102  101 1
    96  103  101 1
    97  104   98 1
    98  105  104 1
    99  106  104 1
   100  107   82 1
   101  108  107 1
   102  109  107 1
   103  110  107 1
   104    4   14 ar
   105    9   12 ar
   106   20   22 ar
   107   28   30 ar
   108   32   35 1
   109   41   44 1
   110   46   49 1
   111   57   77 1
   112   59   66 ar
   113   61   63 ar
   114   78   88 ar
   115   85   90 1
   116  101  104 1
@<TRIPOS>SUBSTRUCTURE
     1 RES1 1
     2 RES2 56

@<TRIPOS>CRYSIN
   7.7160   12.8710   21.8890  94.6990  97.1510  93.0050   2 1

