# MOL2 file generated by ConQuest
# Please check atom types

@<TRIPOS>MOLECULE
OLICAO
   162   168     2
SMALL
NO_CHARGES
****
Generated from CSD

@<TRIPOS>ATOM
      1 O1         2.0341   10.0449   30.1780 O.3       1 RES1    0.0000
      2 O2         3.3019    7.4183   30.0651 O.3       1 RES1    0.0000
      3 O3         1.1528    7.8213   27.4031 O.3       1 RES1    0.0000
      4 O4         1.9091   10.2967   26.0654 O.3       1 RES1    0.0000
      5 O5         0.0974   12.6992   27.5030 O.2       1 RES1    0.0000
      6 O6         2.0813   13.5432   27.3571 O.2       1 RES1    0.0000
      7 O7         4.0573   12.2108   29.9655 O.3       1 RES1    0.0000
      8 O8         3.5262   13.9090   31.3219 O.2       1 RES1    0.0000
      9 N1         1.3033   12.6444   27.6249 N.pl3     1 RES1    0.0000
     10 N2         0.9875   14.2434   31.9112 N.pl3     1 RES1    0.0000
     11 H1         1.7793   14.5684   31.9862 H         1 RES1    0.0000
     12 H2         0.3246   14.6335   32.2967 H         1 RES1    0.0000
     13 C1         1.4636    8.8862   29.5224 C.3       1 RES1    0.0000
     14 H3         0.4879    8.9445   29.5929 H         1 RES1    0.0000
     15 C2         1.8364    8.9069   28.0395 C.3       1 RES1    0.0000
     16 H4         2.8052    8.8006   27.9370 H         1 RES1    0.0000
     17 C3         1.3859   10.1953   27.3885 C.3       1 RES1    0.0000
     18 H5         0.4072   10.2204   27.3549 H         1 RES1    0.0000
     19 C4         1.8983   11.3769   28.2006 C.3       1 RES1    0.0000
     20 H6         2.8760   11.4173   28.1472 H         1 RES1    0.0000
     21 C5         1.4655   11.2623   29.6686 C.3       1 RES1    0.0000
     22 H7         0.4918   11.1570   29.6770 H         1 RES1    0.0000
     23 C6         1.9121    7.6427   30.2336 C.3       1 RES1    0.0000
     24 H8         1.7134    7.7239   31.1809 H         1 RES1    0.0000
     25 H9         1.4203    6.8819   29.8905 H         1 RES1    0.0000
     26 C7         3.7062    6.2470   30.7815 C.3       1 RES1    0.0000
     27 H10        3.1347    5.5055   30.5308 H         1 RES1    0.0000
     28 H11        3.5970    6.4008   31.7340 H         1 RES1    0.0000
     29 C8         5.1314    5.8920   30.4966 C.ar      1 RES1    0.0000
     30 C9         5.4550    5.3320   29.2879 C.ar      1 RES1    0.0000
     31 H12        4.8019    5.1999   28.6388 H         1 RES1    0.0000
     32 C10        6.7632    4.9633   29.0496 C.ar      1 RES1    0.0000
     33 H13        6.9805    4.5511   28.2443 H         1 RES1    0.0000
     34 C11        7.7379    5.1881   29.9616 C.ar      1 RES1    0.0000
     35 H14        8.6202    4.9692   29.7611 H         1 RES1    0.0000
     36 C12        7.4330    5.7323   31.1550 C.ar      1 RES1    0.0000
     37 H15        8.1008    5.8664   31.7857 H         1 RES1    0.0000
     38 C13        6.1150    6.0892   31.4439 C.ar      1 RES1    0.0000
     39 H16        5.9015    6.4599   32.2708 H         1 RES1    0.0000
     40 C14        1.9878    6.8681   26.7520 C.3       1 RES1    0.0000
     41 H17        2.5180    6.3830   27.4034 H         1 RES1    0.0000
     42 H18        2.5898    7.3138   26.1356 H         1 RES1    0.0000
     43 C15        1.0741    5.9275   26.0101 C.ar      1 RES1    0.0000
     44 C16        0.3000    5.0323   26.7038 C.ar      1 RES1    0.0000
     45 H19        0.3866    4.9712   27.6265 H         1 RES1    0.0000
     46 C17       -0.6098    4.2179   26.0453 C.ar      1 RES1    0.0000
     47 H20       -1.1400    3.6204   26.5237 H         1 RES1    0.0000
     48 C18       -0.7141    4.3047   24.6996 C.ar      1 RES1    0.0000
     49 H21       -1.3210    3.7584   24.2533 H         1 RES1    0.0000
     50 C19        0.0462    5.1703   23.9916 C.ar      1 RES1    0.0000
     51 H22       -0.0433    5.2157   23.0663 H         1 RES1    0.0000
     52 C20        0.9767    6.0044   24.6501 C.ar      1 RES1    0.0000
     53 H23        1.5108    6.5921   24.1692 H         1 RES1    0.0000
     54 C21        0.9295   10.2006   25.0343 C.3       1 RES1    0.0000
     55 H24        0.3305   10.9618   25.0780 H         1 RES1    0.0000
     56 H25        0.4052    9.3941   25.1524 H         1 RES1    0.0000
     57 C22        1.6151   10.1711   23.6989 C.ar      1 RES1    0.0000
     58 C23        2.6754   11.0131   23.4036 C.ar      1 RES1    0.0000
     59 H26        2.9872   11.6046   24.0495 H         1 RES1    0.0000
     60 C24        3.2734   10.9835   22.1617 C.ar      1 RES1    0.0000
     61 H27        3.9747   11.5632   21.9667 H         1 RES1    0.0000
     62 C25        2.8298   10.1001   21.2241 C.ar      1 RES1    0.0000
     63 H28        3.2380   10.0665   20.3884 H         1 RES1    0.0000
     64 C26        1.7951    9.2679   21.5061 C.ar      1 RES1    0.0000
     65 H29        1.4911    8.6724   20.8606 H         1 RES1    0.0000
     66 C27        1.1980    9.3034   22.7325 C.ar      1 RES1    0.0000
     67 H30        0.4938    8.7237   22.9143 H         1 RES1    0.0000
     68 C28        1.7990   12.4500   30.5483 C.2       1 RES1    0.0000
     69 C29        0.7859   13.1317   31.1955 C.2       1 RES1    0.0000
     70 C30       -0.6541   12.7026   31.2010 C.3       1 RES1    0.0000
     71 H31       -1.0869   13.0441   31.9862 H         1 RES1    0.0000
     72 H32       -0.7023   11.7446   31.2003 H         1 RES1    0.0000
     73 H33       -1.0938   13.0441   30.4177 H         1 RES1    0.0000
     74 C31        3.1603   12.9357   30.6570 C.2       1 RES1    0.0000
     75 C32        5.4461   12.6931   29.9603 C.3       1 RES1    0.0000
     76 H34        5.8671   12.5078   30.8155 H         1 RES1    0.0000
     77 H35        5.4668   13.6515   29.8096 H         1 RES1    0.0000
     78 C33        6.1691   11.9872   28.8717 C.3       1 RES1    0.0000
     79 H36        5.7471   12.1804   28.0308 H         1 RES1    0.0000
     80 H37        6.1445   11.0407   29.0334 H         1 RES1    0.0000
     81 H38        7.0809   12.2849   28.8458 H         1 RES1    0.0000
     82 O9         2.1619   18.4229   29.5163 O.3       2 RES2    0.0000
     83 O10        4.0760   16.6560   27.9535 O.3       2 RES2    0.0000
     84 O11        2.5504   18.6853   25.8898 O.3       2 RES2    0.0000
     85 O12        2.8780   21.4403   26.8177 O.3       2 RES2    0.0000
     86 O13        0.1574   22.0488   28.9529 O.2       2 RES2    0.0000
     87 O14        1.9446   22.9975   29.6301 O.2       2 RES2    0.0000
     88 O15        3.9363   19.9663   31.0008 O.3       2 RES2    0.0000
     89 O16        3.1701   20.2893   33.0881 O.2       2 RES2    0.0000
     90 N3         1.3495   22.0380   29.1877 N.pl3     2 RES2    0.0000
     91 N4         0.5449   20.2143   33.4048 N.pl3     2 RES2    0.0000
     92 H39        1.3062   20.3303   33.7877 H         2 RES2    0.0000
     93 H40       -0.1790   20.2455   33.8685 H         2 RES2    0.0000
     94 C34        2.0429   18.0336   28.1479 C.3       2 RES2    0.0000
     95 H41        1.0918   17.9798   27.9176 H         2 RES2    0.0000
     96 C35        2.7039   19.0742   27.2582 C.3       2 RES2    0.0000
     97 H42        3.6599   19.1156   27.4713 H         2 RES2    0.0000
     98 C36        2.0911   20.4500   27.4613 C.3       2 RES2    0.0000
     99 H43        1.1724   20.4683   27.1220 H         2 RES2    0.0000
    100 C37        2.1128   20.7769   28.9270 C.3       2 RES2    0.0000
    101 H44        3.0442   20.9199   29.1951 H         2 RES2    0.0000
    102 C38        1.5098   19.6691   29.8316 C.3       2 RES2    0.0000
    103 H45        0.5606   19.5790   29.6059 H         2 RES2    0.0000
    104 C39        2.6537   16.6468   28.0250 C.3       2 RES2    0.0000
    105 H46        2.3813   16.1163   28.7908 H         2 RES2    0.0000
    106 H47        2.3026   16.2189   27.2287 H         2 RES2    0.0000
    107 C40        4.7380   16.8164   29.1786 C.3       2 RES2    0.0000
    108 H48        4.3258   16.2524   29.8517 H         2 RES2    0.0000
    109 H49        4.6701   17.7392   29.4700 H         2 RES2    0.0000
    110 C41        6.1986   16.4358   29.0079 C.ar      2 RES2    0.0000
    111 C42        7.1025   16.7769   29.9768 C.ar      2 RES2    0.0000
    112 H50        6.8320   17.2778   30.7120 H         2 RES2    0.0000
    113 C43        8.4549   16.3628   29.8526 C.ar      2 RES2    0.0000
    114 H51        9.0815   16.6014   30.4985 H         2 RES2    0.0000
    115 C44        8.8179   15.6174   28.7811 C.ar      2 RES2    0.0000
    116 H52        9.6972   15.3276   28.6971 H         2 RES2    0.0000
    117 C45        7.9189   15.2941   27.8426 C.ar      2 RES2    0.0000
    118 H53        8.1815   14.7814   27.1123 H         2 RES2    0.0000
    119 C46        6.6146   15.7101   27.9470 C.ar      2 RES2    0.0000
    120 H54        6.0088   15.4873   27.2772 H         2 RES2    0.0000
    121 C47        3.8026   18.5378   25.1828 C.3       2 RES2    0.0000
    122 H55        4.2707   17.7491   25.5017 H         2 RES2    0.0000
    123 H56        4.3662   19.3108   25.3432 H         2 RES2    0.0000
    124 C48        3.5193   18.4045   23.7138 C.ar      2 RES2    0.0000
    125 C49        4.4655   18.8395   22.8160 C.ar      2 RES2    0.0000
    126 H57        5.2583   19.2201   23.1181 H         2 RES2    0.0000
    127 C50        4.2285   18.7094   21.4579 C.ar      2 RES2    0.0000
    128 H58        4.8698   18.9993   20.8509 H         2 RES2    0.0000
    129 C51        3.0639   18.1612   21.0006 C.ar      2 RES2    0.0000
    130 H59        2.9134   18.0863   20.0844 H         2 RES2    0.0000
    131 C52        2.1246   17.7234   21.8797 C.ar      2 RES2    0.0000
    132 H60        1.3328   17.3488   21.5689 H         2 RES2    0.0000
    133 C53        2.3518   17.8398   23.2254 C.ar      2 RES2    0.0000
    134 H61        1.7085   17.5341   23.8231 H         2 RES2    0.0000
    135 C54        2.4521   21.8565   25.5085 C.3       2 RES2    0.0000
    136 H62        1.5983   22.3140   25.5631 H         2 RES2    0.0000
    137 H63        2.3508   21.0855   24.9292 H         2 RES2    0.0000
    138 C55        3.4947   22.7774   24.9661 C.ar      2 RES2    0.0000
    139 C56        4.0445   23.7791   25.7300 C.ar      2 RES2    0.0000
    140 H64        3.7524   23.8935   26.6045 H         2 RES2    0.0000
    141 C57        5.0075   24.6093   25.2365 C.ar      2 RES2    0.0000
    142 H65        5.3645   25.2758   25.7766 H         2 RES2    0.0000
    143 C58        5.4471   24.4634   23.9557 C.ar      2 RES2    0.0000
    144 H66        6.1012   25.0313   23.6161 H         2 RES2    0.0000
    145 C59        4.9111   23.4676   23.1666 C.ar      2 RES2    0.0000
    146 H67        5.2032   23.3650   22.2901 H         2 RES2    0.0000
    147 C60        3.9373   22.6137   23.6711 C.ar      2 RES2    0.0000
    148 H68        3.5862   21.9374   23.1375 H         2 RES2    0.0000
    149 C61        1.6082   19.9237   31.2996 C.2       2 RES2    0.0000
    150 C62        0.4879   19.9840   32.0862 C.2       2 RES2    0.0000
    151 C63       -0.9079   19.8413   31.5558 C.3       2 RES2    0.0000
    152 H69       -1.5314   19.8728   32.2838 H         2 RES2    0.0000
    153 H70       -0.9924   19.0012   31.0968 H         2 RES2    0.0000
    154 H71       -1.0928   20.5590   30.9448 H         2 RES2    0.0000
    155 C64        2.9321   20.0858   31.8931 C.2       2 RES2    0.0000
    156 C65        5.2750   20.3914   31.3734 C.3       2 RES2    0.0000
    157 H72        5.3478   20.4171   32.3388 H         2 RES2    0.0000
    158 H73        5.9212   19.7486   31.0419 H         2 RES2    0.0000
    159 C66        5.5750   21.6909   30.8355 C.3       2 RES2    0.0000
    160 H74        4.9534   22.3318   31.1842 H         2 RES2    0.0000
    161 H75        5.5042   21.6653   29.8775 H         2 RES2    0.0000
    162 H76        6.4681   21.9413   31.0839 H         2 RES2    0.0000
@<TRIPOS>BOND
     1    1   13 1
     2    2   23 1
     3    3   15 1
     4    4   17 1
     5    5    9 2
     6    6    9 2
     7    7   74 1
     8    8   74 2
     9    9   19 1
    10   10   11 1
    11   12   10 1
    12   13   14 1
    13   15   13 1
    14   16   15 1
    15   17   15 1
    16   18   17 1
    17   19   17 1
    18   20   19 1
    19   21    1 1
    20   22   21 1
    21   23   13 1
    22   24   23 1
    23   25   23 1
    24   26    2 1
    25   27   26 1
    26   28   26 1
    27   29   26 1
    28   30   29 ar
    29   31   30 1
    30   32   30 ar
    31   33   32 1
    32   34   32 ar
    33   35   34 1
    34   36   34 ar
    35   37   36 1
    36   38   29 ar
    37   39   38 1
    38   40    3 1
    39   41   40 1
    40   42   40 1
    41   43   40 1
    42   44   43 ar
    43   45   44 1
    44   46   44 ar
    45   47   46 1
    46   48   46 ar
    47   49   48 1
    48   50   48 ar
    49   51   50 1
    50   52   43 ar
    51   53   52 1
    52   54    4 1
    53   55   54 1
    54   56   54 1
    55   57   54 1
    56   58   57 ar
    57   59   58 1
    58   60   58 ar
    59   61   60 1
    60   62   60 ar
    61   63   62 1
    62   64   62 ar
    63   65   64 1
    64   66   57 ar
    65   67   66 1
    66   68   21 1
    67   69   10 1
    68   70   69 1
    69   71   70 1
    70   72   70 1
    71   73   70 1
    72   74   68 1
    73   75    7 1
    74   76   75 1
    75   77   75 1
    76   78   75 1
    77   79   78 1
    78   80   78 1
    79   81   78 1
    80   82   94 1
    81   83  104 1
    82   84   96 1
    83   85   98 1
    84   86   90 2
    85   87   90 2
    86   88  155 1
    87   89  155 2
    88   90  100 1
    89   91   92 1
    90   93   91 1
    91   94   95 1
    92   96   94 1
    93   97   96 1
    94   98   96 1
    95   99   98 1
    96  100   98 1
    97  101  100 1
    98  102   82 1
    99  103  102 1
   100  104   94 1
   101  105  104 1
   102  106  104 1
   103  107   83 1
   104  108  107 1
   105  109  107 1
   106  110  107 1
   107  111  110 ar
   108  112  111 1
   109  113  111 ar
   110  114  113 1
   111  115  113 ar
   112  116  115 1
   113  117  115 ar
   114  118  117 1
   115  119  110 ar
   116  120  119 1
   117  121   84 1
   118  122  121 1
   119  123  121 1
   120  124  121 1
   121  125  124 ar
   122  126  125 1
   123  127  125 ar
   124  128  127 1
   125  129  127 ar
   126  130  129 1
   127  131  129 ar
   128  132  131 1
   129  133  124 ar
   130  134  133 1
   131  135   85 1
   132  136  135 1
   133  137  135 1
   134  138  135 1
   135  139  138 ar
   136  140  139 1
   137  141  139 ar
   138  142  141 1
   139  143  141 ar
   140  144  143 1
   141  145  143 ar
   142  146  145 1
   143  147  138 ar
   144  148  147 1
   145  149  102 1
   146  150   91 1
   147  151  150 1
   148  152  151 1
   149  153  151 1
   150  154  151 1
   151  155  149 1
   152  156   88 1
   153  157  156 1
   154  158  156 1
   155  159  156 1
   156  160  159 1
   157  161  159 1
   158  162  159 1
   159   19   21 1
   160   36   38 ar
   161   50   52 ar
   162   64   66 ar
   163   68   69 2
   164  100  102 1
   165  117  119 ar
   166  131  133 ar
   167  145  147 ar
   168  149  150 2
@<TRIPOS>SUBSTRUCTURE
     1 RES1 1
     2 RES2 82

@<TRIPOS>CRYSIN
   9.8359   19.7190   32.3420  90.0000  90.0000  90.0000  19 1

