# MOL2 file generated by ConQuest
# Please check atom types

@<TRIPOS>MOLECULE
OLIHOG
    70    73     1
SMALL
NO_CHARGES
****
Generated from CSD

@<TRIPOS>ATOM
      1 C1        -7.1835    3.0044   15.1002 C.3       1 RES1    0.0000
      2 H1        -6.5779    2.3200   15.3937 H         1 RES1    0.0000
      3 H2        -7.5735    2.7502   14.2613 H         1 RES1    0.0000
      4 H3        -7.8775    3.1183   15.7548 H         1 RES1    0.0000
      5 C2        -7.0590    5.3933   14.7735 C.3       1 RES1    0.0000
      6 H4        -7.8428    5.3912   15.3274 H         1 RES1    0.0000
      7 H5        -7.3172    5.4811   13.8524 H         1 RES1    0.0000
      8 H6        -6.4953    6.1295   15.0191 H         1 RES1    0.0000
      9 C3        -6.4282    4.3087   14.9319 C.3       1 RES1    0.0000
     10 H7        -6.1357    4.4366   15.8592 H         1 RES1    0.0000
     11 C4        -5.1101    4.0362   14.3105 C.3       1 RES1    0.0000
     12 H8        -4.5870    3.4564   14.8865 H         1 RES1    0.0000
     13 H9        -5.2340    3.5870   13.4594 H         1 RES1    0.0000
     14 O1        -4.4184    5.2794   14.1090 O.3       1 RES1    0.0000
     15 C5        -3.1656    5.2732   13.6276 C.ar      1 RES1    0.0000
     16 C6        -2.4522    4.1751   13.2788 C.ar      1 RES1    0.0000
     17 H10       -2.8214    3.3259   13.3611 H         1 RES1    0.0000
     18 C7        -1.1466    4.3431   12.7888 C.ar      1 RES1    0.0000
     19 N1        -0.5447    5.5031   12.6236 N.ar      1 RES1    0.0000
     20 C8        -1.2550    6.6044   12.9742 C.ar      1 RES1    0.0000
     21 C9        -2.5846    6.5569   13.4827 C.ar      1 RES1    0.0000
     22 C10       -3.2617    7.7358   13.8413 C.ar      1 RES1    0.0000
     23 H11       -4.1211    7.6812   14.1938 H         1 RES1    0.0000
     24 C11       -2.6820    8.9484   13.6792 C.ar      1 RES1    0.0000
     25 H12       -3.1397    9.7186   13.9261 H         1 RES1    0.0000
     26 C12       -1.4068    9.0391   13.1462 C.ar      1 RES1    0.0000
     27 H13       -1.0165    9.8727   13.0148 H         1 RES1    0.0000
     28 C13       -0.7204    7.9061   12.8121 C.ar      1 RES1    0.0000
     29 N2         0.6151    8.0760   12.2668 N.pl3     1 RES1    0.0000
     30 O2         1.5258    7.4134   12.7249 O.2       1 RES1    0.0000
     31 O3         0.7711    8.9283   11.4022 O.2       1 RES1    0.0000
     32 C14       -0.3823    3.0913   12.4498 C.2       1 RES1    0.0000
     33 O4        -0.9029    2.0032   12.6377 O.2       1 RES1    0.0000
     34 N3         0.8466    3.2719   11.9375 N.am      1 RES1    0.0000
     35 H14        1.0920    4.0856   11.8112 H         1 RES1    0.0000
     36 C15        1.7723    2.2791   11.5852 C.ar      1 RES1    0.0000
     37 C16        1.5206    0.9310   11.6478 C.ar      1 RES1    0.0000
     38 H15        0.6904    0.6271   11.9364 H         1 RES1    0.0000
     39 C17        2.5087    0.0137   11.2806 C.ar      1 RES1    0.0000
     40 H16        2.3176   -0.8946   11.3273 H         1 RES1    0.0000
     41 C18        3.7314    0.4009   10.8606 C.ar      1 RES1    0.0000
     42 H17        4.3711   -0.2311   10.6260 H         1 RES1    0.0000
     43 C19        4.0227    1.7669   10.7820 C.ar      1 RES1    0.0000
     44 C20        3.0495    2.7298   11.1209 C.ar      1 RES1    0.0000
     45 N4         3.2487    4.0788   11.0367 N.ar      1 RES1    0.0000
     46 C21        4.4461    4.4666   10.6395 C.ar      1 RES1    0.0000
     47 C22        5.4964    3.6086   10.3128 C.ar      1 RES1    0.0000
     48 H18        6.3235    3.9551   10.0660 H         1 RES1    0.0000
     49 C23        5.3034    2.2607   10.3546 C.ar      1 RES1    0.0000
     50 C24        4.7400    5.9324   10.5486 C.2       1 RES1    0.0000
     51 O5         5.8421    6.3677   10.4614 O.2       1 RES1    0.0000
     52 O6         3.6821    6.6948   10.5462 O.3       1 RES1    0.0000
     53 C25        3.9194    8.1255   10.4320 C.3       1 RES1    0.0000
     54 H19        3.0802    8.5908   10.4418 H         1 RES1    0.0000
     55 H20        4.3778    8.3104    9.6091 H         1 RES1    0.0000
     56 H21        4.4569    8.4195   11.1701 H         1 RES1    0.0000
     57 O7         6.1947    1.3171   10.0187 O.3       1 RES1    0.0000
     58 C26        7.5175    1.7513    9.6300 C.3       1 RES1    0.0000
     59 H22        7.9640    2.1680   10.3841 H         1 RES1    0.0000
     60 H23        7.4555    2.4013    8.9140 H         1 RES1    0.0000
     61 C27        8.3066    0.5404    9.1657 C.3       1 RES1    0.0000
     62 H24        8.3728   -0.1006    9.9038 H         1 RES1    0.0000
     63 C28        7.6687   -0.1340    7.9928 C.3       1 RES1    0.0000
     64 H25        8.1873   -0.9032    7.7447 H         1 RES1    0.0000
     65 H26        7.6308    0.4773    7.2535 H         1 RES1    0.0000
     66 H27        6.7802   -0.4109    8.2262 H         1 RES1    0.0000
     67 C29        9.7092    1.0275    8.8010 C.3       1 RES1    0.0000
     68 H28       10.2414    0.2825    8.5111 H         1 RES1    0.0000
     69 H29       10.1173    1.4318    9.5698 H         1 RES1    0.0000
     70 H30        9.6500    1.6736    8.0935 H         1 RES1    0.0000
@<TRIPOS>BOND
     1    1    2 1
     2    3    1 1
     3    4    1 1
     4    5    6 1
     5    7    5 1
     6    8    5 1
     7    9    1 1
     8   10    9 1
     9   11    9 1
    10   12   11 1
    11   13   11 1
    12   14   11 1
    13   15   14 1
    14   16   15 ar
    15   17   16 1
    16   18   16 ar
    17   19   18 ar
    18   20   19 ar
    19   21   15 ar
    20   22   21 ar
    21   23   22 1
    22   24   22 ar
    23   25   24 1
    24   26   24 ar
    25   27   26 1
    26   28   20 ar
    27   29   28 1
    28   30   29 2
    29   31   29 2
    30   32   18 1
    31   33   32 2
    32   34   32 1
    33   35   34 1
    34   36   34 1
    35   37   36 ar
    36   38   37 1
    37   39   37 ar
    38   40   39 1
    39   41   39 ar
    40   42   41 1
    41   43   41 ar
    42   44   36 ar
    43   45   44 ar
    44   46   45 ar
    45   47   46 ar
    46   48   47 1
    47   49   43 ar
    48   50   46 1
    49   51   50 2
    50   52   50 1
    51   53   52 1
    52   54   53 1
    53   55   53 1
    54   56   53 1
    55   57   49 1
    56   58   57 1
    57   59   58 1
    58   60   58 1
    59   61   58 1
    60   62   61 1
    61   63   61 1
    62   64   63 1
    63   65   63 1
    64   66   63 1
    65   67   61 1
    66   68   67 1
    67   69   67 1
    68   70   67 1
    69    5    9 1
    70   20   21 ar
    71   26   28 ar
    72   43   44 ar
    73   47   49 ar
@<TRIPOS>SUBSTRUCTURE
     1 RES1 1

@<TRIPOS>CRYSIN
  10.4970   21.4020   12.2950  90.0000  92.6800  90.0000 231 1

