# MOL2 file generated by ConQuest
# Please check atom types

@<TRIPOS>MOLECULE
OLIHUM
    26    27     1
SMALL
NO_CHARGES
****
Generated from CSD

@<TRIPOS>ATOM
      1 C1         4.7199   -1.6835   11.9637 C.ar      1 RES1    0.0000
      2 C2         5.9009   -2.0211   11.2659 C.ar      1 RES1    0.0000
      3 C3         5.8595   -3.1339   10.3985 C.ar      1 RES1    0.0000
      4 C4         4.6685   -3.8465   10.2479 C.ar      1 RES1    0.0000
      5 H1         4.6432   -4.5800    9.6768 H         1 RES1    0.0000
      6 C5         3.5374   -3.4829   10.9270 C.ar      1 RES1    0.0000
      7 H2         2.7493   -3.9614   10.8042 H         1 RES1    0.0000
      8 C6         3.5632   -2.4079   11.7928 C.ar      1 RES1    0.0000
      9 H3         2.7958   -2.1727   12.2630 H         1 RES1    0.0000
     10 N1         4.6711   -0.5615   12.8990 N.pl3     1 RES1    0.0000
     11 N2         7.0698   -1.3248   11.3870 N.pl3     1 RES1    0.0000
     12 H4         7.1060   -0.6613   11.9334 H         1 RES1    0.0000
     13 C7         8.1756   -1.6506   10.6715 C.2       1 RES1    0.0000
     14 C8         8.2168   -2.6986    9.8292 C.2       1 RES1    0.0000
     15 H5         8.9955   -2.8788    9.3542 H         1 RES1    0.0000
     16 C9         7.0615   -3.5444    9.6581 C.2       1 RES1    0.0000
     17 C10        9.3080   -0.7179   10.9408 C.2       1 RES1    0.0000
     18 O1         9.2166    0.2077   11.6986 O.2       1 RES1    0.0000
     19 O2        10.3975   -1.0362   10.2537 O.3       1 RES1    0.0000
     20 C11       11.5553   -0.2114   10.5230 C.3       1 RES1    0.0000
     21 H6        12.2923   -0.5087    9.9837 H         1 RES1    0.0000
     22 H7        11.7893   -0.2821   11.4512 H         1 RES1    0.0000
     23 H8        11.3530    0.7028   10.3115 H         1 RES1    0.0000
     24 O3         7.0738   -4.5520    8.9353 O.2       1 RES1    0.0000
     25 O4         3.6338   -0.3614   13.5144 O.2       1 RES1    0.0000
     26 O5         5.6601    0.1494   13.0371 O.2       1 RES1    0.0000
@<TRIPOS>BOND
     1    1    2 ar
     2    2    3 ar
     3    3    4 ar
     4    4    5 1
     5    6    4 ar
     6    7    6 1
     7    8    1 ar
     8    9    8 1
     9   10    1 1
    10   11    2 1
    11   12   11 1
    12   13   11 1
    13   14   13 2
    14   15   14 1
    15   16    3 1
    16   17   13 1
    17   18   17 2
    18   19   17 1
    19   20   19 1
    20   21   20 1
    21   22   20 1
    22   23   20 1
    23   24   16 2
    24   25   10 2
    25   26   10 2
    26    6    8 ar
    27   14   16 1
@<TRIPOS>SUBSTRUCTURE
     1 RES1 1

@<TRIPOS>CRYSIN
  11.1580    5.3940   17.5590  90.0000  93.0800  90.0000 231 1

