# MOL2 file generated by ConQuest
# Please check atom types

@<TRIPOS>MOLECULE
OLIJEY
    38    39     1
SMALL
NO_CHARGES
****
Generated from CSD

@<TRIPOS>ATOM
      1 C1         3.0376   11.8890    1.3379 C.ar      1 RES1    0.0000
      2 N1         4.0839   12.7600    1.3860 N.ar      1 RES1    0.0000
      3 C2         5.2723   12.2142    1.3991 C.ar      1 RES1    0.0000
      4 C3         4.4804    9.9878    1.3812 C.ar      1 RES1    0.0000
      5 C4         3.1518   10.5041    1.3922 C.ar      1 RES1    0.0000
      6 C5         5.5296   10.8566    1.3647 C.ar      1 RES1    0.0000
      7 H1         6.4037   10.5405    1.3317 H         1 RES1    0.0000
      8 O1         4.5855    8.6348    1.3503 O.3       1 RES1    0.0000
      9 C6         6.4758   13.0920    1.3908 C.2       1 RES1    0.0000
     10 O2         6.1824   14.3723    1.3812 O.3       1 RES1    0.0000
     11 O3         7.5981   12.6508    1.4046 O.2       1 RES1    0.0000
     12 C7         1.7080   12.4052    1.3317 C.ar      1 RES1    0.0000
     13 C8         2.0204    9.6990    1.3475 C.ar      1 RES1    0.0000
     14 H2         2.1205    8.7780    1.2794 H         1 RES1    0.0000
     15 C9         0.7859   10.2244    1.4025 C.ar      1 RES1    0.0000
     16 H3         0.0471    9.6672    1.4905 H         1 RES1    0.0000
     17 C10        0.6107   11.6229    1.3200 C.ar      1 RES1    0.0000
     18 H4        -0.2403   11.9936    1.2643 H         1 RES1    0.0000
     19 N2         1.5248   13.8243    1.3269 N.pl3     1 RES1    0.0000
     20 O4         1.5078   14.4041    2.3788 O.2       1 RES1    0.0000
     21 O5         1.3767   14.3473    0.2888 O.2       1 RES1    0.0000
     22 C11        5.9361    8.0640    1.3956 C.3       1 RES1    0.0000
     23 H5         6.3816    8.3414    2.2124 H         1 RES1    0.0000
     24 H6         6.4547    8.3846    0.6428 H         1 RES1    0.0000
     25 C12        7.2927   15.3343    1.2574 C.3       1 RES1    0.0000
     26 H7         6.9433   16.2280    1.2671 H         1 RES1    0.0000
     27 H8         7.7583   15.1796    0.4324 H         1 RES1    0.0000
     28 H9         7.8985   15.2183    1.9931 H         1 RES1    0.0000
     29 C13        5.8410    6.5358    1.3503 C.3       1 RES1    0.0000
     30 H10        6.7741    6.2401    1.3551 H         1 RES1    0.0000
     31 C14        5.3324    6.0878    2.5939 C.3       1 RES1    0.0000
     32 H11        5.8110    6.5153    3.3083 H         1 RES1    0.0000
     33 H12        5.4395    5.1372    2.6599 H         1 RES1    0.0000
     34 H13        4.4003    6.3106    2.6572 H         1 RES1    0.0000
     35 C15        5.3414    6.0900    0.0859 C.3       1 RES1    0.0000
     36 H14        5.8280    6.5221   -0.6201 H         1 RES1    0.0000
     37 H15        4.4093    6.3129    0.0138 H         1 RES1    0.0000
     38 H16        5.4495    5.1395    0.0165 H         1 RES1    0.0000
@<TRIPOS>BOND
     1    1    2 ar
     2    2    3 ar
     3    3    6 ar
     4    4    5 ar
     5    5    1 ar
     6    6    4 ar
     7    7    6 1
     8    8    4 1
     9    9    3 1
    10   10    9 1
    11   11    9 2
    12   12    1 ar
    13   13    5 ar
    14   14   13 1
    15   15   13 ar
    16   16   15 1
    17   17   12 ar
    18   18   17 1
    19   19   12 1
    20   20   19 2
    21   21   19 2
    22   22    8 1
    23   23   22 1
    24   24   22 1
    25   25   10 1
    26   26   25 1
    27   27   25 1
    28   28   25 1
    29   29   22 1
    30   30   29 1
    31   31   29 1
    32   32   31 1
    33   33   31 1
    34   34   31 1
    35   35   29 1
    36   36   35 1
    37   37   35 1
    38   38   35 1
    39   15   17 ar
@<TRIPOS>SUBSTRUCTURE
     1 RES1 1

@<TRIPOS>CRYSIN
  10.0120   22.7410    6.8750  90.0000  90.0000  90.0000  33 1

