# MOL2 file generated by ConQuest
# Please check atom types

@<TRIPOS>MOLECULE
OLIVIP01
    34    33     2
SMALL
NO_CHARGES
****
Generated from CSD

@<TRIPOS>ATOM
      1 C1         1.3093    8.6925    0.8705 C.3       1 RES1    0.0000
      2 H1         0.7969    9.2961    0.2932 H         1 RES1    0.0000
      3 H2         1.4729    7.8491    0.3991 H         1 RES1    0.0000
      4 H3         2.1655    9.1088    1.1003 H         1 RES1    0.0000
      5 O1         0.5590    8.4307    2.0816 O.3       1 RES1    0.0000
      6 N1         0.2496    9.6480    2.6896 N.am      1 RES1    0.0000
      7 C2         1.0850   10.0584    3.7374 C.ar      1 RES1    0.0000
      8 C3         2.1478    9.2580    4.1534 C.ar      1 RES1    0.0000
      9 H4         2.3150    8.4314    3.7164 H         1 RES1    0.0000
     10 C4         2.9597    9.6581    5.1975 C.ar      1 RES1    0.0000
     11 C5         4.0959    8.7972    5.6661 C.3       1 RES1    0.0000
     12 H5         3.8479    8.3584    6.5073 H         1 RES1    0.0000
     13 H6         4.8899    9.3532    5.8086 H         1 RES1    0.0000
     14 H7         4.2909    8.1172    4.9888 H         1 RES1    0.0000
     15 C6         2.6880   10.8806    5.8177 C.ar      1 RES1    0.0000
     16 H8         3.2360   11.1683    6.5379 H         1 RES1    0.0000
     17 C7         1.6467   11.6736    5.4071 C.ar      1 RES1    0.0000
     18 H9         1.4898   12.4995    5.8494 H         1 RES1    0.0000
     19 C8         0.8093   11.2935    4.3483 C.ar      1 RES1    0.0000
     20 C9        -0.3088   12.0966    3.8701 C.ar      1 RES1    0.0000
     21 C10       -0.6056   13.3750    4.3788 C.ar      1 RES1    0.0000
     22 H10       -0.0568   13.7450    5.0602 H         1 RES1    0.0000
     23 C11       -1.6733   14.0945    3.9082 C.ar      1 RES1    0.0000
     24 H11       -1.8457   14.9603    4.2570 H         1 RES1    0.0000
     25 C12       -2.5075   13.5690    2.9238 C.ar      1 RES1    0.0000
     26 H12       -3.2563   14.0671    2.6174 H         1 RES1    0.0000
     27 C13       -2.2396   12.3245    2.3983 C.ar      1 RES1    0.0000
     28 H13       -2.8045   11.9632    1.7250 H         1 RES1    0.0000
     29 C14       -1.1373   11.5911    2.8531 C.ar      1 RES1    0.0000
     30 C15       -0.8699   10.2872    2.2272 C.2       1 RES1    0.0000
     31 O2        -1.5531    9.7990    1.3236 O.2       1 RES1    0.0000
     32 H14        4.8375    8.8597    5.0296 Du        2 SUP2    0.0000
     33 H15        3.7962    7.8665    5.7270 Du        2 SUP2    0.0000
     34 H16        4.3951    9.1025    6.5481 Du        2 SUP2    0.0000
@<TRIPOS>BOND
     1    1    2 1
     2    3    1 1
     3    4    1 1
     4    5    1 1
     5    6    5 1
     6    7    6 1
     7    8    7 ar
     8    9    8 1
     9   10    8 ar
    10   11   10 1
    11   12   11 1
    12   13   11 1
    13   14   11 1
    14   15   10 ar
    15   16   15 1
    16   17   15 ar
    17   18   17 1
    18   19    7 ar
    19   20   19 1
    20   21   20 ar
    21   22   21 1
    22   23   21 ar
    23   24   23 1
    24   25   23 ar
    25   26   25 1
    26   27   25 ar
    27   28   27 1
    28   29   20 ar
    29   30    6 1
    30   31   30 2
    31   17   19 ar
    32   27   29 ar
    33   29   30 1
@<TRIPOS>SUBSTRUCTURE
     1 RES1 1
     2 SUP2 32

@<TRIPOS>CRYSIN
   5.9394   15.8663   12.7939  90.0000  94.7810  90.0000 231 1

