# MOL2 file generated by ConQuest
# Please check atom types

@<TRIPOS>MOLECULE
OLOHEC
    29    30     1
SMALL
NO_CHARGES
****
Generated from CSD

@<TRIPOS>ATOM
      1 C1         5.5092    0.9131    7.0857 C.2       1 RES1    0.0000
      2 C2         6.6648    0.1966    7.4736 C.2       1 RES1    0.0000
      3 H1         6.8315    0.0583    8.3776 H         1 RES1    0.0000
      4 C3         7.5402   -0.2969    6.5511 C.2       1 RES1    0.0000
      5 H2         8.2950   -0.7565    6.8408 H         1 RES1    0.0000
      6 C4         7.3279   -0.1269    5.1798 C.2       1 RES1    0.0000
      7 H3         7.9276   -0.4830    4.5645 H         1 RES1    0.0000
      8 C5         6.2338    0.5662    4.7532 C.2       1 RES1    0.0000
      9 H4         6.0925    0.6837    3.8415 H         1 RES1    0.0000
     10 C6         5.3095    1.1100    5.6772 C.2       1 RES1    0.0000
     11 C7         4.2137    1.8492    5.2068 C.2       1 RES1    0.0000
     12 H5         4.0946    1.9337    4.2885 H         1 RES1    0.0000
     13 C8         2.2229    3.1891    5.6583 C.ar      1 RES1    0.0000
     14 C9         1.5774    3.8462    6.7123 C.ar      1 RES1    0.0000
     15 C10        0.4406    4.5910    6.4550 C.ar      1 RES1    0.0000
     16 H6        -0.0111    5.0213    7.1451 H         1 RES1    0.0000
     17 C11       -0.0092    4.6831    5.1595 C.ar      1 RES1    0.0000
     18 C12        0.6198    4.0641    4.1028 C.ar      1 RES1    0.0000
     19 H7         0.2971    4.1572    3.2352 H         1 RES1    0.0000
     20 C13        1.7387    3.3038    4.3629 C.ar      1 RES1    0.0000
     21 H8         2.1722    2.8650    3.6669 H         1 RES1    0.0000
     22 N1         3.3521    2.4239    6.0053 N.pl3     1 RES1    0.0000
     23 N2        -1.2226    5.4635    4.9055 N.pl3     1 RES1    0.0000
     24 O1         4.6651    1.3703    7.9588 O.2       1 RES1    0.0000
     25 O2         2.1221    3.7194    7.9368 O.3       1 RES1    0.0000
     26 O3        -1.8278    5.9080    5.8599 O.2       1 RES1    0.0000
     27 O4        -1.5827    5.6319    3.7528 O.2       1 RES1    0.0000
     28 H9         3.5723    2.2736    6.9281 H         1 RES1    0.0000
     29 H10        1.7858    4.3530    8.5310 H         1 RES1    0.0000
@<TRIPOS>BOND
     1    1    2 1
     2    2    3 1
     3    4    2 2
     4    5    4 1
     5    6    4 1
     6    7    6 1
     7    8    6 2
     8    9    8 1
     9   10    1 1
    10   11   10 2
    11   12   11 1
    12   13   14 ar
    13   14   15 ar
    14   15   16 1
    15   17   15 ar
    16   18   17 ar
    17   19   18 1
    18   20   13 ar
    19   21   20 1
    20   22   11 1
    21   23   17 1
    22   24    1 2
    23   25   14 1
    24   26   23 2
    25   27   23 2
    26   28   22 1
    27   29   25 1
    28    8   10 1
    29   13   22 1
    30   18   20 ar
@<TRIPOS>SUBSTRUCTURE
     1 RES1 1

@<TRIPOS>CRYSIN
  11.9528    8.0910   12.4205  90.0000 108.2680  90.0000  14 1

