# MOL2 file generated by ConQuest
# Please check atom types

@<TRIPOS>MOLECULE
OLUDOO
    64    66     2
SMALL
NO_CHARGES
****
Generated from CSD

@<TRIPOS>ATOM
      1 O1         9.4124    9.2400    8.7554 O.2       1 RES1    0.0000
      2 O2         8.4163    3.5470    8.8406 O.2       2 RES2    0.0000
      3 N1         8.9177   10.4251    8.7851 N.3       1 RES1    0.0000
      4 N2         6.2115   11.8859    4.1002 N.pl3     1 RES1    0.0000
      5 N3         6.0811   13.1821    3.7043 N.2       1 RES1    0.0000
      6 N4         5.1928   11.7937    2.1696 N.2       1 RES1    0.0000
      7 N5         4.5167    7.4592    4.1494 N.2       2 RES2    0.0000
      8 N6         4.9752    6.1972    4.3715 N.pl3     2 RES2    0.0000
      9 N7         3.9848    6.1096    2.4140 N.2       2 RES2    0.0000
     10 N8         7.7246    4.6094    9.0021 N.pl3     2 RES2    0.0000
     11 C1         8.7592    4.4693   11.2059 C.3       2 RES2    0.0000
     12 C2         8.0838    6.6796   10.3509 C.3       2 RES2    0.0000
     13 C3         6.3650    4.9844   11.0123 C.3       2 RES2    0.0000
     14 C4         7.7216    5.2071   10.3822 C.3       2 RES2    0.0000
     15 C5         7.0121    5.0822    7.8769 C.ar      2 RES2    0.0000
     16 C6         6.1050    6.1395    7.8864 C.ar      2 RES2    0.0000
     17 C7         5.4494    6.5230    6.7416 C.ar      2 RES2    0.0000
     18 C8         5.6707    5.8419    5.5568 C.ar      2 RES2    0.0000
     19 C9         6.5687    4.7971    5.5309 C.ar      2 RES2    0.0000
     20 C10        7.2250    4.4137    6.6689 C.ar      2 RES2    0.0000
     21 C11        4.6376    5.4264    3.3267 C.2       2 RES2    0.0000
     22 C12        3.9507    7.3314    2.9737 C.2       2 RES2    0.0000
     23 C13        5.6776   11.0864    3.1720 C.2       1 RES1    0.0000
     24 C14        5.4592   13.0480    2.5580 C.2       1 RES1    0.0000
     25 C15        6.8618   11.5408    5.3138 C.ar      1 RES1    0.0000
     26 C16        6.6329   10.3061    5.9025 C.ar      1 RES1    0.0000
     27 C17        7.3055    9.9677    7.0470 C.ar      1 RES1    0.0000
     28 C18        8.2003   10.8525    7.6364 C.ar      1 RES1    0.0000
     29 C19        8.4161   12.0851    7.0462 C.ar      1 RES1    0.0000
     30 C20        7.7513   12.4281    5.8930 C.ar      1 RES1    0.0000
     31 C21        9.0161   11.1394   10.0939 C.3       1 RES1    0.0000
     32 C22        8.1720   12.4003   10.1134 C.3       1 RES1    0.0000
     33 C23       10.4678   11.4581   10.3544 C.3       1 RES1    0.0000
     34 C24        8.4945   10.1870   11.1515 C.3       1 RES1    0.0000
     35 H1         9.6285    4.6068   10.8223 H         2 RES2    0.0000
     36 H2         8.5562    3.5305   11.2095 H         2 RES2    0.0000
     37 H3         8.7494    4.8020   12.1061 H         2 RES2    0.0000
     38 H4         8.9525    6.7868    9.9566 H         2 RES2    0.0000
     39 H5         8.0946    7.0251   11.2463 H         2 RES2    0.0000
     40 H6         7.4348    7.1579    9.8307 H         2 RES2    0.0000
     41 H7         5.6941    5.4367   10.4958 H         2 RES2    0.0000
     42 H8         6.3678    5.3311   11.9078 H         2 RES2    0.0000
     43 H9         6.1725    4.0437   11.0337 H         2 RES2    0.0000
     44 H10        5.9403    6.5933    8.6811 H         2 RES2    0.0000
     45 H11        4.8569    7.2395    6.7620 H         2 RES2    0.0000
     46 H12        6.7300    4.3485    4.7325 H         2 RES2    0.0000
     47 H13        7.8205    3.7002    6.6373 H         2 RES2    0.0000
     48 H14        4.8416    4.5219    3.2575 H         2 RES2    0.0000
     49 H15        3.5459    8.0520    2.5473 H         2 RES2    0.0000
     50 H16        5.6503   10.1579    3.2254 H         1 RES1    0.0000
     51 H17        5.2167   13.7829    2.0414 H         1 RES1    0.0000
     52 H18        6.0262    9.7123    5.5234 H         1 RES1    0.0000
     53 H19        7.1622    9.1346    7.4342 H         1 RES1    0.0000
     54 H20        9.0133   12.6844    7.4318 H         1 RES1    0.0000
     55 H21        7.8989   13.2585    5.5008 H         1 RES1    0.0000
     56 H22        7.2531   12.1730    9.9542 H         1 RES1    0.0000
     57 H23        8.4762   13.0004    9.4281 H         1 RES1    0.0000
     58 H24        8.2517   12.8254   10.9708 H         1 RES1    0.0000
     59 H25       10.9815   10.6470   10.3354 H         1 RES1    0.0000
     60 H26       10.5541   11.8714   11.2166 H         1 RES1    0.0000
     61 H27       10.7906   12.0577    9.6787 H         1 RES1    0.0000
     62 H28        7.5711    9.9903   10.9779 H         1 RES1    0.0000
     63 H29        8.5769   10.5928   12.0170 H         1 RES1    0.0000
     64 H30        9.0048    9.3735   11.1299 H         1 RES1    0.0000
@<TRIPOS>BOND
     1    1    3 1
     2    2   10 1
     3    3   28 1
     4    4    5 1
     5    5   24 2
     6    6   23 2
     7    7    8 1
     8    8   18 1
     9    9   21 2
    10   10   14 1
    11   11   14 1
    12   12   14 1
    13   13   14 1
    14   15   10 1
    15   16   15 ar
    16   17   16 ar
    17   18   17 ar
    18   19   18 ar
    19   20   15 ar
    20   21    8 1
    21   22    7 2
    22   23    4 1
    23   24    6 1
    24   25    4 1
    25   26   25 ar
    26   27   26 ar
    27   28   27 ar
    28   29   28 ar
    29   30   25 ar
    30   31    3 1
    31   32   31 1
    32   33   31 1
    33   34   31 1
    34   35   11 1
    35   36   11 1
    36   37   11 1
    37   38   12 1
    38   39   12 1
    39   40   12 1
    40   41   13 1
    41   42   13 1
    42   43   13 1
    43   44   16 1
    44   45   17 1
    45   46   19 1
    46   47   20 1
    47   48   21 1
    48   49   22 1
    49   50   23 1
    50   51   24 1
    51   52   26 1
    52   53   27 1
    53   54   29 1
    54   55   30 1
    55   56   32 1
    56   57   32 1
    57   58   32 1
    58   59   33 1
    59   60   33 1
    60   61   33 1
    61   62   34 1
    62   63   34 1
    63   64   34 1
    64    9   22 1
    65   19   20 ar
    66   29   30 ar
@<TRIPOS>SUBSTRUCTURE
     1 RES1 1
     2 RES2 2

@<TRIPOS>CRYSIN
   9.3166   11.3665   12.5368  81.3960  71.7620  74.5698   2 1

