# MOL2 file generated by ConQuest
# Please check atom types

@<TRIPOS>MOLECULE
OLUMEP
    78    82     2
SMALL
NO_CHARGES
****
Generated from CSD

@<TRIPOS>ATOM
      1 O1        -0.3608    9.8535   10.8132 O.2       1 RES1    0.0000
      2 O2         3.1410    4.8088    8.1262 O.2       1 RES1    0.0000
      3 O3         6.0398    6.1699    8.5997 O.2       1 RES1    0.0000
      4 O4         5.5543    6.5512    6.5291 O.2       1 RES1    0.0000
      5 N1         1.9451    7.4985   13.2045 N.2       1 RES1    0.0000
      6 N2         0.4276    7.8182   11.4003 N.am      1 RES1    0.0000
      7 N3         2.7349    6.0572   10.0102 N.am      1 RES1    0.0000
      8 H1         2.8721    6.8511   10.3643 H         1 RES1    0.0000
      9 N4         5.2732    6.5767    7.7249 N.pl3     1 RES1    0.0000
     10 C1         1.9180    8.8608   13.4276 C.ar      1 RES1    0.0000
     11 C2         2.7109    9.4037   14.4507 C.ar      1 RES1    0.0000
     12 H2         3.2431    8.8318   14.9915 H         1 RES1    0.0000
     13 C3         2.7197   10.7683   14.6724 C.ar      1 RES1    0.0000
     14 H3         3.2720   11.1333   15.3540 H         1 RES1    0.0000
     15 C4         1.9217   11.6110   13.8994 C.ar      1 RES1    0.0000
     16 H4         1.9223   12.5456   14.0702 H         1 RES1    0.0000
     17 C5         1.1373   11.1042   12.8988 C.ar      1 RES1    0.0000
     18 H5         0.5961   11.6877   12.3790 H         1 RES1    0.0000
     19 C6         1.1328    9.7280   12.6397 C.ar      1 RES1    0.0000
     20 C7         0.3536    9.1875   11.5641 C.2       1 RES1    0.0000
     21 C8        -0.4005    7.2254   10.3328 C.3       1 RES1    0.0000
     22 H6         0.0221    7.3858    9.4640 H         1 RES1    0.0000
     23 H7        -1.2905    7.6357   10.3433 H         1 RES1    0.0000
     24 H8        -0.4845    6.2606   10.4826 H         1 RES1    0.0000
     25 C9         1.2443    7.0370   12.2158 C.2       1 RES1    0.0000
     26 C10        1.3145    5.5829   11.9057 C.ar      1 RES1    0.0000
     27 C11        0.6380    4.6786   12.7236 C.ar      1 RES1    0.0000
     28 H9         0.1840    4.9889   13.4980 H         1 RES1    0.0000
     29 C12        0.6260    3.3349   12.4135 C.ar      1 RES1    0.0000
     30 H10        0.1602    2.7235   12.9707 H         1 RES1    0.0000
     31 C13        1.2869    2.8792   11.2975 C.ar      1 RES1    0.0000
     32 H11        1.2562    1.9563   11.0758 H         1 RES1    0.0000
     33 C14        2.0028    3.7626   10.4886 C.ar      1 RES1    0.0000
     34 H12        2.4803    3.4372    9.7337 H         1 RES1    0.0000
     35 C15        2.0140    5.1180   10.7882 C.ar      1 RES1    0.0000
     36 C16        3.2333    5.8386    8.7630 C.2       1 RES1    0.0000
     37 C17        3.9280    7.0556    8.1608 C.3       1 RES1    0.0000
     38 H13        3.4138    7.4044    7.3909 H         1 RES1    0.0000
     39 H14        4.0157    7.7752    8.8364 H         1 RES1    0.0000
     40 O5        12.2942    2.7537    4.0825 O.2       2 RES2    0.0000
     41 O6         9.8141    7.0475    7.0598 O.2       2 RES2    0.0000
     42 O7        10.0469    3.6859    6.0892 O.2       2 RES2    0.0000
     43 O8         8.8636    3.0129    7.7414 O.2       2 RES2    0.0000
     44 N5         9.7719    5.0436    1.8357 N.2       2 RES2    0.0000
     45 N6        11.4133    4.7751    3.5305 N.am      2 RES2    0.0000
     46 N7         9.0689    6.3931    5.0090 N.am      2 RES2    0.0000
     47 H15        8.5498    5.8200    4.5882 H         2 RES2    0.0000
     48 N8         9.1822    3.8440    6.9280 N.pl3     2 RES2    0.0000
     49 C18        9.8068    3.6696    1.6223 C.ar      2 RES2    0.0000
     50 C19        8.9678    3.1129    0.6441 C.ar      2 RES2    0.0000
     51 H16        8.4143    3.6754    0.1153 H         2 RES2    0.0000
     52 C20        8.9491    1.7540    0.4524 C.ar      2 RES2    0.0000
     53 H17        8.3794    1.3821   -0.2112 H         2 RES2    0.0000
     54 C21        9.7630    0.9043    1.2238 C.ar      2 RES2    0.0000
     55 H18        9.7348   -0.0360    1.0860 H         2 RES2    0.0000
     56 C22       10.6005    1.4355    2.1810 C.ar      2 RES2    0.0000
     57 H19       11.1576    0.8671    2.6993 H         2 RES2    0.0000
     58 C23       10.6246    2.8269    2.3802 C.ar      2 RES2    0.0000
     59 C24       11.5028    3.3918    3.3884 C.2       2 RES2    0.0000
     60 C25       12.2937    5.3783    4.5433 C.3       2 RES2    0.0000
     61 H20       12.5005    6.3013    4.2871 H         2 RES2    0.0000
     62 H21       13.1246    4.8622    4.6032 H         2 RES2    0.0000
     63 H22       11.8421    5.3737    5.4136 H         2 RES2    0.0000
     64 C26       10.5345    5.5108    2.7712 C.2       2 RES2    0.0000
     65 C27       10.4348    6.9708    3.0978 C.ar      2 RES2    0.0000
     66 C28       11.0343    7.9181    2.2904 C.ar      2 RES2    0.0000
     67 H23       11.4714    7.6485    1.4905 H         2 RES2    0.0000
     68 C29       11.0050    9.2653    2.6394 C.ar      2 RES2    0.0000
     69 H24       11.4339    9.9139    2.0941 H         2 RES2    0.0000
     70 C30       10.3364    9.6466    3.8003 C.ar      2 RES2    0.0000
     71 H25       10.3222   10.5625    4.0534 H         2 RES2    0.0000
     72 C31        9.6979    8.7213    4.5852 C.ar      2 RES2    0.0000
     73 H26        9.2272    9.0003    5.3612 H         2 RES2    0.0000
     74 C32        9.7379    7.3695    4.2437 C.ar      2 RES2    0.0000
     75 C33        9.1759    6.2850    6.3528 C.2       2 RES2    0.0000
     76 C34        8.4154    5.1296    6.9670 C.3       2 RES2    0.0000
     77 H27        8.2002    5.3493    7.9077 H         2 RES2    0.0000
     78 H28        7.5616    5.0110    6.4801 H         2 RES2    0.0000
@<TRIPOS>BOND
     1    1   20 2
     2    2   36 2
     3    3    9 2
     4    4    9 2
     5    5   10 1
     6    6   20 1
     7    7    8 1
     8    9   37 1
     9   10   11 ar
    10   11   12 1
    11   13   11 ar
    12   14   13 1
    13   15   13 ar
    14   16   15 1
    15   17   15 ar
    16   18   17 1
    17   19   10 ar
    18   20   19 1
    19   21    6 1
    20   22   21 1
    21   23   21 1
    22   24   21 1
    23   25    5 2
    24   26   25 1
    25   27   26 ar
    26   28   27 1
    27   29   27 ar
    28   30   29 1
    29   31   29 ar
    30   32   31 1
    31   33   31 ar
    32   34   33 1
    33   35    7 1
    34   36    7 1
    35   37   36 1
    36   38   37 1
    37   39   37 1
    38   40   59 2
    39   41   75 2
    40   42   48 2
    41   43   48 2
    42   44   49 1
    43   45   59 1
    44   46   47 1
    45   48   76 1
    46   49   50 ar
    47   50   51 1
    48   52   50 ar
    49   53   52 1
    50   54   52 ar
    51   55   54 1
    52   56   54 ar
    53   57   56 1
    54   58   49 ar
    55   59   58 1
    56   60   45 1
    57   61   60 1
    58   62   60 1
    59   63   60 1
    60   64   44 2
    61   65   64 1
    62   66   65 ar
    63   67   66 1
    64   68   66 ar
    65   69   68 1
    66   70   68 ar
    67   71   70 1
    68   72   70 ar
    69   73   72 1
    70   74   46 1
    71   75   46 1
    72   76   75 1
    73   77   76 1
    74   78   76 1
    75    6   25 1
    76   17   19 ar
    77   26   35 ar
    78   33   35 ar
    79   45   64 1
    80   56   58 ar
    81   65   74 ar
    82   72   74 ar
@<TRIPOS>SUBSTRUCTURE
     1 RES1 1
     2 RES2 40

@<TRIPOS>CRYSIN
   8.7416   11.6238   15.0455  90.0000  95.3700  90.0000   4 1

