# MOL2 file generated by ConQuest
# Please check atom types

@<TRIPOS>MOLECULE
OLUPAO
    27    28     1
SMALL
NO_CHARGES
****
Generated from CSD

@<TRIPOS>ATOM
      1 O1         3.1553    4.9450    2.8021 O.3       1 RES1    0.0000
      2 H1         2.4352    4.5585    2.8667 H         1 RES1    0.0000
      3 O2         3.8024    5.7886    6.6536 O.3       1 RES1    0.0000
      4 N1         3.4045    5.6748    3.9810 N.2       1 RES1    0.0000
      5 C1         4.8859    7.1778    5.0652 C.ar      1 RES1    0.0000
      6 C2         4.5196    6.2968    3.9319 C.2       1 RES1    0.0000
      7 C3         5.6384    8.3230    4.7759 C.ar      1 RES1    0.0000
      8 C4         4.4803    6.9424    6.3998 C.ar      1 RES1    0.0000
      9 C5         6.1753    8.5220    3.3836 C.3       1 RES1    0.0000
     10 H2         6.9348    9.1249    3.4085 H         1 RES1    0.0000
     11 H3         5.4912    8.9179    2.8217 H         1 RES1    0.0000
     12 C6         5.3941    6.2684    2.7059 C.3       1 RES1    0.0000
     13 H4         4.8651    6.5304    1.9366 H         1 RES1    0.0000
     14 H5         5.7008    5.3604    2.5588 H         1 RES1    0.0000
     15 C7         5.9081    9.2543    5.7792 C.ar      1 RES1    0.0000
     16 H6         6.3936   10.0231    5.5854 H         1 RES1    0.0000
     17 C8         6.6013    7.1857    2.8080 C.3       1 RES1    0.0000
     18 H7         7.2732    6.7811    3.3788 H         1 RES1    0.0000
     19 H8         6.9888    7.3160    1.9285 H         1 RES1    0.0000
     20 C9         4.7600    7.8748    7.3870 C.ar      1 RES1    0.0000
     21 H9         4.4863    7.7265    8.2632 H         1 RES1    0.0000
     22 C10        5.4507    9.0279    7.0590 C.ar      1 RES1    0.0000
     23 H10        5.6101    9.6645    7.7182 H         1 RES1    0.0000
     24 C11        3.7438    5.3205    7.9915 C.3       1 RES1    0.0000
     25 H11        3.2387    4.5051    8.0236 H         1 RES1    0.0000
     26 H12        4.6335    5.1598    8.3138 H         1 RES1    0.0000
     27 H13        3.3187    5.9815    8.5429 H         1 RES1    0.0000
@<TRIPOS>BOND
     1    1    2 1
     2    3    8 1
     3    4    1 1
     4    5    6 1
     5    6    4 2
     6    7    5 ar
     7    8    5 ar
     8    9    7 1
     9   10    9 1
    10   11    9 1
    11   12    6 1
    12   13   12 1
    13   14   12 1
    14   15    7 ar
    15   16   15 1
    16   17    9 1
    17   18   17 1
    18   19   17 1
    19   20    8 ar
    20   21   20 1
    21   22   15 ar
    22   23   22 1
    23   24    3 1
    24   25   24 1
    25   26   24 1
    26   27   24 1
    27   12   17 1
    28   20   22 ar
@<TRIPOS>SUBSTRUCTURE
     1 RES1 1

@<TRIPOS>CRYSIN
   8.1735    8.2652    8.5188  71.8550  87.5580  62.8470   2 1

