# MOL2 file generated by ConQuest
# Please check atom types

@<TRIPOS>MOLECULE
OMAHAL
    31    32     1
SMALL
USER_CHARGES
****
Generated from CSD

@<TRIPOS>ATOM
      1 O1        11.5814    3.0970    1.8142 O.2       1 RES1    0.0000
      2 O2         8.9717   -0.6147    2.7160 O.2       1 RES1   -1.0000
      3 N1        12.9995    0.7212    2.7698 N.2       1 RES1    0.0000
      4 N2        12.9532   -1.2091    3.8623 N.3       1 RES1    0.0000
      5 N3        10.5803    2.3047    1.8994 N.3       1 RES1    0.0000
      6 N4         9.3314    0.5530    2.3240 N.pl3     1 RES1    1.0000
      7 C1        13.7118   -0.2325    3.3288 C.2       1 RES1    0.0000
      8 C2        11.6877    0.3180    2.9566 C.2       1 RES1    0.0000
      9 C3        11.6582   -0.8782    3.6271 C.2       1 RES1    0.0000
     10 C4        10.5759    1.0573    2.4220 C.2       1 RES1    0.0000
     11 C5         9.1813    2.7732    1.5740 C.3       1 RES1    0.0000
     12 C6         8.4374    1.4090    1.4853 C.3       1 RES1    0.0000
     13 C7         9.1850    3.5862    0.2941 C.3       1 RES1    0.0000
     14 C8         8.7329    3.6348    2.7513 C.3       1 RES1    0.0000
     15 C9         8.4607    0.8059    0.0855 C.3       1 RES1    0.0000
     16 C10        7.0324    1.3936    2.0488 C.3       1 RES1    0.0000
     17 H1        14.6574   -0.2329    3.4004 H         1 RES1    0.0000
     18 H2        10.9577   -1.3871    3.9030 H         1 RES1    0.0000
     19 H3        13.2849   -1.9278    4.3200 H         1 RES1    0.0000
     20 H4         9.6850    3.0966   -0.3850 H         1 RES1    0.0000
     21 H5         9.6039    4.4817    0.4812 H         1 RES1    0.0000
     22 H6         8.2646    3.7517    0.0000 H         1 RES1    0.0000
     23 H7         9.3252    4.4172    2.8230 H         1 RES1    0.0000
     24 H8         7.8195    3.9680    2.5984 H         1 RES1    0.0000
     25 H9         8.7595    3.0987    3.6036 H         1 RES1    0.0000
     26 H10        9.3917    0.8235   -0.3101 H         1 RES1    0.0000
     27 H11        7.8174    1.3081   -0.4919 H         1 RES1    0.0000
     28 H12        8.1481   -0.1206    0.1925 H         1 RES1    0.0000
     29 H13        6.4865    2.0131    1.5612 H         1 RES1    0.0000
     30 H14        7.0500    1.6658    2.9941 H         1 RES1    0.0000
     31 H15        6.6799    0.4991    1.9782 H         1 RES1    0.0000
@<TRIPOS>BOND
     1    1    5 1
     2    2    6 1
     3    3    7 2
     4    4    7 1
     5    5   10 1
     6    6   10 2
     7    7   17 1
     8    8    3 1
     9    9    4 1
    10   10    8 1
    11   11    5 1
    12   12    6 1
    13   13   11 1
    14   14   11 1
    15   15   12 1
    16   16   12 1
    17   18    9 1
    18   19    4 1
    19   20   13 1
    20   21   13 1
    21   22   13 1
    22   23   14 1
    23   24   14 1
    24   25   14 1
    25   26   15 1
    26   27   15 1
    27   28   15 1
    28   29   16 1
    29   30   16 1
    30   31   16 1
    31    8    9 2
    32   11   12 1
@<TRIPOS>SUBSTRUCTURE
     1 RES1 1

@<TRIPOS>CRYSIN
  20.7966   20.7966   10.6931  90.0000  90.0000  90.0000  88 1

