# MOL2 file generated by ConQuest
# Please check atom types

@<TRIPOS>MOLECULE
OMAYUX
    58    56     2
SMALL
NO_CHARGES
****
Generated from CSD

@<TRIPOS>ATOM
      1 C1         6.0438    6.2478   -0.3273 C.ar      1 RES1    0.0000
      2 C2         7.2263    6.8443    0.0945 C.ar      1 RES1    0.0000
      3 H1         7.2498    7.2598    0.9276 H         1 RES1    0.0000
      4 C3         8.3535    6.8373   -0.6756 C.ar      1 RES1    0.0000
      5 H2         9.1302    7.2544   -0.3780 H         1 RES1    0.0000
      6 C4         8.3249    6.2035   -1.8972 C.ar      1 RES1    0.0000
      7 C5         7.1898    5.6210   -2.3592 C.ar      1 RES1    0.0000
      8 H3         7.1834    5.2070   -3.1906 H         1 RES1    0.0000
      9 C6         6.0570    5.6451   -1.5962 C.ar      1 RES1    0.0000
     10 H4         5.2787    5.2544   -1.9235 H         1 RES1    0.0000
     11 C7         4.8417    6.1662    0.4988 C.2       1 RES1    0.0000
     12 H5         4.0858    5.8175    0.0840 H         1 RES1    0.0000
     13 C8         4.6910    6.5251    1.7607 C.2       1 RES1    0.0000
     14 H6         5.4301    6.9204    2.1632 H         1 RES1    0.0000
     15 C9         3.5175    6.3790    2.5903 C.ar      1 RES1    0.0000
     16 C10        2.3802    5.7251    2.1650 C.ar      1 RES1    0.0000
     17 H7         2.3390    5.3872    1.2986 H         1 RES1    0.0000
     18 C11        1.2791    5.5666    3.0313 C.ar      1 RES1    0.0000
     19 H8         0.5132    5.1348    2.7285 H         1 RES1    0.0000
     20 C12        1.3288    6.0559    4.3457 C.ar      1 RES1    0.0000
     21 C13        2.4410    6.7262    4.7255 C.ar      1 RES1    0.0000
     22 H9         2.4821    7.0959    5.5778 H         1 RES1    0.0000
     23 C14        3.5012    6.8691    3.8819 C.ar      1 RES1    0.0000
     24 H10        4.2531    7.3212    4.1917 H         1 RES1    0.0000
     25 C15        0.3697    5.8703    5.4711 C.2       1 RES1    0.0000
     26 H11        0.6052    6.1880    6.3129 H         1 RES1    0.0000
     27 C16       -0.7787    5.2847    5.3258 C.2       1 RES1    0.0000
     28 H12       -1.0519    5.0486    4.4700 H         1 RES1    0.0000
     29 C17       -1.6718    4.9755    6.4599 C.ar      1 RES1    0.0000
     30 C18       -2.8021    4.3239    6.0416 C.ar      1 RES1    0.0000
     31 H13       -2.9448    4.1965    5.1315 H         1 RES1    0.0000
     32 C19       -3.7298    3.8555    6.9412 C.ar      1 RES1    0.0000
     33 C20       -3.5307    4.0140    8.3064 C.ar      1 RES1    0.0000
     34 C21       -2.4220    4.6757    8.7509 C.ar      1 RES1    0.0000
     35 C22       -1.4803    5.1542    7.8303 C.ar      1 RES1    0.0000
     36 H14       -0.7208    5.5953    8.1349 H         1 RES1    0.0000
     37 C23       -5.0253    2.7814    5.2401 C.3       1 RES1    0.0000
     38 H15       -4.9319    3.5449    4.6660 H         1 RES1    0.0000
     39 H16       -5.8979    2.3984    5.1245 H         1 RES1    0.0000
     40 H17       -4.3573    2.1289    5.0178 H         1 RES1    0.0000
     41 C24       -5.6941    4.0303    9.3110 C.3       1 RES1    0.0000
     42 H18       -5.6074    4.9616    9.5280 H         1 RES1    0.0000
     43 H19       -6.1990    3.5876    9.9971 H         1 RES1    0.0000
     44 H20       -6.1487    3.9394    8.4691 H         1 RES1    0.0000
     45 C25       -1.1937    5.3965   10.6604 C.3       1 RES1    0.0000
     46 H21       -0.4017    4.9390   10.3716 H         1 RES1    0.0000
     47 H22       -1.2446    5.3740   11.6195 H         1 RES1    0.0000
     48 H23       -1.1636    6.3091   10.3628 H         1 RES1    0.0000
     49 N1         9.5499    6.1328   -2.6865 N.pl3     1 RES1    0.0000
     50 O1        10.5175    6.7286   -2.3137 O.2       1 RES1    0.0000
     51 O2         9.5556    5.4548   -3.6789 O.2       1 RES1    0.0000
     52 O3        -4.8610    3.1837    6.5928 O.3       1 RES1    0.0000
     53 O4        -4.3904    3.4369    9.2170 O.3       1 RES1    0.0000
     54 O5        -2.3212    4.7666   10.1178 O.3       1 RES1    0.0000
     55 C26       -0.1368    5.5394    4.7202 Du        2 SUP2    0.0000
     56 C27       -0.2840    5.6303    6.0241 Du        2 SUP2    0.0000
     57 H24       -0.7705    5.2280    4.1199 Du        2 SUP2    0.0000
     58 H25        0.3289    6.0194    6.6052 Du        2 SUP2    0.0000
@<TRIPOS>BOND
     1    1    2 ar
     2    2    3 1
     3    4    2 ar
     4    5    4 1
     5    6    4 ar
     6    7    6 ar
     7    8    7 1
     8    9    1 ar
     9   10    9 1
    10   11    1 1
    11   12   11 1
    12   13   11 2
    13   14   13 1
    14   15   13 1
    15   16   15 ar
    16   17   16 1
    17   18   16 ar
    18   19   18 1
    19   20   18 ar
    20   21   20 ar
    21   22   21 1
    22   23   15 ar
    23   24   23 1
    24   25   20 1
    25   26   25 1
    26   27   25 2
    27   28   27 1
    28   29   27 1
    29   30   29 ar
    30   31   30 1
    31   32   30 ar
    32   33   32 ar
    33   34   33 ar
    34   35   29 ar
    35   36   35 1
    36   37   38 1
    37   39   37 1
    38   40   37 1
    39   41   42 1
    40   43   41 1
    41   44   41 1
    42   45   46 1
    43   47   45 1
    44   48   45 1
    45   49    6 1
    46   50   49 2
    47   51   49 2
    48   52   32 1
    49   53   33 1
    50   54   34 1
    51    7    9 ar
    52   21   23 ar
    53   34   35 ar
    54   37   52 1
    55   41   53 1
    56   45   54 1
@<TRIPOS>SUBSTRUCTURE
     1 RES1 1
     2 SUP2 55

@<TRIPOS>CRYSIN
   7.8560    7.7670   17.5960  90.0000  95.9300  90.0000   4 1

