# MOL2 file generated by ConQuest
# Please check atom types

@<TRIPOS>MOLECULE
OMAYUX01
   108   112     2
SMALL
NO_CHARGES
****
Generated from CSD

@<TRIPOS>ATOM
      1 C1         3.9522   -0.0586   -1.6936 C.ar      1 RES1    0.0000
      2 C2         3.3910   -1.1499   -1.0449 C.ar      1 RES1    0.0000
      3 H1         3.0318   -1.0407   -0.1939 H         1 RES1    0.0000
      4 C3         3.3579   -2.3915   -1.6419 C.ar      1 RES1    0.0000
      5 H2         2.9703   -3.1162   -1.2053 H         1 RES1    0.0000
      6 C4         3.9022   -2.5425   -2.8863 C.ar      1 RES1    0.0000
      7 C5         4.4643   -1.4931   -3.5392 C.ar      1 RES1    0.0000
      8 H3         4.8268   -1.6084   -4.3874 H         1 RES1    0.0000
      9 C6         4.4931   -0.2637   -2.9421 C.ar      1 RES1    0.0000
     10 H4         4.8882    0.4494   -3.3885 H         1 RES1    0.0000
     11 C7         4.0078    1.2981   -1.1216 C.2       1 RES1    0.0000
     12 H5         4.4670    1.9277   -1.6294 H         1 RES1    0.0000
     13 C8         3.5076    1.7337   -0.0140 C.2       1 RES1    0.0000
     14 H6         3.0221    1.1214    0.4897 H         1 RES1    0.0000
     15 C9         3.6225    3.0930    0.5413 C.ar      1 RES1    0.0000
     16 C10        4.3582    4.1001   -0.0628 C.ar      1 RES1    0.0000
     17 H7         4.7814    3.9317   -0.8733 H         1 RES1    0.0000
     18 C11        4.4758    5.3520    0.5176 C.ar      1 RES1    0.0000
     19 H8         4.9806    6.0054    0.0893 H         1 RES1    0.0000
     20 C12        3.8604    5.6541    1.7145 C.ar      1 RES1    0.0000
     21 C13        3.1209    4.6499    2.3130 C.ar      1 RES1    0.0000
     22 H9         2.6929    4.8146    3.1221 H         1 RES1    0.0000
     23 C14        3.0091    3.4108    1.7257 C.ar      1 RES1    0.0000
     24 H10        2.4953    2.7612    2.1497 H         1 RES1    0.0000
     25 C15        4.0312    7.0009    2.2851 C.2       1 RES1    0.0000
     26 H11        4.7582    7.4948    1.9782 H         1 RES1    0.0000
     27 C16        3.2644    7.5788    3.1821 C.2       1 RES1    0.0000
     28 H12        2.5739    7.0638    3.5350 H         1 RES1    0.0000
     29 C17        3.3881    8.9721    3.6899 C.ar      1 RES1    0.0000
     30 C18        4.5607    9.6901    3.5504 C.ar      1 RES1    0.0000
     31 H13        5.3174    9.2878    3.1890 H         1 RES1    0.0000
     32 C19        4.5967   11.0243    3.9563 C.ar      1 RES1    0.0000
     33 C20        3.4636   11.6220    4.4962 C.ar      1 RES1    0.0000
     34 C21        2.3095   10.8816    4.6524 C.ar      1 RES1    0.0000
     35 C22        2.2688    9.5404    4.2744 C.ar      1 RES1    0.0000
     36 H14        1.5012    9.0338    4.4139 H         1 RES1    0.0000
     37 C23        6.8993   11.2945    3.3564 C.3       1 RES1    0.0000
     38 H15        7.2063   10.6027    3.9451 H         1 RES1    0.0000
     39 H16        7.5629   11.9870    3.3034 H         1 RES1    0.0000
     40 H17        6.7509   10.9270    2.4818 H         1 RES1    0.0000
     41 C24        3.7903   13.2533    6.1493 C.3       1 RES1    0.0000
     42 H18        3.0426   13.0078    6.6989 H         1 RES1    0.0000
     43 H19        3.9604   14.1930    6.2428 H         1 RES1    0.0000
     44 H20        4.5662   12.7594    6.4241 H         1 RES1    0.0000
     45 C25        0.0027   10.9210    5.2593 C.3       1 RES1    0.0000
     46 H21       -0.2664   10.6711    4.3720 H         1 RES1    0.0000
     47 H22       -0.6407   11.5304    5.6289 H         1 RES1    0.0000
     48 H23        0.0555   10.1379    5.8103 H         1 RES1    0.0000
     49 N1         3.8520   -3.8477   -3.5420 N.pl3     1 RES1    0.0000
     50 O1         4.4173   -3.9970   -4.5952 O.2       1 RES1    0.0000
     51 O2         3.2366   -4.7457   -2.9951 O.2       1 RES1    0.0000
     52 O3         5.6848   11.8383    3.8557 O.3       1 RES1    0.0000
     53 O4         3.4984   12.9586    4.7963 O.3       1 RES1    0.0000
     54 O5         1.2681   11.5478    5.2085 O.3       1 RES1    0.0000
     55 C26        1.2351   -4.5905    0.4645 C.ar      2 RES2    0.0000
     56 C27        0.3236   -4.6979   -0.5845 C.ar      2 RES2    0.0000
     57 H24       -0.3255   -4.0416   -0.6961 H         2 RES2    0.0000
     58 C28        0.3688   -5.7674   -1.4606 C.ar      2 RES2    0.0000
     59 H25       -0.2363   -5.8377   -2.1623 H         2 RES2    0.0000
     60 C29        1.3287   -6.7161   -1.2611 C.ar      2 RES2    0.0000
     61 C30        2.1984   -6.6486   -0.2232 C.ar      2 RES2    0.0000
     62 H26        2.8220   -7.3265   -0.0935 H         2 RES2    0.0000
     63 C31        2.1582   -5.5925    0.6264 C.ar      2 RES2    0.0000
     64 H27        2.7657   -5.5450    1.3281 H         2 RES2    0.0000
     65 C32        1.3045   -3.4223    1.3671 C.2       2 RES2    0.0000
     66 H28        1.9249   -3.4731    2.0591 H         2 RES2    0.0000
     67 C33        0.6088   -2.3543    1.3057 C.2       2 RES2    0.0000
     68 H29       -0.0487   -2.3279    0.6487 H         2 RES2    0.0000
     69 C34        0.7306   -1.1521    2.1637 C.ar      2 RES2    0.0000
     70 C35        1.6939   -0.9954    3.1360 C.ar      2 RES2    0.0000
     71 H30        2.3103   -1.6776    3.2825 H         2 RES2    0.0000
     72 C36        1.7611    0.1523    3.8977 C.ar      2 RES2    0.0000
     73 H31        2.4243    0.2268    4.5450 H         2 RES2    0.0000
     74 C37        0.8764    1.1898    3.7261 C.ar      2 RES2    0.0000
     75 C38       -0.0728    1.0371    2.7259 C.ar      2 RES2    0.0000
     76 H32       -0.6730    1.7287    2.5613 H         2 RES2    0.0000
     77 C39       -0.1508   -0.1075    1.9698 C.ar      2 RES2    0.0000
     78 H33       -0.8086   -0.1806    1.3169 H         2 RES2    0.0000
     79 C40        0.9953    2.4031    4.5338 C.2       2 RES2    0.0000
     80 H34        1.7725    2.4807    5.0388 H         2 RES2    0.0000
     81 C41        0.1440    3.3871    4.6357 C.2       2 RES2    0.0000
     82 H35       -0.6670    3.2805    4.1949 H         2 RES2    0.0000
     83 C42        0.3275    4.6507    5.3737 C.ar      2 RES2    0.0000
     84 C43        1.5598    5.0261    5.8619 C.ar      2 RES2    0.0000
     85 H36        2.2888    4.4587    5.7545 H         2 RES2    0.0000
     86 C44        1.7224    6.2391    6.5134 C.ar      2 RES2    0.0000
     87 C45        0.6431    7.0792    6.6780 C.ar      2 RES2    0.0000
     88 C46       -0.5927    6.7134    6.1744 C.ar      2 RES2    0.0000
     89 C47       -0.7443    5.5026    5.5243 C.ar      2 RES2    0.0000
     90 H37       -1.5764    5.2635    5.1853 H         2 RES2    0.0000
     91 C48        4.0882    5.9982    6.6975 C.3       2 RES2    0.0000
     92 H38        4.0472    5.1188    7.0840 H         2 RES2    0.0000
     93 H39        4.8466    6.4688    7.0533 H         2 RES2    0.0000
     94 H40        4.1740    5.9256    5.7447 H         2 RES2    0.0000
     95 C49        0.2855    8.5070    8.5278 C.3       2 RES2    0.0000
     96 H41       -0.6643    8.6162    8.4441 H         2 RES2    0.0000
     97 H42        0.6643    9.2934    8.9282 H         2 RES2    0.0000
     98 H43        0.4727    7.7467    9.0816 H         2 RES2    0.0000
     99 C50       -2.8324    7.3661    5.7880 C.3       2 RES2    0.0000
    100 H44       -2.7425    7.2358    4.8408 H         2 RES2    0.0000
    101 H45       -3.4202    8.1066    5.9540 H         2 RES2    0.0000
    102 H46       -3.1965    6.5730    6.1870 H         2 RES2    0.0000
    103 N2         1.4252   -7.8485   -2.1972 N.pl3     2 RES2    0.0000
    104 O6         2.3686   -8.5928   -2.0800 O.2       2 RES2    0.0000
    105 O7         0.5423   -7.9644   -3.0384 O.2       2 RES2    0.0000
    106 O8         2.9119    6.7018    7.0103 O.3       2 RES2    0.0000
    107 O9         0.8501    8.3103    7.2555 O.3       2 RES2    0.0000
    108 O10       -1.5888    7.6317    6.3376 O.3       2 RES2    0.0000
@<TRIPOS>BOND
     1    1    2 ar
     2    2    3 1
     3    4    2 ar
     4    5    4 1
     5    6    4 ar
     6    7    6 ar
     7    8    7 1
     8    9    1 ar
     9   10    9 1
    10   11    1 1
    11   12   11 1
    12   13   11 2
    13   14   13 1
    14   15   13 1
    15   16   15 ar
    16   17   16 1
    17   18   16 ar
    18   19   18 1
    19   20   18 ar
    20   21   20 ar
    21   22   21 1
    22   23   15 ar
    23   24   23 1
    24   25   20 1
    25   26   25 1
    26   27   25 2
    27   28   27 1
    28   29   27 1
    29   30   29 ar
    30   31   30 1
    31   32   30 ar
    32   33   32 ar
    33   34   33 ar
    34   35   29 ar
    35   36   35 1
    36   37   38 1
    37   39   37 1
    38   40   37 1
    39   41   42 1
    40   43   41 1
    41   44   41 1
    42   45   46 1
    43   47   45 1
    44   48   45 1
    45   49    6 1
    46   50   49 2
    47   51   49 2
    48   52   32 1
    49   53   33 1
    50   54   34 1
    51   55   56 ar
    52   56   57 1
    53   58   56 ar
    54   59   58 1
    55   60   58 ar
    56   61   60 ar
    57   62   61 1
    58   63   55 ar
    59   64   63 1
    60   65   55 1
    61   66   65 1
    62   67   65 2
    63   68   67 1
    64   69   67 1
    65   70   69 ar
    66   71   70 1
    67   72   70 ar
    68   73   72 1
    69   74   72 ar
    70   75   74 ar
    71   76   75 1
    72   77   69 ar
    73   78   77 1
    74   79   74 1
    75   80   79 1
    76   81   79 2
    77   82   81 1
    78   83   81 1
    79   84   83 ar
    80   85   84 1
    81   86   84 ar
    82   87   86 ar
    83   88   87 ar
    84   89   83 ar
    85   90   89 1
    86   91   92 1
    87   93   91 1
    88   94   91 1
    89   95   96 1
    90   97   95 1
    91   98   95 1
    92   99  100 1
    93  101   99 1
    94  102   99 1
    95  103   60 1
    96  104  103 2
    97  105  103 2
    98  106   86 1
    99  107   87 1
   100  108   88 1
   101    7    9 ar
   102   21   23 ar
   103   34   35 ar
   104   37   52 1
   105   41   53 1
   106   45   54 1
   107   61   63 ar
   108   75   77 ar
   109   88   89 ar
   110   91  106 1
   111   95  107 1
   112   99  108 1
@<TRIPOS>SUBSTRUCTURE
     1 RES1 1
     2 RES2 55

@<TRIPOS>CRYSIN
  10.2210   15.2390   15.7620 117.4200  92.2600  93.5200   2 1

