# MOL2 file generated by ConQuest
# Please check atom types

@<TRIPOS>MOLECULE
OMAZEI
    50    52     1
SMALL
NO_CHARGES
****
Generated from CSD

@<TRIPOS>ATOM
      1 C1        -0.6121    4.7402   -2.6514 C.ar      1 RES1    0.0000
      2 C2        -0.1574    4.1059   -3.8197 C.ar      1 RES1    0.0000
      3 H1         0.7181    3.7935   -3.8649 H         1 RES1    0.0000
      4 C3        -0.9954    3.9423   -4.8976 C.ar      1 RES1    0.0000
      5 H2        -0.6983    3.5093   -5.6662 H         1 RES1    0.0000
      6 C4        -2.2829    4.4294   -4.8234 C.ar      1 RES1    0.0000
      7 C5        -2.7398    5.0941   -3.7094 C.ar      1 RES1    0.0000
      8 H3        -3.6062    5.4308   -3.6840 H         1 RES1    0.0000
      9 C6        -1.9106    5.2532   -2.6459 C.ar      1 RES1    0.0000
     10 H4        -2.2138    5.7143   -1.8972 H         1 RES1    0.0000
     11 C7         0.1865    4.8964   -1.4378 C.2       1 RES1    0.0000
     12 H5        -0.1723    5.4390   -0.7741 H         1 RES1    0.0000
     13 C8         1.3689    4.3494   -1.1792 C.2       1 RES1    0.0000
     14 H6         1.7499    3.8291   -1.8484 H         1 RES1    0.0000
     15 C9         2.1239    4.4915    0.0615 C.ar      1 RES1    0.0000
     16 C10        1.6181    5.0918    1.2208 C.ar      1 RES1    0.0000
     17 H7         0.7516    5.4301    1.2226 H         1 RES1    0.0000
     18 C11        2.3808    5.1881    2.3548 C.ar      1 RES1    0.0000
     19 H8         2.0163    5.5893    3.1107 H         1 RES1    0.0000
     20 C12        3.6883    4.7032    2.4085 C.ar      1 RES1    0.0000
     21 C13        4.1964    4.1096    1.2479 C.ar      1 RES1    0.0000
     22 H9         5.0659    3.7809    1.2443 H         1 RES1    0.0000
     23 C14        3.4235    4.0060    0.1067 C.ar      1 RES1    0.0000
     24 H10        3.7822    3.6011   -0.6493 H         1 RES1    0.0000
     25 C15        4.4284    4.8120    3.6696 C.2       1 RES1    0.0000
     26 H11        3.9684    5.1962    4.3803 H         1 RES1    0.0000
     27 C16        5.6643    4.4323    3.9192 C.2       1 RES1    0.0000
     28 H12        6.1498    4.0844    3.2048 H         1 RES1    0.0000
     29 C17        6.3530    4.5056    5.2210 C.ar      1 RES1    0.0000
     30 C18        5.7146    4.9993    6.3535 C.ar      1 RES1    0.0000
     31 H13        4.8519    5.3405    6.2920 H         1 RES1    0.0000
     32 C19        6.3669    4.9808    7.5734 C.ar      1 RES1    0.0000
     33 C20        7.6845    4.5485    7.6737 C.ar      1 RES1    0.0000
     34 H14        8.1332    4.5811    8.4876 H         1 RES1    0.0000
     35 C21        8.3154    4.0696    6.5434 C.ar      1 RES1    0.0000
     36 C22        7.6458    4.0422    5.3154 C.ar      1 RES1    0.0000
     37 H15        8.0752    3.7099    4.5612 H         1 RES1    0.0000
     38 C23        6.1136    5.0548    9.9580 C.3       1 RES1    0.0000
     39 H16        5.5167    5.4086   10.6199 H         1 RES1    0.0000
     40 H17        6.9917    5.4212   10.0882 H         1 RES1    0.0000
     41 H18        6.1517    4.0985   10.0375 H         1 RES1    0.0000
     42 C24       10.2233    3.4212    7.8076 C.3       1 RES1    0.0000
     43 H19       11.1013    3.0541    7.6810 H         1 RES1    0.0000
     44 H20        9.7112    2.8379    8.3718 H         1 RES1    0.0000
     45 H21       10.2941    4.2850    8.2199 H         1 RES1    0.0000
     46 N1        -3.1976    4.2369   -5.9538 N.pl3     1 RES1    0.0000
     47 O1        -4.3579    4.5500   -5.8109 O.2       1 RES1    0.0000
     48 O2        -2.7363    3.7713   -6.9829 O.2       1 RES1    0.0000
     49 O3         5.6405    5.4057    8.6513 O.3       1 RES1    0.0000
     50 O4         9.5720    3.5500    6.5374 O.3       1 RES1    0.0000
@<TRIPOS>BOND
     1    1    2 ar
     2    2    3 1
     3    4    2 ar
     4    5    4 1
     5    6    4 ar
     6    7    6 ar
     7    8    7 1
     8    9    1 ar
     9   10    9 1
    10   11    1 1
    11   12   11 1
    12   13   11 2
    13   14   13 1
    14   15   13 1
    15   16   15 ar
    16   17   16 1
    17   18   16 ar
    18   19   18 1
    19   20   18 ar
    20   21   20 ar
    21   22   21 1
    22   23   15 ar
    23   24   23 1
    24   25   20 1
    25   26   25 1
    26   27   25 2
    27   28   27 1
    28   29   27 1
    29   30   29 ar
    30   31   30 1
    31   32   30 ar
    32   33   32 ar
    33   34   33 1
    34   35   33 ar
    35   36   29 ar
    36   37   36 1
    37   38   39 1
    38   40   38 1
    39   41   38 1
    40   42   43 1
    41   44   42 1
    42   45   42 1
    43   46    6 1
    44   47   46 2
    45   48   46 2
    46   49   32 1
    47   50   35 1
    48    7    9 ar
    49   21   23 ar
    50   35   36 ar
    51   38   49 1
    52   42   50 1
@<TRIPOS>SUBSTRUCTURE
     1 RES1 1

@<TRIPOS>CRYSIN
   7.2190    7.4020   18.1630  90.0000  95.2900  90.0000   4 1

