# MOL2 file generated by ConQuest
# Please check atom types

@<TRIPOS>MOLECULE
OMEJOG
    20    21     1
SMALL
NO_CHARGES
****
Generated from CSD

@<TRIPOS>ATOM
      1 O1         0.9293    2.9785    5.6631 O.3       1 RES1    0.0000
      2 N1         1.9843    3.1271    4.7116 N.2       1 RES1    0.0000
      3 C1         1.9000    2.0879    3.9167 C.2       1 RES1    0.0000
      4 C2         0.8129    1.2631    4.3207 C.2       1 RES1    0.0000
      5 C3         0.2655    1.8565    5.3977 C.2       1 RES1    0.0000
      6 H1        -0.4773    1.5267    5.8899 H         1 RES1    0.0000
      7 N2         0.2951    0.0862    3.6827 N.pl3     1 RES1    0.0000
      8 O2         0.8092   -0.2798    2.6293 O.2       1 RES1    0.0000
      9 O3        -0.6511   -0.4769    4.2240 O.2       1 RES1    0.0000
     10 C4         2.9147    1.9017    2.8556 C.ar      1 RES1    0.0000
     11 C5         3.1131    2.8877    1.8945 C.ar      1 RES1    0.0000
     12 H2         2.5707    3.6677    1.8916 H         1 RES1    0.0000
     13 C6         4.1063    2.7270    0.9399 C.ar      1 RES1    0.0000
     14 H3         4.2346    3.3911    0.2729 H         1 RES1    0.0000
     15 C7         4.9119    1.5980    0.9582 C.ar      1 RES1    0.0000
     16 H4         5.5979    1.4967    0.3084 H         1 RES1    0.0000
     17 C8         4.7215    0.6177    1.9187 C.ar      1 RES1    0.0000
     18 H5         5.2809   -0.1505    1.9306 H         1 RES1    0.0000
     19 C9         3.7166    0.7569    2.8605 C.ar      1 RES1    0.0000
     20 H6         3.5719    0.0764    3.5080 H         1 RES1    0.0000
@<TRIPOS>BOND
     1    1    2 1
     2    2    3 2
     3    3    4 1
     4    4    5 2
     5    5    1 1
     6    6    5 1
     7    7    4 1
     8    8    7 2
     9    9    7 2
    10   10    3 1
    11   11   10 ar
    12   12   11 1
    13   13   11 ar
    14   14   13 1
    15   15   13 ar
    16   16   15 1
    17   17   15 ar
    18   18   17 1
    19   19   10 ar
    20   20   19 1
    21   17   19 ar
@<TRIPOS>SUBSTRUCTURE
     1 RES1 1

@<TRIPOS>CRYSIN
  12.1621    5.6566   12.0633  90.0000 101.6380  90.0000  14 1

