# MOL2 file generated by ConQuest
# Please check atom types

@<TRIPOS>MOLECULE
OMEKEX
    34    36     1
SMALL
NO_CHARGES
****
Generated from CSD

@<TRIPOS>ATOM
      1 O1         3.6919   -4.4493   -4.9125 O.3       1 RES1    0.0000
      2 O2         5.8208   -5.2413   -4.2587 O.3       1 RES1    0.0000
      3 N1         4.0326   -3.3394   -5.7721 N.2       1 RES1    0.0000
      4 C1         4.9417   -2.6371   -5.2055 C.2       1 RES1    0.0000
      5 C2         5.4194   -3.1769   -3.8787 C.3       1 RES1    0.0000
      6 C3         4.6477   -4.4995   -3.8597 C.3       1 RES1    0.0000
      7 C4         6.6843   -4.0712   -4.0958 C.3       1 RES1    0.0000
      8 H1         7.1576   -3.8409   -4.9457 H         1 RES1    0.0000
      9 C5         7.6476   -4.2175   -2.9442 C.ar      1 RES1    0.0000
     10 C6         7.6343   -5.3482   -2.1426 C.ar      1 RES1    0.0000
     11 H2         6.9972   -6.0305   -2.3181 H         1 RES1    0.0000
     12 C7         8.5321   -5.5124   -1.0847 C.ar      1 RES1    0.0000
     13 C8         9.4479   -4.4908   -0.8426 C.ar      1 RES1    0.0000
     14 H3        10.0588   -4.5713   -0.1194 H         1 RES1    0.0000
     15 C9         9.4795   -3.3631   -1.6399 C.ar      1 RES1    0.0000
     16 H4        10.1148   -2.6799   -1.4631 H         1 RES1    0.0000
     17 C10        8.5910   -3.2181   -2.6961 C.ar      1 RES1    0.0000
     18 H5         8.6241   -2.4441   -3.2465 H         1 RES1    0.0000
     19 C11        8.5222   -6.7643   -0.2561 C.3       1 RES1    0.0000
     20 H6         9.4284   -6.9474    0.0706 H         1 RES1    0.0000
     21 H7         8.2142   -7.5161   -0.8035 H         1 RES1    0.0000
     22 H8         7.9172   -6.6471    0.5062 H         1 RES1    0.0000
     23 C12        3.9889   -5.0456   -2.6295 C.3       1 RES1    0.0000
     24 H9         3.2133   -4.4915   -2.4009 H         1 RES1    0.0000
     25 H10        4.6272   -5.0366   -1.8865 H         1 RES1    0.0000
     26 H11        3.6958   -5.9653   -2.7972 H         1 RES1    0.0000
     27 C13        5.3681   -2.1889   -2.7315 C.3       1 RES1    0.0000
     28 H12        5.9695   -1.4377   -2.9207 H         1 RES1    0.0000
     29 H13        5.6512   -2.6328   -1.9055 H         1 RES1    0.0000
     30 H14        4.4524   -1.8567   -2.6276 H         1 RES1    0.0000
     31 C14        5.4464   -1.3968   -5.8313 C.3       1 RES1    0.0000
     32 H15        5.0458   -1.2935   -6.7196 H         1 RES1    0.0000
     33 H16        6.4214   -1.4475   -5.9161 H         1 RES1    0.0000
     34 H17        5.2060   -0.6284   -5.2728 H         1 RES1    0.0000
@<TRIPOS>BOND
     1    1    3 1
     2    2    6 1
     3    3    4 2
     4    4    5 1
     5    5    6 1
     6    6    1 1
     7    7    2 1
     8    8    7 1
     9    9    7 1
    10   10    9 ar
    11   11   10 1
    12   12   10 ar
    13   13   12 ar
    14   14   13 1
    15   15   13 ar
    16   16   15 1
    17   17    9 ar
    18   18   17 1
    19   19   12 1
    20   20   19 1
    21   21   19 1
    22   22   19 1
    23   23    6 1
    24   24   23 1
    25   25   23 1
    26   26   23 1
    27   27    5 1
    28   28   27 1
    29   29   27 1
    30   30   27 1
    31   31    4 1
    32   32   31 1
    33   33   31 1
    34   34   31 1
    35    5    7 1
    36   15   17 ar
@<TRIPOS>SUBSTRUCTURE
     1 RES1 1

@<TRIPOS>CRYSIN
  13.3045    6.9356   17.5348  90.0000 129.2840  90.0000  14 1

