# MOL2 file generated by ConQuest
# Please check atom types

@<TRIPOS>MOLECULE
OMEXIN
    24    24     1
SMALL
NO_CHARGES
****
Generated from CSD

@<TRIPOS>ATOM
      1 O1         8.6789    1.4029    6.3218 O.3       1 RES1    0.0000
      2 H1         8.7923    1.2367    7.1173 H         1 RES1    0.0000
      3 O2        11.4719    1.1886    5.1905 O.3       1 RES1    0.0000
      4 O3        11.7604   -0.7740    2.6532 O.2       1 RES1    0.0000
      5 O4         8.8492   -1.8944    3.2943 O.2       1 RES1    0.0000
      6 N1         8.5183    0.2321    5.6287 N.3       1 RES1    0.0000
      7 C1         9.4622   -0.0847    4.8210 C.2       1 RES1    0.0000
      8 C2        10.7491    0.3131    4.5805 C.2       1 RES1    0.0000
      9 C3        10.9080   -0.5575    3.4828 C.2       1 RES1    0.0000
     10 C4         9.5578   -1.0678    3.7424 C.2       1 RES1    0.0000
     11 C5         7.1686   -0.2641    5.4873 C.3       1 RES1    0.0000
     12 H2         7.2171   -1.1264    5.0245 H         1 RES1    0.0000
     13 C6         6.3528    0.6444    4.6545 C.3       1 RES1    0.0000
     14 H3         6.7734    0.7584    3.7994 H         1 RES1    0.0000
     15 H4         6.2788    1.4962    5.0889 H         1 RES1    0.0000
     16 H5         5.4793    0.2682    4.5320 H         1 RES1    0.0000
     17 C7         6.5776   -0.5058    6.8225 C.3       1 RES1    0.0000
     18 H6         7.1445   -1.0994    7.3202 H         1 RES1    0.0000
     19 H7         5.7095   -0.9021    6.7213 H         1 RES1    0.0000
     20 H8         6.4971    0.3277    7.2918 H         1 RES1    0.0000
     21 C8        12.8064    1.3186    4.7259 C.3       1 RES1    0.0000
     22 H9        13.2590    1.9937    5.2374 H         1 RES1    0.0000
     23 H10       12.7996    1.5699    3.7994 H         1 RES1    0.0000
     24 H11       13.2628    0.4806    4.8265 H         1 RES1    0.0000
@<TRIPOS>BOND
     1    1    2 1
     2    3    8 1
     3    4    9 2
     4    5   10 2
     5    6    1 1
     6    7    6 1
     7    8    7 2
     8    9    8 1
     9   10    7 1
    10   11    6 1
    11   12   11 1
    12   13   11 1
    13   14   13 1
    14   15   13 1
    15   16   13 1
    16   17   11 1
    17   18   17 1
    18   19   17 1
    19   20   17 1
    20   21    3 1
    21   22   21 1
    22   23   21 1
    23   24   21 1
    24    9   10 1
@<TRIPOS>SUBSTRUCTURE
     1 RES1 1

@<TRIPOS>CRYSIN
  29.7300    4.5770   13.5380  90.0000 113.9150  90.0000  15 1

