# MOL2 file generated by ConQuest
# Please check atom types

@<TRIPOS>MOLECULE
OMITIP
    36    38     1
SMALL
NO_CHARGES
****
Generated from CSD

@<TRIPOS>ATOM
      1 N1         3.7977    5.9510   20.3134 N.2       1 RES1    0.0000
      2 N2         2.7903    6.3064   19.5398 N.2       1 RES1    0.0000
      3 N3         3.6431    4.6467   20.5635 N.3       1 RES1    0.0000
      4 N4        -2.7355    5.5614   16.1416 N.pl3     1 RES1    0.0000
      5 O1         3.8693    3.3431   22.5145 O.3       1 RES1    0.0000
      6 O2         5.7869    5.6182   24.3472 O.3       1 RES1    0.0000
      7 H1         5.9448    6.4218   24.3871 H         1 RES1    0.0000
      8 O3        -2.8722    6.5679   15.4349 O.2       1 RES1    0.0000
      9 O4        -3.5386    4.6510   16.1886 O.2       1 RES1    0.0000
     10 C1         2.5692    4.7442   23.9976 C.3       1 RES1    0.0000
     11 H2         2.6234    5.3711   24.7363 H         1 RES1    0.0000
     12 H3         2.1702    5.1994   23.2394 H         1 RES1    0.0000
     13 C2         4.9328    5.3583   23.2455 C.3       1 RES1    0.0000
     14 H4         4.4494    6.1726   22.9950 H         1 RES1    0.0000
     15 C3         2.5434    4.1762   19.9522 C.2       1 RES1    0.0000
     16 H5         2.2250    3.3031   19.9728 H         1 RES1    0.0000
     17 C4         0.7780    5.3211   18.4739 C.ar      1 RES1    0.0000
     18 C5         3.9408    4.2576   23.6383 C.3       1 RES1    0.0000
     19 H6         4.3069    3.7730   24.4068 H         1 RES1    0.0000
     20 C6        -0.0638    4.2272   18.3410 C.ar      1 RES1    0.0000
     21 H7         0.1515    3.4365   18.7792 H         1 RES1    0.0000
     22 C7        -0.6961    6.5719   17.0477 C.ar      1 RES1    0.0000
     23 H8        -0.9211    7.3635   16.6145 H         1 RES1    0.0000
     24 C8         0.4538    6.4953   17.8105 C.ar      1 RES1    0.0000
     25 H9         1.0139    7.2350   17.8801 H         1 RES1    0.0000
     26 C9         4.5925    3.8927   21.4258 C.3       1 RES1    0.0000
     27 H10        5.0173    3.1756   20.9089 H         1 RES1    0.0000
     28 C10        1.9872    5.2328   19.2954 C.2       1 RES1    0.0000
     29 C11       -1.2131    4.2782   17.5749 C.ar      1 RES1    0.0000
     30 H11       -1.7713    3.5385   17.4917 H         1 RES1    0.0000
     31 C12       -1.5012    5.4662   16.9381 C.ar      1 RES1    0.0000
     32 C13        5.6431    4.7805   22.0327 C.3       1 RES1    0.0000
     33 H12        5.9106    5.4800   21.4151 H         1 RES1    0.0000
     34 H13        6.4256    4.2714   22.2945 H         1 RES1    0.0000
     35 O5         1.7771    3.6355   24.3649 O.3       1 RES1    0.0000
     36 H14        1.1022    3.8976   24.7494 H         1 RES1    0.0000
@<TRIPOS>BOND
     1    1    2 2
     2    2   28 1
     3    3    1 1
     4    4    8 2
     5    5   18 1
     6    6    7 1
     7    9    4 2
     8   10   11 1
     9   12   10 1
    10   13    6 1
    11   14   13 1
    12   15    3 1
    13   16   15 1
    14   17   20 ar
    15   18   10 1
    16   19   18 1
    17   20   21 1
    18   22   23 1
    19   24   17 ar
    20   25   24 1
    21   26    3 1
    22   27   26 1
    23   28   15 2
    24   29   20 ar
    25   30   29 1
    26   31    4 1
    27   32   13 1
    28   33   32 1
    29   34   32 1
    30   35   10 1
    31   36   35 1
    32    5   26 1
    33   13   18 1
    34   17   28 1
    35   22   24 ar
    36   22   31 ar
    37   26   32 1
    38   29   31 ar
@<TRIPOS>SUBSTRUCTURE
     1 RES1 1

@<TRIPOS>CRYSIN
   6.4456    9.8102   21.8210  90.0000  90.0000  90.0000  19 1

