# MOL2 file generated by ConQuest
# Please check atom types

@<TRIPOS>MOLECULE
OMIWEM
    16    17     1
SMALL
NO_CHARGES
****
Generated from CSD

@<TRIPOS>ATOM
      1 C1         3.2014    2.3245   19.6279 C.ar      1 RES1    0.0000
      2 N1         2.7280    1.0866   19.8270 N.pl3     1 RES1    0.0000
      3 O1         3.0103    0.5039   20.9099 O.2       1 RES1    0.0000
      4 O2         2.0010    0.5481   18.9534 O.2       1 RES1    0.0000
      5 C2         3.0465    3.2521   18.5699 C.ar      1 RES1    0.0000
      6 H1         2.5744    3.1104   17.7822 H         1 RES1    0.0000
      7 C3         3.7068    4.3794   18.9107 C.ar      1 RES1    0.0000
      8 H2         3.7647    5.1501   18.3921 H         1 RES1    0.0000
      9 C4         5.0315    4.8142   21.1065 C.ar      1 RES1    0.0000
     10 H3         5.3737    5.6775   21.0624 H         1 RES1    0.0000
     11 C5         5.1891    3.9364   22.1386 C.ar      1 RES1    0.0000
     12 H4         5.6584    4.0981   22.9242 H         1 RES1    0.0000
     13 C6         4.5352    2.7745   21.8159 C.ar      1 RES1    0.0000
     14 H5         4.4809    2.0093   22.3421 H         1 RES1    0.0000
     15 N2         3.9839    2.9452   20.5898 N.pl3     1 RES1    0.0000
     16 N3         4.2871    4.1997   20.1634 N.pl3     1 RES1    0.0000
@<TRIPOS>BOND
     1    1    2 1
     2    2    3 2
     3    4    2 2
     4    5    1 ar
     5    6    5 1
     6    7    5 ar
     7    8    7 1
     8    9   10 1
     9   11    9 ar
    10   12   11 1
    11   13   11 ar
    12   14   13 1
    13   15    1 ar
    14   16    7 ar
    15    9   16 ar
    16   13   15 ar
    17   15   16 ar
@<TRIPOS>SUBSTRUCTURE
     1 RES1 1

@<TRIPOS>CRYSIN
   4.0213    6.9120   23.0998  90.0000  90.0000  90.0000  19 1

