# MOL2 file generated by ConQuest
# Please check atom types

@<TRIPOS>MOLECULE
OMIWIQ
    20    21     1
SMALL
NO_CHARGES
****
Generated from CSD

@<TRIPOS>ATOM
      1 C1        -0.1472   10.5334    7.7248 C.ar      1 RES1    0.0000
      2 N1         0.3785   11.3620    6.6880 N.pl3     1 RES1    0.0000
      3 O1        -0.4178   11.7946    5.8500 O.2       1 RES1    0.0000
      4 O2         1.5786   11.6073    6.7160 O.2       1 RES1    0.0000
      5 C2         0.4444   10.1504    8.9045 C.ar      1 RES1    0.0000
      6 H1         1.3206   10.3620    9.2034 H         1 RES1    0.0000
      7 C3        -0.4977    9.3939    9.5610 C.ar      1 RES1    0.0000
      8 N2        -0.5215    9.1036   10.9488 N.pl3     1 RES1    0.0000
      9 O3         0.5664    8.9791   11.5039 O.2       1 RES1    0.0000
     10 O4        -1.6165    9.0362   11.5185 O.2       1 RES1    0.0000
     11 C4        -2.8733    8.7460    8.6829 C.ar      1 RES1    0.0000
     12 N3        -3.2518    7.6243    9.4636 N.pl3     1 RES1    0.0000
     13 O5        -2.3749    7.0541   10.1014 O.2       1 RES1    0.0000
     14 O6        -4.4267    7.2732    9.4008 O.2       1 RES1    0.0000
     15 C5        -3.4684    9.1991    7.4913 C.ar      1 RES1    0.0000
     16 H2        -4.3412    8.9913    7.1777 H         1 RES1    0.0000
     17 C6        -2.5467    9.9987    6.8708 C.ar      1 RES1    0.0000
     18 H3        -2.6672   10.4482    6.0422 H         1 RES1    0.0000
     19 N4        -1.4314   10.0390    7.6394 N.pl3     1 RES1    0.0000
     20 N5        -1.6298    9.2844    8.7777 N.pl3     1 RES1    0.0000
@<TRIPOS>BOND
     1    1    2 1
     2    2    3 2
     3    4    2 2
     4    5    1 ar
     5    6    5 1
     6    7    5 ar
     7    8    7 1
     8    9    8 2
     9   10    8 2
    10   11   12 1
    11   12   13 2
    12   14   12 2
    13   15   11 ar
    14   16   15 1
    15   17   15 ar
    16   18   17 1
    17   19    1 ar
    18   20    7 ar
    19   11   20 ar
    20   17   19 ar
    21   19   20 ar
@<TRIPOS>SUBSTRUCTURE
     1 RES1 1

@<TRIPOS>CRYSIN
   7.0098    9.3630   13.3440  90.0000  90.0000  90.0000  29 3

