# MOL2 file generated by ConQuest
# Please check atom types

@<TRIPOS>MOLECULE
OMOMOS
    19    19     1
SMALL
NO_CHARGES
****
Generated from CSD

@<TRIPOS>ATOM
      1 C1         1.1813    1.8473    4.9164 C.ar      1 RES1    0.0000
      2 C2         1.0504    1.2569    6.1760 C.ar      1 RES1    0.0000
      3 C3         0.5040    1.9611    7.2304 C.ar      1 RES1    0.0000
      4 C4         0.1005    3.2826    7.0109 C.ar      1 RES1    0.0000
      5 C5         0.2531    3.9094    5.7869 C.ar      1 RES1    0.0000
      6 C6         0.7906    3.1815    4.7453 C.ar      1 RES1    0.0000
      7 C7         1.7115    1.1238    3.7568 C.2       1 RES1    0.0000
      8 N1        -0.4926    4.0169    8.1190 N.pl3     1 RES1    0.0000
      9 N2         2.0251   -0.1062    3.8199 N.2       1 RES1    0.0000
     10 N3         2.4209   -0.6978    2.6373 N.3       1 RES1    0.0000
     11 O1        -0.7230    5.2251    7.9664 O.2       1 RES1    0.0000
     12 O2        -0.7626    3.4182    9.1537 O.2       1 RES1    0.0000
     13 H1         1.3341    0.3806    6.3051 H         1 RES1    0.0000
     14 H2         0.4062    1.5665    8.0666 H         1 RES1    0.0000
     15 H3         0.0006    4.7966    5.6698 H         1 RES1    0.0000
     16 H4         0.8953    3.5845    3.9144 H         1 RES1    0.0000
     17 H5         1.8217    1.5773    2.9523 H         1 RES1    0.0000
     18 H6         2.4451   -0.2360    1.9119 H         1 RES1    0.0000
     19 H7         2.6436   -1.5287    2.6255 H         1 RES1    0.0000
@<TRIPOS>BOND
     1    1    2 ar
     2    2    3 ar
     3    3    4 ar
     4    4    5 ar
     5    5    6 ar
     6    6    1 ar
     7    7    1 1
     8    8    4 1
     9    9    7 2
    10   10    9 1
    11   11    8 2
    12   12    8 2
    13   13    2 1
    14   14    3 1
    15   15    5 1
    16   16    6 1
    17   17    7 1
    18   18   10 1
    19   19   10 1
@<TRIPOS>SUBSTRUCTURE
     1 RES1 1

@<TRIPOS>CRYSIN
   3.7070    6.3963   15.4047  90.0000  95.0640  90.0000   7 1

