# MOL2 file generated by ConQuest
# Please check atom types

@<TRIPOS>MOLECULE
OMOMEI
    31    32     1
SMALL
NO_CHARGES
****
Generated from CSD

@<TRIPOS>ATOM
      1 O1         1.5049   14.2402    0.7292 O.3       1 RES1    0.0000
      2 O2         0.8416   14.6031    2.8583 O.2       1 RES1    0.0000
      3 O3        -1.0776   16.3662    3.2284 O.3       1 RES1    0.0000
      4 N1         2.3282   13.1819    1.3062 N.2       1 RES1    0.0000
      5 N2         1.7585   12.1096   -0.7434 N.3       1 RES1    0.0000
      6 C1         2.4279   12.2254    0.4283 C.2       1 RES1    0.0000
      7 C2         0.8714   14.9360    1.6829 C.2       1 RES1    0.0000
      8 C3         3.3521   11.1313    0.8354 C.ar      1 RES1    0.0000
      9 C4         4.5286   11.4467    1.5139 C.ar      1 RES1    0.0000
     10 C5         5.3960   10.4378    1.9052 C.ar      1 RES1    0.0000
     11 C6         5.0916    9.1069    1.6277 C.ar      1 RES1    0.0000
     12 C7         3.9162    8.7903    0.9655 C.ar      1 RES1    0.0000
     13 C8         3.0450    9.7935    0.5651 C.ar      1 RES1    0.0000
     14 C9         0.1812   16.1346    1.1621 C.ar      1 RES1    0.0000
     15 C10       -0.7727   16.7740    1.9766 C.ar      1 RES1    0.0000
     16 C11       -1.4694   17.8825    1.4784 C.ar      1 RES1    0.0000
     17 C12       -1.1845   18.3696    0.2167 C.ar      1 RES1    0.0000
     18 C13       -0.2177   17.7647   -0.5809 C.ar      1 RES1    0.0000
     19 C14        0.4489   16.6442   -0.1175 C.ar      1 RES1    0.0000
     20 H1        -0.5563   15.7493    3.4567 H         1 RES1    0.0000
     21 H2         1.2279   12.7996   -0.9873 H         1 RES1    0.0000
     22 H3         2.1595   11.6416   -1.4108 H         1 RES1    0.0000
     23 H4         4.7364   12.3529    1.7082 H         1 RES1    0.0000
     24 H5         6.1998   10.6559    2.3630 H         1 RES1    0.0000
     25 H6         5.6895    8.4174    1.8920 H         1 RES1    0.0000
     26 H7         3.7054    7.8809    0.7849 H         1 RES1    0.0000
     27 H8         2.2420    9.5729    0.1084 H         1 RES1    0.0000
     28 H9        -2.1388   18.2997    2.0087 H         1 RES1    0.0000
     29 H10       -1.6548   19.1282   -0.1105 H         1 RES1    0.0000
     30 H11       -0.0169   18.1200   -1.4397 H         1 RES1    0.0000
     31 H12        1.0929   16.2160   -0.6703 H         1 RES1    0.0000
@<TRIPOS>BOND
     1    1    4 1
     2    2    7 2
     3    3   15 1
     4    4    6 2
     5    5    6 1
     6    6    8 1
     7    7    1 1
     8    8    9 ar
     9    9   10 ar
    10   10   11 ar
    11   11   12 ar
    12   12   13 ar
    13   13    8 ar
    14   14    7 1
    15   15   14 ar
    16   16   15 ar
    17   17   16 ar
    18   18   17 ar
    19   19   14 ar
    20   20    3 1
    21   21    5 1
    22   22    5 1
    23   23    9 1
    24   24   10 1
    25   25   11 1
    26   26   12 1
    27   27   13 1
    28   28   16 1
    29   29   17 1
    30   30   18 1
    31   31   19 1
    32   18   19 ar
@<TRIPOS>SUBSTRUCTURE
     1 RES1 1

@<TRIPOS>CRYSIN
   9.3808   24.9553   10.3277  90.0000  90.0000  90.0000  61 1

