# MOL2 file generated by ConQuest
# Please check atom types

@<TRIPOS>MOLECULE
OMOMIM
    31    32     1
SMALL
NO_CHARGES
****
Generated from CSD

@<TRIPOS>ATOM
      1 O1         1.3303    4.0640    2.3660 O.3       1 RES1    0.0000
      2 O2         1.0496    3.3203    0.2496 O.2       1 RES1    0.0000
      3 O3         3.4931    6.3333    0.0197 O.3       1 RES1    0.0000
      4 N1         2.2924    4.9905    1.8245 N.2       1 RES1    0.0000
      5 N2         2.3655    5.6391    4.0778 N.3       1 RES1    0.0000
      6 C1         2.7349    5.7455    2.7898 C.2       1 RES1    0.0000
      7 C2         0.7950    3.2519    1.4281 C.2       1 RES1    0.0000
      8 C3         3.7421    6.7625    2.4008 C.ar      1 RES1    0.0000
      9 C4         4.0640    6.9975    1.0621 C.ar      1 RES1    0.0000
     10 C5         5.0089    7.9612    0.7271 C.ar      1 RES1    0.0000
     11 C6         5.6439    8.6824    1.7094 C.ar      1 RES1    0.0000
     12 C7         5.3440    8.4648    3.0329 C.ar      1 RES1    0.0000
     13 C8         4.4023    7.5195    3.3732 C.ar      1 RES1    0.0000
     14 C9        -0.1201    2.2590    2.0437 C.ar      1 RES1    0.0000
     15 C10       -0.3994    2.2321    3.3949 C.ar      1 RES1    0.0000
     16 C11       -1.2280    1.2434    3.9088 C.ar      1 RES1    0.0000
     17 C12       -1.7823    0.2985    3.0742 C.ar      1 RES1    0.0000
     18 C13       -1.5146    0.3295    1.7289 C.ar      1 RES1    0.0000
     19 C14       -0.6841    1.3031    1.2057 C.ar      1 RES1    0.0000
     20 H1         2.9960    5.7245    0.3151 H         1 RES1    0.0000
     21 H2         1.6679    5.1271    4.2366 H         1 RES1    0.0000
     22 H3         2.5440    6.3021    4.6284 H         1 RES1    0.0000
     23 H4         5.2164    8.1210   -0.1865 H         1 RES1    0.0000
     24 H5         6.2927    9.3336    1.4728 H         1 RES1    0.0000
     25 H6         5.7848    8.9641    3.7103 H         1 RES1    0.0000
     26 H7         4.1967    7.3775    4.2898 H         1 RES1    0.0000
     27 H8        -0.0256    2.8877    3.9723 H         1 RES1    0.0000
     28 H9        -1.4127    1.2193    4.8397 H         1 RES1    0.0000
     29 H10       -2.3502   -0.3740    3.4306 H         1 RES1    0.0000
     30 H11       -1.9010   -0.3209    1.1542 H         1 RES1    0.0000
     31 H12       -0.4988    1.3188    0.2738 H         1 RES1    0.0000
@<TRIPOS>BOND
     1    1    4 1
     2    2    7 2
     3    3    9 1
     4    4    6 2
     5    5    6 1
     6    6    8 1
     7    7    1 1
     8    8    9 ar
     9    9   10 ar
    10   10   11 ar
    11   11   12 ar
    12   12   13 ar
    13   13    8 ar
    14   14    7 1
    15   15   14 ar
    16   16   15 ar
    17   17   16 ar
    18   18   17 ar
    19   19   14 ar
    20   20    3 1
    21   21    5 1
    22   22    5 1
    23   23   10 1
    24   24   11 1
    25   25   12 1
    26   26   13 1
    27   27   15 1
    28   28   16 1
    29   29   17 1
    30   30   18 1
    31   31   19 1
    32   18   19 ar
@<TRIPOS>SUBSTRUCTURE
     1 RES1 1

@<TRIPOS>CRYSIN
   4.6463   22.1280   11.9551  90.0000  99.2020  90.0000 231 1

