# MOL2 file generated by ConQuest
# Please check atom types

@<TRIPOS>MOLECULE
OMOMUY
    68    34     3
SMALL
NO_CHARGES
****
Generated from CSD

@<TRIPOS>ATOM
      1 C1        -0.7577    8.8271    1.4642 C.ar      1 RES1    0.0000
      2 C2         0.4459    8.4367    2.1063 C.ar      1 RES1    0.0000
      3 C3         0.7683    7.0995    2.2742 C.ar      1 RES1    0.0000
      4 C4        -0.0703    6.1429    1.7690 C.ar      1 RES1    0.0000
      5 C5        -1.2610    6.4899    1.1116 C.ar      1 RES1    0.0000
      6 C6        -1.5933    7.8081    0.9557 C.ar      1 RES1    0.0000
      7 N1        -1.1026   10.1226    1.3536 N.3       1 RES1    0.0000
      8 C7         1.3344    9.4592    2.5724 C.1       1 RES1    0.0000
      9 N2         2.0127   10.3087    2.9291 N.1       1 RES1    0.0000
     10 N3         0.2540    4.7494    1.9506 N.pl3     1 RES1    0.0000
     11 O1        -0.5265    3.8995    1.4920 O.2       1 RES1    0.0000
     12 O2         1.2890    4.4469    2.5455 O.2       1 RES1    0.0000
     13 C8         4.5610   12.1284    5.0517 C.ar      2 RES2    0.0000
     14 C9         5.7823   12.5027    5.6698 C.ar      2 RES2    0.0000
     15 C10        6.1291   13.8361    5.8483 C.ar      2 RES2    0.0000
     16 C11        5.2531   14.8124    5.4084 C.ar      2 RES2    0.0000
     17 C12        4.0316   14.4784    4.8055 C.ar      2 RES2    0.0000
     18 C13        3.7008   13.1669    4.6241 C.ar      2 RES2    0.0000
     19 N4         4.2225   10.8441    4.8892 N.3       2 RES2    0.0000
     20 C14        6.6433   11.4706    6.1537 C.1       2 RES2    0.0000
     21 N5         7.2845   10.6083    6.5538 N.1       2 RES2    0.0000
     22 N6         5.6044   16.2003    5.5902 N.pl3     2 RES2    0.0000
     23 O3         4.8538   17.0549    5.0960 O.2       2 RES2    0.0000
     24 O4         6.6267   16.4855    6.2156 O.2       2 RES2    0.0000
     25 C15       -0.7578    2.3879    1.4665 Du        3 SUP3    0.0000
     26 C16        0.4237    2.0245    2.1041 Du        3 SUP3    0.0000
     27 C17        0.7379    0.6807    2.2742 Du        3 SUP3    0.0000
     28 C18       -0.1238   -0.2996    1.8066 Du        3 SUP3    0.0000
     29 C19       -1.3077    0.0638    1.1690 Du        3 SUP3    0.0000
     30 C20       -1.6241    1.4076    0.9989 Du        3 SUP3    0.0000
     31 N7        -1.0770    3.6714    1.2327 Du        3 SUP3    0.0000
     32 C21        1.2815    3.0509    2.6071 Du        3 SUP3    0.0000
     33 N8         1.9817    3.8593    3.0180 Du        3 SUP3    0.0000
     34 N9         0.2317   -1.6682    2.0758 Du        3 SUP3    0.0000
     35 O5        -0.2564   -2.6485    1.5019 Du        3 SUP3    0.0000
     36 O6         1.2347   -1.9678    2.7276 Du        3 SUP3    0.0000
     37 C22        4.6307    5.6427    4.9805 Du        3 SUP3    0.0000
     38 C23        5.7931    6.0061    5.6464 Du        3 SUP3    0.0000
     39 C24        6.0842    7.3498    5.8519 Du        3 SUP3    0.0000
     40 C25        5.2129    8.3284    5.3914 Du        3 SUP3    0.0000
     41 C26        4.0510    7.9650    4.7183 Du        3 SUP3    0.0000
     42 C27        3.7599    6.6212    4.5129 Du        3 SUP3    0.0000
     43 N10        4.3793    4.3273    4.8671 Du        3 SUP3    0.0000
     44 C28        6.6702    4.9407    6.0219 Du        3 SUP3    0.0000
     45 N11        7.4194    4.1411    6.3549 Du        3 SUP3    0.0000
     46 N12        5.5395    9.7289    5.4906 Du        3 SUP3    0.0000
     47 O7         4.7321   10.5745    5.0867 Du        3 SUP3    0.0000
     48 O8         6.5611   10.0479    6.1069 Du        3 SUP3    0.0000
     49 H1         1.5610    6.8499    2.7339 H         1 RES1    0.0000
     50 H2        -1.8340    5.8111    0.7751 H         1 RES1    0.0000
     51 H3        -2.3947    8.0412    0.5009 H         1 RES1    0.0000
     52 H4        -0.5737   10.7482    1.6748 H         1 RES1    0.0000
     53 H5        -1.8580   10.3440    0.9600 H         1 RES1    0.0000
     54 H6         6.9505   14.0721    6.2642 H         2 RES2    0.0000
     55 H7         3.4366   15.1641    4.5249 H         2 RES2    0.0000
     56 H8         2.8786   12.9482    4.2026 H         2 RES2    0.0000
     57 H9         4.7666   10.2075    5.1597 H         2 RES2    0.0000
     58 H10        3.4556   10.6347    4.5115 H         2 RES2    0.0000
     59 H11        1.5464    0.4326    2.7070 Du        3 SUP3    0.0000
     60 H12       -1.9016   -0.6063    0.8466 Du        3 SUP3    0.0000
     61 H13       -2.4314    1.6557    0.5661 Du        3 SUP3    0.0000
     62 H14       -0.5246    4.3131    1.4849 Du        3 SUP3    0.0000
     63 H15       -1.8283    3.8717    0.8296 Du        3 SUP3    0.0000
     64 H16        6.8792    7.5980    6.3124 Du        3 SUP3    0.0000
     65 H17        3.4552    8.6351    4.4052 Du        3 SUP3    0.0000
     66 H18        2.9656    6.3730    4.0574 Du        3 SUP3    0.0000
     67 H19        4.9363    3.7423    5.2150 Du        3 SUP3    0.0000
     68 H20        3.6535    4.0525    4.4534 Du        3 SUP3    0.0000
@<TRIPOS>BOND
     1    1    2 ar
     2    2    3 ar
     3    3    4 ar
     4    4    5 ar
     5    5    6 ar
     6    6    1 ar
     7    7    1 1
     8    8    2 1
     9    9    8 3
    10   10    4 1
    11   11   10 2
    12   12   10 2
    13   13   14 ar
    14   14   15 ar
    15   15   16 ar
    16   16   17 ar
    17   17   18 ar
    18   18   13 ar
    19   19   13 1
    20   20   14 1
    21   21   20 3
    22   22   16 1
    23   23   22 2
    24   24   22 2
    25   49    3 1
    26   50    5 1
    27   51    6 1
    28   52    7 1
    29   53    7 1
    30   54   15 1
    31   55   17 1
    32   56   18 1
    33   57   19 1
    34   58   19 1
@<TRIPOS>SUBSTRUCTURE
     1 RES1 1
     2 RES2 13
     3 SUP3 25

@<TRIPOS>CRYSIN
  11.2316   17.7275    7.1078  90.0000  94.6300  90.0000  14 1

