# MOL2 file generated by ConQuest
# Please check atom types

@<TRIPOS>MOLECULE
OMOTIT
    68    72     2
SMALL
NO_CHARGES
****
Generated from CSD

@<TRIPOS>ATOM
      1 N1         0.7536    1.7407   -0.7223 N.2       1 RES1    0.0000
      2 N2         1.2496    1.5147    0.5210 N.3       1 RES1    0.0000
      3 C1         2.2375    2.3513    0.8804 C.2       1 RES1    0.0000
      4 H1         2.6956    2.3574    1.6899 H         1 RES1    0.0000
      5 C2         2.4354    3.1951   -0.1878 C.2       1 RES1    0.0000
      6 C3         3.2793    4.3008   -0.5068 C.2       1 RES1    0.0000
      7 N3         4.2781    4.7436    0.4572 N.pl3     1 RES1    0.0000
      8 O1         5.0045    5.6747    0.1694 O.2       1 RES1    0.0000
      9 O2         4.3391    4.1183    1.5156 O.2       1 RES1    0.0000
     10 C4         3.1736    4.9218   -1.7162 C.2       1 RES1    0.0000
     11 H2         3.7355    5.6348   -1.9196 H         1 RES1    0.0000
     12 C5         2.2189    4.4916   -2.6604 C.2       1 RES1    0.0000
     13 H3         2.1625    4.9340   -3.4756 H         1 RES1    0.0000
     14 C6         1.3750    3.4466   -2.4201 C.2       1 RES1    0.0000
     15 H4         0.7503    3.1767   -3.0531 H         1 RES1    0.0000
     16 C7         1.4862    2.7911   -1.1689 C.2       1 RES1    0.0000
     17 C8         0.6880    0.4154    1.3064 C.3       1 RES1    0.0000
     18 H5        -0.1772    0.1581    0.9272 H         1 RES1    0.0000
     19 O3         1.3695   -1.6351    0.2538 O.3       1 RES1    0.0000
     20 H6         2.0781   -1.9837    0.0284 H         1 RES1    0.0000
     21 C9         1.5968   -0.8086    1.3688 C.3       1 RES1    0.0000
     22 H7         2.5350   -0.5247    1.3873 H         1 RES1    0.0000
     23 O4        -0.0543   -2.0415    2.5257 O.3       1 RES1    0.0000
     24 H8        -0.2182   -2.4868    3.1970 H         1 RES1    0.0000
     25 C10        1.2031   -1.3914    2.7284 C.3       1 RES1    0.0000
     26 H9         1.8845   -1.9980    3.0878 H         1 RES1    0.0000
     27 O5         0.5028    0.8488    2.6285 O.3       1 RES1    0.0000
     28 C11        1.0478   -0.1380    3.5585 C.3       1 RES1    0.0000
     29 H10        0.4053   -0.2983    4.2801 H         1 RES1    0.0000
     30 O6         2.6929   -0.2803    5.3066 O.3       1 RES1    0.0000
     31 H11        3.2070    0.1761    5.7560 H         1 RES1    0.0000
     32 C12        2.3402    0.4287    4.1405 C.3       1 RES1    0.0000
     33 H12        3.0526    0.3558    3.4862 H         1 RES1    0.0000
     34 H13        2.2186    1.3692    4.3524 H         1 RES1    0.0000
     35 N4         4.1944   28.9310    7.9939 N.2       2 RES2    0.0000
     36 N5         3.4040   29.1894    6.9207 N.3       2 RES2    0.0000
     37 C13        3.6000   28.3370    5.8971 C.2       2 RES2    0.0000
     38 H14        3.1571   28.3427    5.0790 H         2 RES2    0.0000
     39 C14        4.5916   27.4490    6.2969 C.2       2 RES2    0.0000
     40 C15        5.2829   26.3512    5.7560 C.2       2 RES2    0.0000
     41 N6         4.9612   25.8879    4.4127 N.pl3     2 RES2    0.0000
     42 O7         5.5454   24.9180    3.9682 O.2       2 RES2    0.0000
     43 O8         4.1022   26.4705    3.8094 O.2       2 RES2    0.0000
     44 C16        6.2465   25.6878    6.4861 C.2       2 RES2    0.0000
     45 H15        6.6861   24.9540    6.1232 H         2 RES2    0.0000
     46 C17        6.5623   26.1334    7.7904 C.2       2 RES2    0.0000
     47 H16        7.2296   25.6978    8.2689 H         2 RES2    0.0000
     48 C18        5.9150   27.1849    8.3639 C.2       2 RES2    0.0000
     49 H17        6.1224   27.4515    9.2301 H         2 RES2    0.0000
     50 C19        4.9237   27.8619    7.6217 C.2       2 RES2    0.0000
     51 C20        2.5196   30.3616    6.9866 C.3       2 RES2    0.0000
     52 H18        2.0223   30.3587    7.8315 H         2 RES2    0.0000
     53 O9         2.5724   32.7284    7.4140 O.3       2 RES2    0.0000
     54 H19        3.0503   33.1330    7.9464 H         2 RES2    0.0000
     55 C21        3.3220   31.6571    6.8611 C.3       2 RES2    0.0000
     56 H20        4.2140   31.5842    7.2602 H         2 RES2    0.0000
     57 O10        3.7452   33.0586    4.8515 O.3       2 RES2    0.0000
     58 H21        3.3987   33.6397    5.3094 H         2 RES2    0.0000
     59 C22        3.3758   31.7890    5.3349 C.3       2 RES2    0.0000
     60 H22        4.0127   31.1278    4.9904 H         2 RES2    0.0000
     61 O11        1.6208   30.3250    5.9006 O.3       2 RES2    0.0000
     62 C23        1.9685   31.3585    4.9295 C.3       2 RES2    0.0000
     63 H23        1.3532   32.1160    5.0188 H         2 RES2    0.0000
     64 O12        0.5206   30.5143    3.2275 O.3       2 RES2    0.0000
     65 H24        0.4964   29.9706    2.6015 H         2 RES2    0.0000
     66 C24        1.8806   30.7921    3.5238 C.3       2 RES2    0.0000
     67 H25        2.2334   31.4332    2.8865 H         2 RES2    0.0000
     68 H26        2.4056   29.9778    3.4614 H         2 RES2    0.0000
@<TRIPOS>BOND
     1    1    2 1
     2    2    3 1
     3    3    4 1
     4    5    3 2
     5    6    5 1
     6    7    6 1
     7    8    7 2
     8    9    7 2
     9   10    6 2
    10   11   10 1
    11   12   10 1
    12   13   12 1
    13   14   12 2
    14   15   14 1
    15   16    1 2
    16   17    2 1
    17   18   17 1
    18   19   20 1
    19   21   17 1
    20   22   21 1
    21   23   24 1
    22   25   21 1
    23   26   25 1
    24   27   17 1
    25   28   25 1
    26   29   28 1
    27   30   31 1
    28   32   28 1
    29   33   32 1
    30   34   32 1
    31   35   36 1
    32   36   37 1
    33   37   38 1
    34   39   37 2
    35   40   39 1
    36   41   40 1
    37   42   41 2
    38   43   41 2
    39   44   40 2
    40   45   44 1
    41   46   44 1
    42   47   46 1
    43   48   46 2
    44   49   48 1
    45   50   35 2
    46   51   36 1
    47   52   51 1
    48   53   54 1
    49   55   51 1
    50   56   55 1
    51   57   58 1
    52   59   55 1
    53   60   59 1
    54   61   51 1
    55   62   59 1
    56   63   62 1
    57   64   65 1
    58   66   62 1
    59   67   66 1
    60   68   66 1
    61    5   16 1
    62   14   16 1
    63   19   21 1
    64   23   25 1
    65   27   28 1
    66   30   32 1
    67   39   50 1
    68   48   50 1
    69   53   55 1
    70   57   59 1
    71   61   62 1
    72   64   66 1
@<TRIPOS>SUBSTRUCTURE
     1 RES1 1
     2 RES2 35

@<TRIPOS>CRYSIN
   4.9355   35.9360    7.1833  90.0000  99.3110  90.0000   4 1

