# MOL2 file generated by ConQuest
# Please check atom types

@<TRIPOS>MOLECULE
ONILUT
    55    86     1
SMALL
NO_CHARGES
****
Generated from CSD

@<TRIPOS>ATOM
      1 O1         5.8860    1.6281   10.6712 O.3       1 RES1    0.0000
      2 H1         5.9833    2.4254   11.2295 H         1 RES1    0.0000
      3 O2         6.7394    3.9054   11.4869 O.2       1 RES1    0.0000
      4 O3         8.3058    4.9506   10.4456 O.2       1 RES1    0.0000
      5 N1         7.5360    4.0027   10.5378 N.2       1 RES1    0.0000
      6 C1         5.9223   -0.3931    8.7244 C.3       1 RES1    0.0000
      7 H2         5.3923   -0.3466    9.5742 H         1 RES1    0.0000
      8 C2         5.8673   -0.3559    8.6704 C.3       1 RES1    0.0000
      9 H3         5.3289   -0.3057    9.5062 H         1 RES1    0.0000
     10 C3         6.6641   -1.6550    8.7039 C.3       1 RES1    0.0000
     11 H4         7.1698   -1.7498    7.8585 H         1 RES1    0.0000
     12 H5         7.3187   -1.6113    9.4457 H         1 RES1    0.0000
     13 C4         5.7796   -2.8788    8.8939 C.3       1 RES1    0.0000
     14 H6         6.2727   -3.6882    8.6067 H         1 RES1    0.0000
     15 H7         5.5580   -2.9792    9.8538 H         1 RES1    0.0000
     16 C5         6.2916   -2.7599    8.0971 C.3       1 RES1    0.0000
     17 H8         6.8453   -3.5312    8.1489 H         1 RES1    0.0000
     18 C6         6.7033   -1.6829    8.7277 C.3       1 RES1    0.0000
     19 H9         7.5261   -1.7173    9.2017 H         1 RES1    0.0000
     20 C7         6.7893    0.8541    8.6351 C.3       1 RES1    0.0000
     21 C8         6.7289    1.8327    9.6390 C.2       1 RES1    0.0000
     22 C9         7.5548    2.9696    9.5264 C.2       1 RES1    0.0000
     23 C10        8.4032    3.1474    8.4492 C.2       1 RES1    0.0000
     24 H10        8.9458    3.9252    8.3908 H         1 RES1    0.0000
     25 C11        8.4552    2.1921    7.4655 C.2       1 RES1    0.0000
     26 H11        9.0317    2.3036    6.7182 H         1 RES1    0.0000
     27 C12        7.6544    1.0538    7.5728 C.2       1 RES1    0.0000
     28 H12        7.7054    0.3931    6.8921 H         1 RES1    0.0000
     29 O1A        4.9135    1.6281    5.5251 O.3       1 RES1    0.0000
     30 H1A        4.8161    2.4254    4.9669 H         1 RES1    0.0000
     31 O2A        4.0600    3.9054    4.7095 O.2       1 RES1    0.0000
     32 O3A        2.4936    4.9506    5.7508 O.2       1 RES1    0.0000
     33 N1A        3.2634    4.0027    5.6586 N.2       1 RES1    0.0000
     34 C1A        4.8771   -0.3931    7.4719 C.3       1 RES1    0.0000
     35 H2A        5.4071   -0.3466    6.6221 H         1 RES1    0.0000
     36 C2A        4.9321   -0.3559    7.5259 C.3       1 RES1    0.0000
     37 H3A        5.4705   -0.3057    6.6902 H         1 RES1    0.0000
     38 C3A        4.1353   -1.6550    7.4924 C.3       1 RES1    0.0000
     39 H4A        3.6296   -1.7498    8.3379 H         1 RES1    0.0000
     40 H5A        3.4807   -1.6113    6.7506 H         1 RES1    0.0000
     41 C4A        5.0198   -2.8788    7.3024 C.3       1 RES1    0.0000
     42 H6A        4.5267   -3.6882    7.5896 H         1 RES1    0.0000
     43 H7A        5.2414   -2.9792    6.3425 H         1 RES1    0.0000
     44 C5A        4.5078   -2.7599    8.0992 C.3       1 RES1    0.0000
     45 H8A        3.9541   -3.5312    8.0474 H         1 RES1    0.0000
     46 H9A        3.2733   -1.7173    6.9947 H         1 RES1    0.0000
     47 C7A        4.0101    0.8541    7.5612 C.3       1 RES1    0.0000
     48 C8A        4.0705    1.8327    6.5574 C.2       1 RES1    0.0000
     49 C9A        3.2446    2.9696    6.6700 C.2       1 RES1    0.0000
     50 C10A       2.3962    3.1474    7.7471 C.2       1 RES1    0.0000
     51 H10A       1.8536    3.9252    7.8056 H         1 RES1    0.0000
     52 C11A       2.3442    2.1921    8.7308 C.2       1 RES1    0.0000
     53 H11A       1.7677    2.3036    9.4781 H         1 RES1    0.0000
     54 C12A       3.1450    1.0538    8.6236 C.2       1 RES1    0.0000
     55 H12A       3.0940    0.3931    9.3043 H         1 RES1    0.0000
@<TRIPOS>BOND
     1    1    2 1
     2    3    5 1
     3    4    5 1
     4    5   22 1
     5    6    7 1
     6    7    8 1
     7    8    6 1
     8    9    6 1
     9   10    6 1
    10   11   10 1
    11   12   10 1
    12   13   10 1
    13   14   13 1
    14   15   13 1
    15   16   10 1
    16   17   14 1
    17   18    6 1
    18   19   10 1
    19   20    6 1
    20   21    1 1
    21   22   21 1
    22   23   22 1
    23   24   23 1
    24   25   23 1
    25   26   25 1
    26   27   20 1
    27   28   27 1
    28   29   30 1
    29   31   33 1
    30   32   33 1
    31   33   49 1
    32   34    6 1
    33   35   34 1
    34   36    6 1
    35   37   34 1
    36   38   34 1
    37   39   38 1
    38   40   38 1
    39   41   16 1
    40   42   41 1
    41   43   41 1
    42   44   13 1
    43   45   42 1
    44   46   38 1
    45   47   34 1
    46   48   29 1
    47   49   48 1
    48   50   49 1
    49   51   50 1
    50   52   50 1
    51   53   52 1
    52   54   47 1
    53   55   54 1
    54    7    9 1
    55    8    9 1
    56    8   10 1
    57    8   18 1
    58    8   20 1
    59    8   34 1
    60    8   36 1
    61   10   18 1
    62   11   18 1
    63   12   18 1
    64   12   19 1
    65   13   16 1
    66   13   18 1
    67   14   16 1
    68   16   17 1
    69   16   18 1
    70   18   19 1
    71   20   21 1
    72   25   27 1
    73   34   36 1
    74   35   36 1
    75   35   37 1
    76   36   37 1
    77   36   38 1
    78   36   47 1
    79   38   41 1
    80   38   44 1
    81   40   46 1
    82   41   44 1
    83   42   44 1
    84   44   45 1
    85   47   48 1
    86   52   54 1
@<TRIPOS>SUBSTRUCTURE
     1 RES1 1

@<TRIPOS>CRYSIN
  16.3276    9.2926   11.4092  90.0000 108.8460  90.0000  15 1

