# MOL2 file generated by ConQuest
# Please check atom types

@<TRIPOS>MOLECULE
ONITAN
    32    32     2
SMALL
NO_CHARGES
****
Generated from CSD

@<TRIPOS>ATOM
      1 C1         2.1708    2.9680   -3.5647 C.ar      1 RES1    0.0000
      2 C2         2.8975    1.9540   -4.0938 C.ar      1 RES1    0.0000
      3 C3         4.2882    1.7908   -3.7790 C.ar      1 RES1    0.0000
      4 C4         4.9730    2.6667   -2.9767 C.ar      1 RES1    0.0000
      5 C5         4.1907    3.6907   -2.4820 C.ar      1 RES1    0.0000
      6 C6         2.8612    3.8559   -2.7060 C.ar      1 RES1    0.0000
      7 N1         0.8346    3.2162   -3.7430 N.3       1 RES1    0.0000
      8 N2         2.3543    0.9369   -5.0375 N.pl3     1 RES1    0.0000
      9 O1         1.1537    1.0400   -5.2494 O.2       1 RES1    0.0000
     10 O2         3.0821    0.0701   -5.4816 O.2       1 RES1    0.0000
     11 H1         4.7808    1.0811   -4.1135 H         1 RES1    0.0000
     12 H2         5.9183    2.6026   -2.8132 H         1 RES1    0.0000
     13 H3         4.5189    4.3243   -1.8973 H         1 RES1    0.0000
     14 H4         2.3219    4.6246   -2.2326 H         1 RES1    0.0000
     15 H5         0.5768    4.0741   -3.4674 H         1 RES1    0.0000
     16 H6         0.6094    2.5525   -4.0644 H         1 RES1    0.0000
     17 C7         1.3511    2.0851   -0.0025 C.ar      2 RES2    0.0000
     18 C8         1.6298    3.1271    0.9225 C.ar      2 RES2    0.0000
     19 C9         2.9665    3.3093    1.4295 C.ar      2 RES2    0.0000
     20 C10        3.9595    2.4705    0.9920 C.ar      2 RES2    0.0000
     21 C11        3.7023    1.4504    0.1218 C.ar      2 RES2    0.0000
     22 C12        2.4094    1.2362   -0.3377 C.ar      2 RES2    0.0000
     23 N3         0.1039    1.8188   -0.4449 N.3       2 RES2    0.0000
     24 N4         0.6487    4.0460    1.4058 N.pl3     2 RES2    0.0000
     25 O3        -0.5348    3.8929    1.0410 O.2       2 RES2    0.0000
     26 O4         0.9621    4.9830    2.1262 O.2       2 RES2    0.0000
     27 H7         3.0748    3.9940    1.8727 H         2 RES2    0.0000
     28 H8         4.8969    2.6927    1.2349 H         2 RES2    0.0000
     29 H9         4.3233    0.7508   -0.0900 H         2 RES2    0.0000
     30 H10        2.0868    0.3103   -1.0386 H         2 RES2    0.0000
     31 H11       -0.2125    0.9409   -0.8996 H         2 RES2    0.0000
     32 H12       -0.3894    2.5526   -0.3844 H         2 RES2    0.0000
@<TRIPOS>BOND
     1    1    2 ar
     2    2    3 ar
     3    3    4 ar
     4    4    5 ar
     5    5    6 ar
     6    6    1 ar
     7    7    1 1
     8    8    2 1
     9    9    8 2
    10   10    8 2
    11   11    3 1
    12   12    4 1
    13   13    5 1
    14   14    6 1
    15   15    7 1
    16   16    7 1
    17   17   18 ar
    18   18   19 ar
    19   19   20 ar
    20   20   21 ar
    21   21   22 ar
    22   22   17 ar
    23   23   17 1
    24   24   18 1
    25   25   24 2
    26   26   24 2
    27   27   19 1
    28   28   20 1
    29   29   21 1
    30   30   22 1
    31   31   23 1
    32   32   23 1
@<TRIPOS>SUBSTRUCTURE
     1 RES1 1
     2 RES2 17

@<TRIPOS>CRYSIN
  15.4500   10.0100    8.5700  90.0000 107.4000  90.0000  14 2

