# MOL2 file generated by ConQuest
# Please check atom types

@<TRIPOS>MOLECULE
ONITAN02
    32    32     2
SMALL
NO_CHARGES
****
Generated from CSD

@<TRIPOS>ATOM
      1 C1         8.7917    7.0756   -1.0161 C.ar      1 RES1    0.0000
      2 C2         8.0323    8.1423   -1.5647 C.ar      1 RES1    0.0000
      3 C3         7.9227    8.2644   -2.9500 C.ar      1 RES1    0.0000
      4 C4         8.5045    7.3873   -3.7880 C.ar      1 RES1    0.0000
      5 C5         9.2387    6.3236   -3.2718 C.ar      1 RES1    0.0000
      6 C6         9.3822    6.1880   -1.9394 C.ar      1 RES1    0.0000
      7 O1         7.4411    9.0143    0.4752 O.2       1 RES1    0.0000
      8 O2         6.6813    9.9482   -1.2979 O.2       1 RES1    0.0000
      9 N1         8.9747    6.8696    0.2959 N.3       1 RES1    0.0000
     10 N2         7.3453    9.0938   -0.7575 N.pl3     1 RES1    0.0000
     11 H1         7.4736    9.0599   -3.2896 H         1 RES1    0.0000
     12 H2         8.4302    7.3792   -4.6985 H         1 RES1    0.0000
     13 H3         9.7192    5.6425   -3.8402 H         1 RES1    0.0000
     14 H4         9.8589    5.5551   -1.4931 H         1 RES1    0.0000
     15 H5         9.5237    6.0908    0.5554 H         1 RES1    0.0000
     16 H6         8.6422    7.2098    0.8187 H         1 RES1    0.0000
     17 C7         3.9122    7.9707   -1.2728 C.ar      2 RES2    0.0000
     18 C8         3.2454    8.8003   -2.1707 C.ar      2 RES2    0.0000
     19 C9         3.3421    8.6154   -3.5048 C.ar      2 RES2    0.0000
     20 C10        4.0992    7.5825   -4.0519 C.ar      2 RES2    0.0000
     21 C11        4.7689    6.7471   -3.2168 C.ar      2 RES2    0.0000
     22 C12        4.6731    6.9364   -1.8345 C.ar      2 RES2    0.0000
     23 O3         5.4117    6.1427    0.2049 O.2       2 RES2    0.0000
     24 O4         6.0066    5.0836   -1.5555 O.2       2 RES2    0.0000
     25 N3         3.7819    8.2376    0.0451 N.3       2 RES2    0.0000
     26 N4         5.4195    6.0063   -1.0176 N.pl3     2 RES2    0.0000
     27 H7         2.7055    9.6130   -1.7076 H         2 RES2    0.0000
     28 H8         4.1708    7.4882   -5.0296 H         2 RES2    0.0000
     29 H9         2.8223    9.2610   -4.0675 H         2 RES2    0.0000
     30 H10        5.3207    6.1767   -3.6054 H         2 RES2    0.0000
     31 H11        3.0583    8.9927    0.1971 H         2 RES2    0.0000
     32 H12        4.0134    7.6013    0.4159 H         2 RES2    0.0000
@<TRIPOS>BOND
     1    1    2 ar
     2    2    3 ar
     3    3    4 ar
     4    4    5 ar
     5    5    6 ar
     6    6    1 ar
     7    7   10 2
     8    8   10 2
     9    9    1 1
    10   10    2 1
    11   11    3 1
    12   12    4 1
    13   13    5 1
    14   14    6 1
    15   15    9 1
    16   16    9 1
    17   17   18 ar
    18   18   19 ar
    19   19   20 ar
    20   20   21 ar
    21   21   22 ar
    22   22   17 ar
    23   23   26 2
    24   24   26 2
    25   25   17 1
    26   26   22 1
    27   27   18 1
    28   28   20 1
    29   29   19 1
    30   30   21 1
    31   31   25 1
    32   32   25 1
@<TRIPOS>SUBSTRUCTURE
     1 RES1 1
     2 RES2 17

@<TRIPOS>CRYSIN
   8.5180   10.0650   15.2270  90.0000 105.7700  90.0000 231 1

