# MOL2 file generated by ConQuest
# Please check atom types

@<TRIPOS>MOLECULE
ONITAN03
    32    32     2
SMALL
NO_CHARGES
****
Generated from CSD

@<TRIPOS>ATOM
      1 O1         9.1941    1.7228   10.5898 O.2       1 RES1    0.0000
      2 O2        10.7951    0.5962   11.5024 O.2       1 RES1    0.0000
      3 O3        10.1807    4.2795    4.6618 O.2       2 RES2    0.0000
      4 O4         8.4018    4.4110    5.8782 O.2       2 RES2    0.0000
      5 N1         9.5114    2.7868    8.2023 N.3       1 RES1    0.0000
      6 N2        10.3686    1.3172   10.5891 N.pl3     1 RES1    0.0000
      7 N3        10.1963    5.2142    2.2052 N.3       2 RES2    0.0000
      8 N4         9.0025    4.6422    4.8203 N.pl3     2 RES2    0.0000
      9 C1        10.7712    2.3266    8.3599 C.ar      1 RES1    0.0000
     10 C2        11.7047    2.5142    7.3148 C.ar      1 RES1    0.0000
     11 H1        11.4238    2.9312    6.5081 H         1 RES1    0.0000
     12 C3        13.0016    2.1090    7.4407 C.ar      1 RES1    0.0000
     13 H2        13.6076    2.2637    6.7245 H         1 RES1    0.0000
     14 C4        13.4601    1.4715    8.5990 C.ar      1 RES1    0.0000
     15 H3        14.3692    1.2039    8.6751 H         1 RES1    0.0000
     16 C5        12.5831    1.2387    9.6192 C.ar      1 RES1    0.0000
     17 H4        12.8778    0.7956   10.4068 H         1 RES1    0.0000
     18 C6        11.2536    1.6504    9.5084 C.ar      1 RES1    0.0000
     19 C7         8.9284    5.5417    2.5092 C.ar      2 RES2    0.0000
     20 C8         8.1167    6.1679    1.5248 C.ar      2 RES2    0.0000
     21 H5         8.4810    6.3354    0.6634 H         2 RES2    0.0000
     22 C9         6.8293    6.5344    1.7825 C.ar      2 RES2    0.0000
     23 H6         6.3136    6.9427    1.0963 H         2 RES2    0.0000
     24 C10        6.2531    6.3203    3.0410 C.ar      2 RES2    0.0000
     25 H7         5.3603    6.5943    3.2145 H         2 RES2    0.0000
     26 C11        6.9931    5.7111    4.0173 C.ar      2 RES2    0.0000
     27 H8         6.6092    5.5538    4.8717 H         2 RES2    0.0000
     28 C12        8.3114    5.3181    3.7649 C.ar      2 RES2    0.0000
     29 H9         8.9171    2.7140    8.8566 H         1 RES1    0.0000
     30 H10        9.2951    3.2295    7.4810 H         1 RES1    0.0000
     31 H11       10.6786    4.7343    2.7536 H         2 RES2    0.0000
     32 H12       10.4612    5.2385    1.3733 H         2 RES2    0.0000
@<TRIPOS>BOND
     1    1    6 2
     2    2    6 2
     3    3    8 2
     4    4    8 2
     5    5    9 1
     6    6   18 1
     7    7   19 1
     8    8   28 1
     9    9   10 ar
    10   10   11 1
    11   12   10 ar
    12   13   12 1
    13   14   12 ar
    14   15   14 1
    15   16   14 ar
    16   17   16 1
    17   18    9 ar
    18   19   20 ar
    19   20   21 1
    20   22   20 ar
    21   23   22 1
    22   24   22 ar
    23   25   24 1
    24   26   24 ar
    25   27   26 1
    26   28   19 ar
    27   29    5 1
    28   30    5 1
    29   31    7 1
    30   32    7 1
    31   16   18 ar
    32   26   28 ar
@<TRIPOS>SUBSTRUCTURE
     1 RES1 1
     2 RES2 3

@<TRIPOS>CRYSIN
  13.8925    3.7905   23.3997  90.0000  95.8870  90.0000  14 1

