# MOL2 file generated by ConQuest
# Please check atom types

@<TRIPOS>MOLECULE
ONITAN01
    32    32     2
SMALL
NO_CHARGES
****
Generated from CSD

@<TRIPOS>ATOM
      1 N1         2.6071    6.8697    7.5874 N.pl3     1 RES1    0.0000
      2 H1         3.1549    6.2351    7.8360 H         1 RES1    0.0000
      3 H2         2.1880    7.3147    8.2285 H         1 RES1    0.0000
      4 C1         2.4422    7.0665    6.2659 C.ar      1 RES1    0.0000
      5 C2         1.6935    8.1379    5.6989 C.ar      1 RES1    0.0000
      6 N2         1.0261    9.1045    6.5058 N.pl3     1 RES1    0.0000
      7 O1         1.1265    9.0490    7.7527 O.2       1 RES1    0.0000
      8 O2         0.3537    9.9883    5.9523 O.2       1 RES1    0.0000
      9 C3         1.5748    8.2772    4.3062 C.ar      1 RES1    0.0000
     10 H3         1.0846    9.0076    3.9485 H         1 RES1    0.0000
     11 C4         2.1542    7.3752    3.4615 C.ar      1 RES1    0.0000
     12 H4         2.0666    7.4700    2.5194 H         1 RES1    0.0000
     13 C5         2.8856    6.3007    4.0096 C.ar      1 RES1    0.0000
     14 H5         3.2850    5.6641    3.4281 H         1 RES1    0.0000
     15 C6         3.0296    6.1595    5.3587 C.ar      1 RES1    0.0000
     16 H6         3.5388    5.4320    5.6960 H         1 RES1    0.0000
     17 N3         6.7975    1.8393    7.2414 N.pl3     2 RES2    0.0000
     18 H7         7.3983    1.2208    7.0219 H         2 RES2    0.0000
     19 H8         6.3926    2.2701    6.5857 H         2 RES2    0.0000
     20 C7         6.6956    2.0935    8.5658 C.ar      2 RES2    0.0000
     21 C8         5.9430    3.1458    9.1371 C.ar      2 RES2    0.0000
     22 N4         5.2319    4.0821    8.3216 N.pl3     2 RES2    0.0000
     23 O3         5.2176    3.9429    7.0857 O.2       2 RES2    0.0000
     24 O4         4.6323    5.0214    8.8667 O.2       2 RES2    0.0000
     25 C9         5.8673    3.3274   10.5328 C.ar      2 RES2    0.0000
     26 H9         5.3487    4.0377   10.8933 H         2 RES2    0.0000
     27 C10        6.5416    2.4809   11.3673 C.ar      2 RES2    0.0000
     28 H10        6.4916    2.5960   12.3093 H         2 RES2    0.0000
     29 C11        7.3087    1.4428   10.8221 C.ar      2 RES2    0.0000
     30 H11        7.7874    0.8646   11.4036 H         2 RES2    0.0000
     31 C12        7.3824    1.2440    9.4759 C.ar      2 RES2    0.0000
     32 H12        7.9026    0.5236    9.1400 H         2 RES2    0.0000
@<TRIPOS>BOND
     1    1    2 1
     2    3    1 1
     3    4    1 1
     4    5    4 ar
     5    6    5 1
     6    7    6 2
     7    8    6 2
     8    9    5 ar
     9   10    9 1
    10   11    9 ar
    11   12   11 1
    12   13   11 ar
    13   14   13 1
    14   15    4 ar
    15   16   15 1
    16   17   18 1
    17   19   17 1
    18   20   17 1
    19   21   20 ar
    20   22   21 1
    21   23   22 2
    22   24   22 2
    23   25   21 ar
    24   26   25 1
    25   27   25 ar
    26   28   27 1
    27   29   27 ar
    28   30   29 1
    29   31   20 ar
    30   32   31 1
    31   13   15 ar
    32   29   31 ar
@<TRIPOS>SUBSTRUCTURE
     1 RES1 1
     2 RES2 17

@<TRIPOS>CRYSIN
   8.3388   10.0892   15.0787  90.0000 105.3900  90.0000 231 1

