# MOL2 file generated by ConQuest
# Please check atom types

@<TRIPOS>MOLECULE
ONORAL
    34    33     1
SMALL
USER_CHARGES
****
Generated from CSD

@<TRIPOS>ATOM
      1 O1        12.8448    4.1642    1.6036 O.2       1 RES1    0.0000
      2 O2        11.1307    4.6701    0.3824 O.2       1 RES1    0.0000
      3 O3         8.4080    5.7268    6.7875 O.2       1 RES1    0.0000
      4 N1         8.9909    3.7984    5.8578 N.3       1 RES1    0.0000
      5 O4         7.3776    1.9747    4.4043 O.2       1 RES1    0.0000
      6 N2         8.9909    5.1728    5.8578 N.pl3     1 RES1    0.0000
      7 N3        10.8731    3.7281    2.4551 N.2       1 RES1   -1.0000
      8 O5         7.0436    2.7062    2.3890 O.2       1 RES1    0.0000
      9 N4         8.9076    3.3034    3.4992 N.3       1 RES1    0.0000
     10 N5         8.8237    4.3100    1.3824 N.pl3     1 RES1    1.0000
     11 N6         7.6989    2.6105    3.4139 N.pl3     1 RES1    0.0000
     12 C1         9.6427    3.1189    4.7586 C.3       1 RES1    0.0000
     13 C2         9.5456    3.8213    2.3426 C.2       1 RES1    0.0000
     14 N7        11.6243    4.2168    1.4286 N.pl3     1 RES1    0.0000
     15 H1        10.5014    3.4992    4.6229 H         1 RES1    0.0000
     16 H2         9.6922    2.1934    4.9557 H         1 RES1    0.0000
     17 H3         7.9749    4.3233    1.4762 H         1 RES1    0.0000
     18 H4         9.3236    4.5832    0.6420 H         1 RES1    0.0000
     19 O1C        5.1370    4.1642   10.1119 O.2       1 RES1    0.0000
     20 O2C        6.8511    4.6701   11.3331 O.2       1 RES1    0.0000
     21 O3C        9.5738    5.7268    4.9280 O.2       1 RES1    0.0000
     22 O4C       10.6042    1.9747    7.3112 O.2       1 RES1    0.0000
     23 N3C        7.1087    3.7281    9.2604 N.2       1 RES1   -1.0000
     24 O5C       10.9382    2.7062    9.3265 O.2       1 RES1    0.0000
     25 N4C        9.0742    3.3034    8.2163 N.3       1 RES1    0.0000
     26 N5C        9.1581    4.3100   10.3331 N.pl3     1 RES1    1.0000
     27 N6C       10.2829    2.6105    8.3016 N.pl3     1 RES1    0.0000
     28 C1C        8.3391    3.1189    6.9569 C.3       1 RES1    0.0000
     29 C2C        8.4362    3.8213    9.3729 C.2       1 RES1    0.0000
     30 N7C        6.3575    4.2168   10.2869 N.pl3     1 RES1    0.0000
     31 H1C        7.4804    3.4992    7.0926 H         1 RES1    0.0000
     32 H2C        8.2896    2.1934    6.7598 H         1 RES1    0.0000
     33 H3C       10.0069    4.3233   10.2393 H         1 RES1    0.0000
     34 H4C        8.6582    4.5832   11.0735 H         1 RES1    0.0000
@<TRIPOS>BOND
     1    1   14 2
     2    2   14 2
     3    3    6 2
     4    4    6 1
     5    5   11 2
     6    6   21 2
     7    7   13 1
     8    8   11 2
     9    9   11 1
    10   10   13 2
    11   12    4 1
    12   13    9 1
    13   14    7 1
    14   15   12 1
    15   16   12 1
    16   17   10 1
    17   18   10 1
    18   19   30 2
    19   20   30 2
    20   22   27 2
    21   23   29 1
    22   24   27 2
    23   25   27 1
    24   26   29 2
    25   28    4 1
    26   29   25 1
    27   30   23 1
    28   31   28 1
    29   32   28 1
    30   33   26 1
    31   34   26 1
    32    9   12 1
    33   25   28 1
@<TRIPOS>SUBSTRUCTURE
     1 RES1 1

@<TRIPOS>CRYSIN
   8.9909    6.3392   23.4310  90.0000  90.0000  90.0000  60 1

