# MOL2 file generated by ConQuest
# Please check atom types

@<TRIPOS>MOLECULE
ONUVOJ
    79    74     2
SMALL
NO_CHARGES
****
Generated from CSD

@<TRIPOS>ATOM
      1 O1         3.3834   -2.3035    7.9735 O.2       1 RES1    0.0000
      2 O2         1.4367   -3.3904    7.8547 O.3       1 RES1    0.0000
      3 O3         2.0975    0.0373    8.6037 O.3       1 RES1    0.0000
      4 O4         4.5857    5.7690    7.9276 O.3       1 RES1    0.0000
      5 O5         1.8555   -1.6318   10.9188 O.3       1 RES1    0.0000
      6 O6         1.4963   -3.8538   10.9615 O.2       1 RES1    0.0000
      7 O7         6.3908   -2.0659   16.0239 O.2       1 RES1    0.0000
      8 O8         6.5176   -4.1991   15.7610 O.2       1 RES1    0.0000
      9 O9        -0.7724    1.5767   13.2793 O.3       1 RES1    0.0000
     10 O10       -1.7164    2.3320   15.2000 O.3       1 RES1    0.0000
     11 N1         6.0408   -3.1091   15.4820 N.pl3     1 RES1    0.0000
     12 C1         2.1958   -2.3263    8.0859 C.2       1 RES1    0.0000
     13 C2         1.3470   -1.1570    8.5750 C.3       1 RES1    0.0000
     14 H1         0.5884   -1.0334    7.9351 H         1 RES1    0.0000
     15 C3         0.7611   -1.4231    9.9655 C.3       1 RES1    0.0000
     16 H2         0.1875   -2.2421    9.9334 H         1 RES1    0.0000
     17 C4        -0.0550   -0.2611   10.4292 C.2       1 RES1    0.0000
     18 H3        -0.8712   -0.1047    9.9697 H         1 RES1    0.0000
     19 C5         0.2374    0.5734   11.4124 C.2       1 RES1    0.0000
     20 H4         1.0577    0.4393   11.8737 H         1 RES1    0.0000
     21 C6         2.1118   -4.6123    7.5111 C.3       1 RES1    0.0000
     22 H5         1.4494   -5.3149    7.3431 H         1 RES1    0.0000
     23 H6         2.6941   -4.8824    8.2517 H         1 RES1    0.0000
     24 H7         2.6513   -4.4727    6.7052 H         1 RES1    0.0000
     25 C7         2.2554    0.6444    7.3117 C.3       1 RES1    0.0000
     26 H8         1.3705    0.7557    6.8816 H         1 RES1    0.0000
     27 H9         2.8102    0.0637    6.7342 H         1 RES1    0.0000
     28 C8         2.9152    1.9839    7.4714 C.ar      1 RES1    0.0000
     29 C9         2.5305    2.8537    8.4781 C.ar      1 RES1    0.0000
     30 H10        1.8580    2.5858    9.0925 H         1 RES1    0.0000
     31 C10        3.1062    4.1010    8.6044 C.ar      1 RES1    0.0000
     32 H11        2.8337    4.6753    9.3100 H         1 RES1    0.0000
     33 C11        4.0753    4.5203    7.7145 C.ar      1 RES1    0.0000
     34 C12        4.4838    3.6681    6.7074 C.ar      1 RES1    0.0000
     35 H12        5.1630    3.9333    6.0987 H         1 RES1    0.0000
     36 C13        3.8837    2.4110    6.5992 C.ar      1 RES1    0.0000
     37 H13        4.1557    1.8323    5.8958 H         1 RES1    0.0000
     38 C14        5.6424    6.2111    7.0725 C.3       1 RES1    0.0000
     39 H14        5.9409    7.0995    7.3552 H         1 RES1    0.0000
     40 H15        5.3184    6.2550    6.1495 H         1 RES1    0.0000
     41 H16        6.3918    5.5812    7.1281 H         1 RES1    0.0000
     42 C15        2.0649   -2.8798   11.3788 C.2       1 RES1    0.0000
     43 C16        3.1001   -2.9110   12.4582 C.ar      1 RES1    0.0000
     44 C17        3.5352   -1.7524   13.0869 C.ar      1 RES1    0.0000
     45 H17        3.1658   -0.9128   12.8354 H         1 RES1    0.0000
     46 C18        4.4996   -1.8084   14.0737 C.ar      1 RES1    0.0000
     47 H18        4.8089   -1.0175   14.4978 H         1 RES1    0.0000
     48 C19        5.0015   -3.0390   14.4265 C.ar      1 RES1    0.0000
     49 C20        4.5873   -4.2064   13.8244 C.ar      1 RES1    0.0000
     50 H19        4.9571   -5.0418   14.0822 H         1 RES1    0.0000
     51 C21        3.6249   -4.1384   12.8383 C.ar      1 RES1    0.0000
     52 H20        3.3202   -4.9348   12.4174 H         1 RES1    0.0000
     53 C22       -0.6200    1.7067   11.8515 C.3       1 RES1    0.0000
     54 H21       -1.5177    1.6207   11.4194 H         1 RES1    0.0000
     55 C23       -0.0367    3.0692   11.5096 C.3       1 RES1    0.0000
     56 H22       -0.0194    3.1821   10.5254 H         1 RES1    0.0000
     57 H23        0.8951    3.1207   11.8399 H         1 RES1    0.0000
     58 C24       -0.8600    4.1918   12.1361 C.3       1 RES1    0.0000
     59 H24       -0.4076    5.0600   11.9873 H         1 RES1    0.0000
     60 H25       -1.7510    4.2315   11.7070 H         1 RES1    0.0000
     61 C25       -1.0210    3.9497   13.6284 C.3       1 RES1    0.0000
     62 H26       -0.1401    4.0152   14.0749 H         1 RES1    0.0000
     63 H27       -1.6181    4.6366   14.0170 H         1 RES1    0.0000
     64 C26       -1.6053    2.5814   13.8519 C.3       1 RES1    0.0000
     65 H28       -2.5122    2.5380   13.4322 H         1 RES1    0.0000
     66 C27       -2.7359    1.2929   15.3749 C.3       1 RES1    0.0000
     67 H29       -2.3634    0.3915   15.1985 H         1 RES1    0.0000
     68 H30       -3.5082    1.4454   14.7733 H         1 RES1    0.0000
     69 C28       -3.1485    1.4408   16.8440 C.3       1 RES1    0.0000
     70 H31       -3.8623    0.8058   17.0494 H         1 RES1    0.0000
     71 H32       -3.4644    2.3536   17.0035 H         1 RES1    0.0000
     72 H33       -2.3731    1.2610   17.4191 H         1 RES1    0.0000
     73 C29       -2.2722    1.1381   15.8437 Du        2 SUP2    0.0000
     74 C30       -3.6427    1.6115   16.3463 Du        2 SUP2    0.0000
     75 H34       -1.7032    0.8376   16.5951 Du        2 SUP2    0.0000
     76 H35       -2.3706    0.3961   15.1937 Du        2 SUP2    0.0000
     77 H36       -4.1206    0.8581   16.7498 Du        2 SUP2    0.0000
     78 H37       -4.1629    1.9621   15.5924 Du        2 SUP2    0.0000
     79 H38       -3.5184    2.3172   17.0132 Du        2 SUP2    0.0000
@<TRIPOS>BOND
     1    1   12 2
     2    2   12 1
     3    3   13 1
     4    4   33 1
     5    5   15 1
     6    6   42 2
     7    7   11 2
     8    8   11 2
     9    9   53 1
    10   10   64 1
    11   11   48 1
    12   12   13 1
    13   13   14 1
    14   15   13 1
    15   16   15 1
    16   17   15 1
    17   18   17 1
    18   19   17 2
    19   20   19 1
    20   21    2 1
    21   22   21 1
    22   23   21 1
    23   24   21 1
    24   25    3 1
    25   26   25 1
    26   27   25 1
    27   28   25 1
    28   29   28 ar
    29   30   29 1
    30   31   29 ar
    31   32   31 1
    32   33   31 ar
    33   34   33 ar
    34   35   34 1
    35   36   28 ar
    36   37   36 1
    37   38    4 1
    38   39   38 1
    39   40   38 1
    40   41   38 1
    41   42    5 1
    42   43   42 1
    43   44   43 ar
    44   45   44 1
    45   46   44 ar
    46   47   46 1
    47   48   46 ar
    48   49   48 ar
    49   50   49 1
    50   51   43 ar
    51   52   51 1
    52   53   19 1
    53   54   53 1
    54   55   53 1
    55   56   55 1
    56   57   55 1
    57   58   55 1
    58   59   58 1
    59   60   58 1
    60   61   58 1
    61   62   61 1
    62   63   61 1
    63   64    9 1
    64   65   64 1
    65   66   10 1
    66   67   66 1
    67   68   66 1
    68   69   66 1
    69   70   69 1
    70   71   69 1
    71   72   69 1
    72   34   36 ar
    73   49   51 ar
    74   61   64 1
@<TRIPOS>SUBSTRUCTURE
     1 RES1 1
     2 SUP2 73

@<TRIPOS>CRYSIN
   5.0947   22.7620   24.1630  90.0000  90.0000  90.0000  19 1

