# MOL2 file generated by ConQuest
# Please check atom types

@<TRIPOS>MOLECULE
OPAGOD
    49    52     1
SMALL
NO_CHARGES
****
Generated from CSD

@<TRIPOS>ATOM
      1 C1         6.3132    9.6618    5.5693 C.ar      1 RES1    0.0000
      2 H1         7.0246   10.2588    5.5073 H         1 RES1    0.0000
      3 C2         6.3503    8.4557    4.8954 C.ar      1 RES1    0.0000
      4 C3         5.3321    7.5273    4.9616 C.ar      1 RES1    0.0000
      5 H2         5.3633    6.7300    4.4836 H         1 RES1    0.0000
      6 C4         4.2621    7.8483    5.7778 C.ar      1 RES1    0.0000
      7 C5         4.1696    9.0395    6.4665 C.ar      1 RES1    0.0000
      8 H3         3.4338    9.2182    7.0070 H         1 RES1    0.0000
      9 C6         5.1987    9.9711    6.3397 C.ar      1 RES1    0.0000
     10 C7         5.2328   11.2610    7.1386 C.2       1 RES1    0.0000
     11 C8         2.9298   11.8249    6.3302 C.3       1 RES1    0.0000
     12 H4         2.2034   11.4666    6.8635 H         1 RES1    0.0000
     13 H5         3.1398   11.1795    5.6368 H         1 RES1    0.0000
     14 C9         2.4989   13.1118    5.6993 C.3       1 RES1    0.0000
     15 H6         1.6959   12.9565    5.1780 H         1 RES1    0.0000
     16 H7         3.1921   13.4160    5.0938 H         1 RES1    0.0000
     17 C10        2.2208   14.2041    6.7283 C.3       1 RES1    0.0000
     18 H8         2.7169   15.0022    6.4905 H         1 RES1    0.0000
     19 H9         1.2754   14.4245    6.7168 H         1 RES1    0.0000
     20 C11        2.6164   13.7640    8.1275 C.3       1 RES1    0.0000
     21 H10        1.9861   13.0647    8.4006 H         1 RES1    0.0000
     22 C12        4.0454   13.1515    8.2079 C.3       1 RES1    0.0000
     23 C13        4.2338   12.5477    9.6087 C.3       1 RES1    0.0000
     24 H11        3.6317   11.7943    9.7069 H         1 RES1    0.0000
     25 H12        5.1406   12.2116    9.6834 H         1 RES1    0.0000
     26 C14        3.9807   13.5294   10.7465 C.3       1 RES1    0.0000
     27 H13        3.9545   13.0427   11.5858 H         1 RES1    0.0000
     28 H14        4.7169   14.1593   10.7915 H         1 RES1    0.0000
     29 C15        2.6779   14.2981   10.5775 C.3       1 RES1    0.0000
     30 H15        2.6433   15.0124   11.2331 H         1 RES1    0.0000
     31 H16        1.9327   13.7015   10.7478 H         1 RES1    0.0000
     32 C16        2.5295   14.8961    9.1814 C.3       1 RES1    0.0000
     33 H17        1.6376   15.2978    9.1185 H         1 RES1    0.0000
     34 C17        3.5560   15.9952    8.9328 C.3       1 RES1    0.0000
     35 H18        3.2843   16.5057    8.1541 H         1 RES1    0.0000
     36 H19        3.5580   16.5986    9.6928 H         1 RES1    0.0000
     37 C18        4.9511   15.4870    8.7159 C.2       1 RES1    0.0000
     38 C19        5.1060   14.2258    7.9022 C.3       1 RES1    0.0000
     39 H20        5.9856   13.8519    8.0698 H         1 RES1    0.0000
     40 H21        5.0566   14.4532    6.9602 H         1 RES1    0.0000
     41 N1         7.5407    8.1179    4.0855 N.pl3     1 RES1    0.0000
     42 N2         3.1642    6.8725    5.8906 N.pl3     1 RES1    0.0000
     43 N3         4.1260   12.0298    7.1956 N.am      1 RES1    0.0000
     44 O1         8.4715    8.9081    4.0828 O.2       1 RES1    0.0000
     45 O2         7.5361    7.0548    3.4974 O.2       1 RES1    0.0000
     46 O3         3.2286    5.8531    5.2275 O.2       1 RES1    0.0000
     47 O4         2.2302    7.1449    6.6361 O.2       1 RES1    0.0000
     48 O5         6.2847   11.5038    7.7249 O.2       1 RES1    0.0000
     49 O6         5.9079   16.0823    9.1135 O.2       1 RES1    0.0000
@<TRIPOS>BOND
     1    1    2 1
     2    3    1 ar
     3    4    3 ar
     4    5    4 1
     5    6    4 ar
     6    7    6 ar
     7    8    7 1
     8    9    1 ar
     9   10    9 1
    10   11   12 1
    11   13   11 1
    12   14   11 1
    13   15   14 1
    14   16   14 1
    15   17   14 1
    16   18   17 1
    17   19   17 1
    18   20   17 1
    19   21   20 1
    20   22   20 1
    21   23   22 1
    22   24   23 1
    23   25   23 1
    24   26   23 1
    25   27   26 1
    26   28   26 1
    27   29   26 1
    28   30   29 1
    29   31   29 1
    30   32   20 1
    31   33   32 1
    32   34   32 1
    33   35   34 1
    34   36   34 1
    35   37   34 1
    36   38   22 1
    37   39   38 1
    38   40   38 1
    39   41    3 1
    40   42    6 1
    41   43   10 1
    42   44   41 2
    43   45   41 2
    44   46   42 2
    45   47   42 2
    46   48   10 2
    47   49   37 2
    48    7    9 ar
    49   11   43 1
    50   22   43 1
    51   29   32 1
    52   37   38 1
@<TRIPOS>SUBSTRUCTURE
     1 RES1 1

@<TRIPOS>CRYSIN
   6.7855   16.8925   15.8265  90.0000  99.5780  90.0000  14 1

