# MOL2 file generated by ConQuest
# Please check atom types

@<TRIPOS>MOLECULE
OPAQAZ
    82    84     2
SMALL
NO_CHARGES
****
Generated from CSD

@<TRIPOS>ATOM
      1 O1         3.1842    2.2421    5.4932 O.2       1 RES1    0.0000
      2 O2         8.6171    2.8761   12.2371 O.2       1 RES1    0.0000
      3 O3         8.4368    5.0059   12.5327 O.2       1 RES1    0.0000
      4 O4         3.9451    4.6415    9.0157 O.2       1 RES1    0.0000
      5 O5         4.3828    2.5475    8.3205 O.3       1 RES1    0.0000
      6 N1         8.3767    4.0202   11.8238 N.pl3     1 RES1    0.0000
      7 C1         4.1123    4.1695    6.6208 C.3       1 RES1    0.0000
      8 C2         3.0133    3.3388    5.9886 C.2       1 RES1    0.0000
      9 C3         1.7696    4.1324    5.9229 C.3       1 RES1    0.0000
     10 H1         1.0332    3.6651    6.3936 H         1 RES1    0.0000
     11 H2         1.5010    4.2771    4.9813 H         1 RES1    0.0000
     12 C4         2.0702    5.4536    6.5962 C.3       1 RES1    0.0000
     13 H3         1.5799    6.1975    6.1637 H         1 RES1    0.0000
     14 H4         1.8429    5.4282    7.5596 H         1 RES1    0.0000
     15 C5         3.5599    5.5844    6.3882 C.3       1 RES1    0.0000
     16 H5         3.9507    6.2253    7.0341 H         1 RES1    0.0000
     17 H6         3.7628    5.8944    5.4685 H         1 RES1    0.0000
     18 C6         5.4724    3.8883    5.9721 C.3       1 RES1    0.0000
     19 H7         5.6922    2.9374    6.1364 H         1 RES1    0.0000
     20 H8         5.3653    3.9959    4.9950 H         1 RES1    0.0000
     21 C7         6.6653    4.7086    6.3909 C.3       1 RES1    0.0000
     22 H9         6.4004    5.6688    6.2951 H         1 RES1    0.0000
     23 C8         7.8225    4.4876    5.4713 C.3       1 RES1    0.0000
     24 H10        8.1475    3.5667    5.5561 H         1 RES1    0.0000
     25 H11        8.5439    5.1112    5.7012 H         1 RES1    0.0000
     26 H12        7.5332    4.6496    4.5489 H         1 RES1    0.0000
     27 C9         7.0936    4.5189    7.8196 C.ar      1 RES1    0.0000
     28 C10        7.3434    3.2208    8.3396 C.ar      1 RES1    0.0000
     29 H13        7.1988    2.4584    7.7922 H         1 RES1    0.0000
     30 C11        7.7943    3.0519    9.6452 C.ar      1 RES1    0.0000
     31 H14        7.9596    2.1865   10.0010 H         1 RES1    0.0000
     32 C12        7.9934    4.1810   10.4033 C.ar      1 RES1    0.0000
     33 C13        7.8187    5.4617    9.9079 C.ar      1 RES1    0.0000
     34 H15        8.0028    6.2264   10.4389 H         1 RES1    0.0000
     35 C14        7.3754    5.5751    8.6298 C.ar      1 RES1    0.0000
     36 H16        7.2514    6.4497    8.2794 H         1 RES1    0.0000
     37 C15        4.1310    3.9011    8.1371 C.2       1 RES1    0.0000
     38 C16        4.4598    2.1368    9.6835 C.3       1 RES1    0.0000
     39 H17        5.1492    2.6562   10.1488 H         1 RES1    0.0000
     40 H18        4.6871    1.1847    9.7218 H         1 RES1    0.0000
     41 H19        3.5938    2.2826   10.1187 H         1 RES1    0.0000
     42 O6         6.6465    6.1420   16.0771 O.2       2 RES2    0.0000
     43 O7         0.8003    5.2546   10.0202 O.2       2 RES2    0.0000
     44 O8         1.1065    3.1317    9.8340 O.2       2 RES2    0.0000
     45 O9         5.5907    3.5586   13.0144 O.2       2 RES2    0.0000
     46 O10        5.0384    5.6538   13.6193 O.3       2 RES2    0.0000
     47 N2         1.1290    4.1776   10.4827 N.pl3     2 RES2    0.0000
     48 C17        5.4517    4.1602   15.4120 C.3       2 RES2    0.0000
     49 C18        6.6784    4.9770   15.8582 C.2       2 RES2    0.0000
     50 C19        7.8601    4.1093   16.0689 C.3       2 RES2    0.0000
     51 H20        8.0930    4.0596   17.0296 H         2 RES2    0.0000
     52 H21        8.6416    4.4494   15.5653 H         2 RES2    0.0000
     53 C20        7.4130    2.7060   15.5270 C.3       2 RES2    0.0000
     54 H22        7.6722    2.5938   14.5800 H         2 RES2    0.0000
     55 H23        7.8187    1.9760   16.0607 H         2 RES2    0.0000
     56 C21        5.9063    2.7152   15.6803 C.3       2 RES2    0.0000
     57 H24        5.6490    2.4364   16.5944 H         2 RES2    0.0000
     58 H25        5.4893    2.0963   15.0316 H         2 RES2    0.0000
     59 C22        4.2231    4.6021   16.1291 C.3       2 RES2    0.0000
     60 H26        4.4185    4.5698   17.0980 H         2 RES2    0.0000
     61 H27        4.0709    5.5531   15.8965 H         2 RES2    0.0000
     62 C23        2.9363    3.8814   15.9102 C.3       2 RES2    0.0000
     63 H28        3.1279    2.9177   16.0936 H         2 RES2    0.0000
     64 C24        1.8673    4.2909   16.9201 C.3       2 RES2    0.0000
     65 H29        2.1792    4.0781   17.8261 H         2 RES2    0.0000
     66 H30        1.0389    3.7981   16.7368 H         2 RES2    0.0000
     67 H31        1.6983    5.2535   16.8517 H         2 RES2    0.0000
     68 C25        2.4140    3.9346   14.4952 C.ar      2 RES2    0.0000
     69 C26        2.0026    5.1656   13.9423 C.ar      2 RES2    0.0000
     70 H32        2.0345    5.9546   14.4705 H         2 RES2    0.0000
     71 C27        1.5517    5.2303   12.6285 C.ar      2 RES2    0.0000
     72 H33        1.2812    6.0598   12.2535 H         2 RES2    0.0000
     73 C28        1.5048    4.0943   11.8841 C.ar      2 RES2    0.0000
     74 C29        1.8786    2.8749   12.4205 C.ar      2 RES2    0.0000
     75 H34        1.8504    2.0882   11.8895 H         2 RES2    0.0000
     76 C30        2.2863    2.8171   13.7096 C.ar      2 RES2    0.0000
     77 H35        2.4891    1.9690   14.0873 H         2 RES2    0.0000
     78 C31        5.3709    4.3638   13.8848 C.2       2 RES2    0.0000
     79 C32        4.8975    5.9823   12.2234 C.3       2 RES2    0.0000
     80 H36        5.7617    5.8747   11.7746 H         2 RES2    0.0000
     81 H37        4.5969    6.9113   12.1386 H         2 RES2    0.0000
     82 H38        4.2381    5.3865   11.8102 H         2 RES2    0.0000
@<TRIPOS>BOND
     1    1    8 2
     2    2    6 2
     3    3    6 2
     4    4   37 2
     5    5   37 1
     6    6   32 1
     7    7    8 1
     8    8    9 1
     9    9   10 1
    10   11    9 1
    11   12    9 1
    12   13   12 1
    13   14   12 1
    14   15    7 1
    15   16   15 1
    16   17   15 1
    17   18    7 1
    18   19   18 1
    19   20   18 1
    20   21   18 1
    21   22   21 1
    22   23   21 1
    23   24   23 1
    24   25   23 1
    25   26   23 1
    26   27   21 1
    27   28   27 ar
    28   29   28 1
    29   30   28 ar
    30   31   30 1
    31   32   30 ar
    32   33   32 ar
    33   34   33 1
    34   35   27 ar
    35   36   35 1
    36   37    7 1
    37   38    5 1
    38   39   38 1
    39   40   38 1
    40   41   38 1
    41   42   49 2
    42   43   47 2
    43   44   47 2
    44   45   78 2
    45   46   78 1
    46   47   73 1
    47   48   49 1
    48   49   50 1
    49   50   51 1
    50   52   50 1
    51   53   50 1
    52   54   53 1
    53   55   53 1
    54   56   48 1
    55   57   56 1
    56   58   56 1
    57   59   48 1
    58   60   59 1
    59   61   59 1
    60   62   59 1
    61   63   62 1
    62   64   62 1
    63   65   64 1
    64   66   64 1
    65   67   64 1
    66   68   62 1
    67   69   68 ar
    68   70   69 1
    69   71   69 ar
    70   72   71 1
    71   73   71 ar
    72   74   73 ar
    73   75   74 1
    74   76   68 ar
    75   77   76 1
    76   78   48 1
    77   79   46 1
    78   80   79 1
    79   81   79 1
    80   82   79 1
    81   12   15 1
    82   33   35 ar
    83   53   56 1
    84   74   76 ar
@<TRIPOS>SUBSTRUCTURE
     1 RES1 1
     2 RES2 42

@<TRIPOS>CRYSIN
  18.7860   11.5690   27.3700  90.0000  90.0000  90.0000  60 1

