# MOL2 file generated by ConQuest
# Please check atom types

@<TRIPOS>MOLECULE
OPIJIH
    31    32     1
SMALL
NO_CHARGES
****
Generated from CSD

@<TRIPOS>ATOM
      1 N1         3.4519    8.1966    6.1770 N.ar      1 RES1    0.0000
      2 N2         1.7125    9.7190    5.5845 N.ar      1 RES1    0.0000
      3 N3         3.6682   10.5059    6.7208 N.ar      1 RES1    0.0000
      4 C1         2.2713    8.5271    5.6336 C.ar      1 RES1    0.0000
      5 C2         2.4422   10.6945    6.1833 C.ar      1 RES1    0.0000
      6 C3         4.1054    9.2589    6.6667 C.ar      1 RES1    0.0000
      7 C4         5.4644    9.0594    7.2012 C.2       1 RES1    0.0000
      8 N4         6.0396    7.8819    7.1758 N.2       1 RES1    0.0000
      9 O1         7.2879    8.0786    7.7800 O.3       1 RES1    0.0000
     10 C5         6.2978   10.0356    7.7845 C.2       1 RES1    0.0000
     11 C6         7.4060    9.3699    8.1394 C.2       1 RES1    0.0000
     12 C7         0.3701    7.7184    4.4555 C.3       1 RES1    0.0000
     13 N5         1.9190   11.9190    6.2523 N.3       1 RES1    0.0000
     14 C8         0.6441   12.2412    5.6419 C.3       1 RES1    0.0000
     15 C9         2.6483   13.0032    6.9114 C.3       1 RES1    0.0000
     16 O2         8.3743   10.0550   10.2365 O.3       1 RES1    0.0000
     17 C10        8.6402    9.7474    8.8888 C.3       1 RES1    0.0000
     18 H1         9.0360   10.5793    8.4925 H         1 RES1    0.0000
     19 H2         6.1396   10.9384    7.9010 H         1 RES1    0.0000
     20 H3         9.2660    9.0602    8.8014 H         1 RES1    0.0000
     21 H4         8.1603    9.2727   10.6465 H         1 RES1    0.0000
     22 H5         0.4960    8.2844    3.7077 H         1 RES1    0.0000
     23 H6         0.1301    6.8339    4.1403 H         1 RES1    0.0000
     24 H7        -0.2583    8.0461    5.1025 H         1 RES1    0.0000
     25 H8         0.7601   12.6646    4.8377 H         1 RES1    0.0000
     26 H9         0.1504   12.7947    6.1619 H         1 RES1    0.0000
     27 H10        0.1057   11.4807    5.5351 H         1 RES1    0.0000
     28 H11        2.0357   13.7109    6.8858 H         1 RES1    0.0000
     29 H12        3.4135   13.1249    6.5768 H         1 RES1    0.0000
     30 H13        2.8229   12.8149    7.8215 H         1 RES1    0.0000
     31 O3         1.6427    7.4804    5.0994 O.3       1 RES1    0.0000
@<TRIPOS>BOND
     1    1    4 ar
     2    2    4 ar
     3    3    5 ar
     4    4   31 1
     5    5    2 ar
     6    6    1 ar
     7    7    6 1
     8    8    7 2
     9    9    8 1
    10   10    7 1
    11   11    9 1
    12   12   22 1
    13   13    5 1
    14   14   13 1
    15   15   13 1
    16   16   17 1
    17   17   11 1
    18   18   17 1
    19   19   10 1
    20   20   17 1
    21   21   16 1
    22   23   12 1
    23   24   12 1
    24   25   14 1
    25   26   14 1
    26   27   14 1
    27   28   15 1
    28   29   15 1
    29   30   15 1
    30   31   12 1
    31    3    6 ar
    32   10   11 2
@<TRIPOS>SUBSTRUCTURE
     1 RES1 1

@<TRIPOS>CRYSIN
   8.1898    8.6088    9.5926  67.7210  88.0740  70.7660   2 1

