# MOL2 file generated by ConQuest
# Please check atom types

@<TRIPOS>MOLECULE
OPIMEG
    94    96     2
SMALL
NO_CHARGES
****
Generated from CSD

@<TRIPOS>ATOM
      1 O1        -0.5303   13.2228   17.1294 O.3       1 RES1    0.0000
      2 O2         1.6108   13.2511   16.8093 O.2       1 RES1    0.0000
      3 C1         0.5759   13.8098   16.9629 C.2       1 RES1    0.0000
      4 C2         7.2287   21.8147    9.8821 C.3       2 RES2    0.0000
      5 H1         6.3401   22.1871    9.9874 H         2 RES2    0.0000
      6 H2         7.7357   22.0373   10.6845 H         2 RES2    0.0000
      7 O3         7.1263   20.3432    9.7758 O.3       2 RES2    0.0000
      8 C3        -5.7108   21.0759   17.1756 C.3       1 RES1    0.0000
      9 H3        -6.3777   21.6932   17.4882 H         1 RES1    0.0000
     10 H4        -6.1376   20.2643   16.8931 H         1 RES1    0.0000
     11 H5        -5.2328   21.4625   16.4430 H         1 RES1    0.0000
     12 C4         7.8241   22.3834    8.8187 C.3       2 RES2    0.0000
     13 H6         7.5625   23.3043    8.7575 H         2 RES2    0.0000
     14 H7         7.5591   21.9219    8.0196 H         2 RES2    0.0000
     15 H8         8.7789   22.3288    8.9154 H         2 RES2    0.0000
     16 C5        -1.6116   11.2696   17.5730 C.3       1 RES1    0.0000
     17 H9        -2.2470   11.2474   16.8458 H         1 RES1    0.0000
     18 H10       -1.9685   11.7979   18.2873 H         1 RES1    0.0000
     19 H11       -1.4516   10.3770   17.8781 H         1 RES1    0.0000
     20 C6        -0.4923   11.7979   17.1541 C.3       1 RES1    0.0000
     21 H12       -0.3053   11.4741   16.2540 H         1 RES1    0.0000
     22 H13        0.2295   11.5085   17.7277 H         1 RES1    0.0000
     23 C7        13.5465   11.8202    9.6566 C.3       2 RES2    0.0000
     24 H14       13.9615   10.9822    9.4310 H         2 RES2    0.0000
     25 H15       12.9239   11.6825   10.3741 H         2 RES2    0.0000
     26 H16       14.2235   12.4436    9.9369 H         2 RES2    0.0000
     27 O4         6.7409   17.7970    9.8671 O.3       2 RES2    0.0000
     28 H17        6.7193   16.9773    9.8628 H         2 RES2    0.0000
     29 C8        -0.6127   16.1151   17.0402 C.2       1 RES1    0.0000
     30 C9        -2.0269   15.6293   16.8662 C.3       1 RES1    0.0000
     31 H18       -2.1138   14.7610   17.3142 H         1 RES1    0.0000
     32 O5         7.5125   15.4816    9.7522 O.2       2 RES2    0.0000
     33 N1        -2.9682   16.5644   17.4806 N.pl3     1 RES1    0.0000
     34 H19       -3.6934   16.2568   17.8254 H         1 RES1    0.0000
     35 C10        8.7520   15.9026    9.8016 C.2       2 RES2    0.0000
     36 O6        12.9287   18.6815   10.6652 O.3       2 RES2    0.0000
     37 H20       13.6540   18.9932   10.8875 H         2 RES2    0.0000
     38 C11       -2.4213   15.4573   15.3914 C.ar      1 RES1    0.0000
     39 O7         1.7103   15.8054   17.1068 O.3       1 RES1    0.0000
     40 H21        1.6676   16.6231   17.1230 H         1 RES1    0.0000
     41 O8         0.7740   18.0602   17.1552 O.2       1 RES1    0.0000
     42 N2        11.3559   16.6919    9.4579 N.3       2 RES2    0.0000
     43 H22       12.0989   16.9409    9.1045 H         2 RES2    0.0000
     44 O9        -4.4264   14.5667   16.1455 O.3       1 RES1    0.0000
     45 H23       -5.1503   14.2874   15.8802 H         1 RES1    0.0000
     46 C12        0.5262   15.3156   17.0639 C.2       1 RES1    0.0000
     47 C13       -4.0917   14.8703   13.7480 C.ar      1 RES1    0.0000
     48 O10       -3.7557   19.9485   17.8018 O.3       1 RES1    0.0000
     49 C14       12.2304   18.3374   11.7651 C.ar      2 RES2    0.0000
     50 O11       -6.2315   14.2186   14.2453 O.2       1 RES1    0.0000
     51 C15       11.0430   15.4209    9.4267 C.2       2 RES2    0.0000
     52 C16       10.4876   17.7201   10.0744 C.3       2 RES2    0.0000
     53 H24       10.6274   18.5742    9.6136 H         2 RES2    0.0000
     54 C17       10.1467   17.5501   12.5739 C.ar      2 RES2    0.0000
     55 H25        9.2968   17.2060   12.4193 H         2 RES2    0.0000
     56 N3        14.0133   18.9629   13.3892 N.pl3     2 RES2    0.0000
     57 C18       -1.4982   18.4002   17.2186 C.2       1 RES1    0.0000
     58 H26       -1.3940   19.3130   17.0735 H         1 RES1    0.0000
     59 C19        9.7582   14.9553    9.6469 C.2       2 RES2    0.0000
     60 H27        9.5747   14.0466    9.6909 H         2 RES2    0.0000
     61 O12       11.8260   13.2734    8.9766 O.3       2 RES2    0.0000
     62 C20       -3.6762   14.9574   15.0853 C.ar      1 RES1    0.0000
     63 C21       -3.9522   18.6674   17.8792 C.2       1 RES1    0.0000
     64 O13       14.7466   19.2118   12.4698 O.2       2 RES2    0.0000
     65 C22       -2.0475   15.7265   13.0627 C.ar      1 RES1    0.0000
     66 H28       -1.4701   15.9795   12.3785 H         1 RES1    0.0000
     67 C23       11.8423   18.1512   14.1336 C.ar      2 RES2    0.0000
     68 H29       12.1682   18.2221   15.0015 H         2 RES2    0.0000
     69 N4        -5.4083   14.4008   13.3742 N.pl3     1 RES1    0.0000
     70 C24       12.1660   14.5303    9.0207 C.2       2 RES2    0.0000
     71 O14       13.2797   14.9736    8.8091 O.2       2 RES2    0.0000
     72 O15       -4.9888   18.1371   18.1649 O.2       1 RES1    0.0000
     73 O16       14.3067   19.1430   14.5289 O.2       2 RES2    0.0000
     74 C25       10.9220   17.8618   11.5342 C.ar      2 RES2    0.0000
     75 C26       -0.4070   17.5258   17.1369 C.2       1 RES1    0.0000
     76 C27        9.0432   17.2829    9.8789 C.2       2 RES2    0.0000
     77 O17        9.2406   20.1449   10.4364 O.2       2 RES2    0.0000
     78 C28        7.9851   18.1998    9.8929 C.2       2 RES2    0.0000
     79 C29       -2.7431   17.8598   17.5247 C.2       1 RES1    0.0000
     80 C30        8.2077   19.6794   10.0347 C.2       2 RES2    0.0000
     81 C31       -3.2890   15.2488   12.7512 C.ar      1 RES1    0.0000
     82 H30       -3.5678   15.1901   11.8661 H         1 RES1    0.0000
     83 C32       12.6452   18.4710   13.0831 C.ar      2 RES2    0.0000
     84 C33       -1.6389   15.8398   14.3667 C.ar      1 RES1    0.0000
     85 H31       -0.7965   16.1900   14.5472 H         1 RES1    0.0000
     86 C34       12.8812   12.3241    8.5502 C.3       2 RES2    0.0000
     87 H32       12.4787   11.5955    8.0496 H         2 RES2    0.0000
     88 H33       13.5100   12.7775    7.9659 H         2 RES2    0.0000
     89 O18       -5.6480   14.1255   12.2549 O.2       1 RES1    0.0000
     90 C35       10.5928   17.7343   13.9263 C.ar      2 RES2    0.0000
     91 H34       10.0234   17.5663   14.6417 H         2 RES2    0.0000
     92 C36       -4.8156   20.7905   18.2175 C.3       1 RES1    0.0000
     93 H35       -5.2986   20.3614   18.9458 H         1 RES1    0.0000
     94 H36       -4.4493   21.6224   18.5602 H         1 RES1    0.0000
@<TRIPOS>BOND
     1    1    3 1
     2    2    3 2
     3    3   46 1
     4    4    5 1
     5    6    4 1
     6    7    4 1
     7    8    9 1
     8   10    8 1
     9   11    8 1
    10   12    4 1
    11   13   12 1
    12   14   12 1
    13   15   12 1
    14   16   17 1
    15   18   16 1
    16   19   16 1
    17   20    1 1
    18   21   20 1
    19   22   20 1
    20   23   24 1
    21   25   23 1
    22   26   23 1
    23   27   28 1
    24   29   30 1
    25   30   31 1
    26   32   35 2
    27   33   30 1
    28   34   33 1
    29   35   59 1
    30   36   37 1
    31   38   30 1
    32   39   40 1
    33   41   75 2
    34   42   43 1
    35   44   45 1
    36   46   29 2
    37   47   62 ar
    38   48   63 1
    39   49   36 1
    40   50   69 2
    41   51   42 1
    42   52   42 1
    43   53   52 1
    44   54   55 1
    45   56   64 2
    46   57   58 1
    47   59   51 2
    48   60   59 1
    49   61   70 1
    50   62   38 ar
    51   63   72 2
    52   65   66 1
    53   67   68 1
    54   69   47 1
    55   70   51 1
    56   71   70 2
    57   73   56 2
    58   74   49 ar
    59   75   29 1
    60   76   35 1
    61   77   80 2
    62   78   27 1
    63   79   33 1
    64   80    7 1
    65   81   47 ar
    66   82   81 1
    67   83   49 ar
    68   84   38 ar
    69   85   84 1
    70   86   23 1
    71   87   86 1
    72   88   86 1
    73   89   69 2
    74   90   54 ar
    75   91   90 1
    76   92    8 1
    77   93   92 1
    78   94   92 1
    79   16   20 1
    80   39   46 1
    81   44   62 1
    82   48   92 1
    83   52   74 1
    84   52   76 1
    85   54   74 ar
    86   56   83 1
    87   57   75 1
    88   57   79 2
    89   61   86 1
    90   63   79 1
    91   65   81 ar
    92   65   84 ar
    93   67   83 ar
    94   67   90 ar
    95   76   78 2
    96   78   80 1
@<TRIPOS>SUBSTRUCTURE
     1 RES1 1
     2 RES2 4

@<TRIPOS>CRYSIN
   8.7100   20.2400   10.7560  90.0000  92.9800  90.0000   4 1

