# MOL2 file generated by ConQuest
# Please check atom types

@<TRIPOS>MOLECULE
OPODED
    29    31     1
SMALL
NO_CHARGES
****
Generated from CSD

@<TRIPOS>ATOM
      1 C1        -0.0685    7.9021    2.5486 C.3       1 RES1    0.0000
      2 H1        -0.4672    8.4734    3.2245 H         1 RES1    0.0000
      3 C2         1.4276    6.0607    2.3233 C.ar      1 RES1    0.0000
      4 C3         2.7056    6.1816    1.7300 C.ar      1 RES1    0.0000
      5 H2         3.2165    6.9721    1.8594 H         1 RES1    0.0000
      6 C4         3.2129    5.1457    0.9583 C.ar      1 RES1    0.0000
      7 H3         4.0746    5.2225    0.5648 H         1 RES1    0.0000
      8 C5         2.4572    3.9983    0.7625 C.ar      1 RES1    0.0000
      9 H4         2.7951    3.2893    0.2284 H         1 RES1    0.0000
     10 C6         1.1763    3.8897    1.3650 C.ar      1 RES1    0.0000
     11 C7         0.6054    4.9097    2.1846 C.ar      1 RES1    0.0000
     12 N1         0.4170    2.6328    1.1081 N.pl3     1 RES1    0.0000
     13 O1         0.9546    7.0976    3.1531 O.3       1 RES1    0.0000
     14 O2        -0.8169    2.6909    0.9980 O.2       1 RES1    0.0000
     15 O3         1.0867    1.5754    1.0001 O.2       1 RES1    0.0000
     16 H1A        0.3301    8.4734    1.8727 H         1 RES1    0.0000
     17 C2A       -1.5647    6.0607    2.7739 C.ar      1 RES1    0.0000
     18 C3A       -2.8427    6.1816    3.3672 C.ar      1 RES1    0.0000
     19 H2A       -3.3536    6.9721    3.2377 H         1 RES1    0.0000
     20 C4A       -3.3500    5.1457    4.1389 C.ar      1 RES1    0.0000
     21 H3A       -4.2116    5.2225    4.5324 H         1 RES1    0.0000
     22 C5A       -2.5943    3.9983    4.3346 C.ar      1 RES1    0.0000
     23 H4A       -2.9321    3.2893    4.8688 H         1 RES1    0.0000
     24 C6A       -1.3134    3.8897    3.7321 C.ar      1 RES1    0.0000
     25 C7A       -0.7425    4.9097    2.9125 C.ar      1 RES1    0.0000
     26 N1A       -0.5540    2.6328    3.9890 N.pl3     1 RES1    0.0000
     27 O1A       -1.0916    7.0976    1.9441 O.3       1 RES1    0.0000
     28 O2A        0.6799    2.6909    4.0991 O.2       1 RES1    0.0000
     29 O3A       -1.2237    1.5754    4.0971 O.2       1 RES1    0.0000
@<TRIPOS>BOND
     1    1    2 1
     2    3    4 ar
     3    4    5 1
     4    6    4 ar
     5    7    6 1
     6    8    6 ar
     7    9    8 1
     8   10    8 ar
     9   11    3 ar
    10   12   10 1
    11   13    1 1
    12   14   12 2
    13   15   12 2
    14   16    1 1
    15   17   18 ar
    16   18   19 1
    17   20   18 ar
    18   21   20 1
    19   22   20 ar
    20   23   22 1
    21   24   22 ar
    22   25   11 1
    23   26   24 1
    24   27    1 1
    25   28   26 2
    26   29   26 2
    27    3   13 1
    28   10   11 ar
    29   17   25 ar
    30   17   27 1
    31   24   25 ar
@<TRIPOS>SUBSTRUCTURE
     1 RES1 1

@<TRIPOS>CRYSIN
  13.2570    9.3660   10.1980  90.0000  91.5400  90.0000  15 1

