# MOL2 file generated by ConQuest
# Please check atom types

@<TRIPOS>MOLECULE
OPOFIK
    62    66     1
SMALL
NO_CHARGES
****
Generated from CSD

@<TRIPOS>ATOM
      1 C1         3.1640    8.0545    6.3429 C.2       1 RES1    0.0000
      2 C2         4.3154    9.9110    6.1918 C.2       1 RES1    0.0000
      3 C3         4.7466   11.3057    6.0870 C.2       1 RES1    0.0000
      4 C4         5.9968   13.0837    5.7291 C.2       1 RES1    0.0000
      5 C5         6.0585   11.7313    5.7517 C.2       1 RES1    0.0000
      6 H1         6.8171   11.1855    5.5806 H         1 RES1    0.0000
      7 C6         2.1046    7.0287    6.4920 C.ar      1 RES1    0.0000
      8 C7         0.7285    7.2747    6.4142 C.ar      1 RES1    0.0000
      9 H2         0.4160    8.1648    6.3009 H         1 RES1    0.0000
     10 C8        -0.1859    6.2289    6.5000 C.ar      1 RES1    0.0000
     11 H3        -1.1173    6.4101    6.4414 H         1 RES1    0.0000
     12 C9         0.2508    4.9289    6.6704 C.ar      1 RES1    0.0000
     13 H4        -0.3768    4.2179    6.7254 H         1 RES1    0.0000
     14 C10        1.6061    4.6701    6.7602 C.ar      1 RES1    0.0000
     15 H5         1.9104    3.7785    6.8807 H         1 RES1    0.0000
     16 C11        2.5238    5.7088    6.6742 C.ar      1 RES1    0.0000
     17 H6         3.4517    5.5188    6.7402 H         1 RES1    0.0000
     18 C12        6.9765   14.1391    5.4571 C.ar      1 RES1    0.0000
     19 C13        8.2465   13.7902    4.9758 C.ar      1 RES1    0.0000
     20 H7         8.4536   12.8787    4.8056 H         1 RES1    0.0000
     21 C14        9.2032   14.7699    4.7465 C.ar      1 RES1    0.0000
     22 H8        10.0666   14.5245    4.4358 H         1 RES1    0.0000
     23 C15        8.9020   16.1006    4.9693 C.ar      1 RES1    0.0000
     24 H9         9.5603   16.7680    4.8115 H         1 RES1    0.0000
     25 C16        7.6462   16.4624    5.4201 C.ar      1 RES1    0.0000
     26 H10        7.4383   17.3789    5.5614 H         1 RES1    0.0000
     27 C17        6.6859   15.4853    5.6679 C.ar      1 RES1    0.0000
     28 H11        5.8261   15.7382    5.9829 H         1 RES1    0.0000
     29 C18        1.8135   10.2044    6.6359 C.ar      1 RES1    0.0000
     30 C19        1.3681   10.3354    7.9605 C.ar      1 RES1    0.0000
     31 C20        0.1593   11.0184    8.1533 C.ar      1 RES1    0.0000
     32 H12       -0.1735   11.1321    9.0357 H         1 RES1    0.0000
     33 C21       -0.5588   11.5309    7.0890 C.ar      1 RES1    0.0000
     34 H13       -1.3825   11.9761    7.2461 H         1 RES1    0.0000
     35 C22       -0.0851   11.3995    5.8016 C.ar      1 RES1    0.0000
     36 H14       -0.5849   11.7656    5.0807 H         1 RES1    0.0000
     37 C23        1.1218   10.7352    5.5353 C.ar      1 RES1    0.0000
     38 C24        2.1650    9.7814    9.1338 C.3       1 RES1    0.0000
     39 H15        2.7785    9.0807    8.7710 H         1 RES1    0.0000
     40 C25        1.2839    9.1094   10.1813 C.3       1 RES1    0.0000
     41 H16        0.7860    8.3743    9.7664 H         1 RES1    0.0000
     42 H17        0.6532    9.7655   10.5474 H         1 RES1    0.0000
     43 H18        1.8453    8.7583   10.9038 H         1 RES1    0.0000
     44 C26        3.0395   10.8734    9.7552 C.3       1 RES1    0.0000
     45 H19        3.5872   10.4863   10.4705 H         1 RES1    0.0000
     46 H20        2.4688   11.5777   10.1258 H         1 RES1    0.0000
     47 H21        3.6236   11.2553    9.0668 H         1 RES1    0.0000
     48 C27        1.6211   10.5797    4.1073 C.3       1 RES1    0.0000
     49 H22        2.5561   10.2296    4.1488 H         1 RES1    0.0000
     50 C28        0.7754    9.5612    3.3336 C.3       1 RES1    0.0000
     51 H23        0.8197    8.6915    3.7820 H         1 RES1    0.0000
     52 H24        1.1214    9.4760    2.4198 H         1 RES1    0.0000
     53 H25       -0.1548    9.8661    3.3028 H         1 RES1    0.0000
     54 C29        1.6585   11.9248    3.3646 C.3       1 RES1    0.0000
     55 H26        2.1953   12.5655    3.8767 H         1 RES1    0.0000
     56 H27        0.7459   12.2677    3.2643 H         1 RES1    0.0000
     57 H28        2.0578   11.7975    2.4790 H         1 RES1    0.0000
     58 N1         3.0277    9.4330    6.3891 N.pl3     1 RES1    0.0000
     59 N2         4.4402    7.7409    6.1341 N.2       1 RES1    0.0000
     60 N3         5.1726    8.9146    6.0378 N.2       1 RES1    0.0000
     61 N4         3.9210   12.3173    6.2629 N.2       1 RES1    0.0000
     62 O1         4.7223   13.4660    6.0338 O.3       1 RES1    0.0000
@<TRIPOS>BOND
     1    1    7 1
     2    2    3 1
     3    3    5 1
     4    4    5 2
     5    5    6 1
     6    7    8 ar
     7    8    9 1
     8   10    8 ar
     9   11   10 1
    10   12   10 ar
    11   13   12 1
    12   14   12 ar
    13   15   14 1
    14   16    7 ar
    15   17   16 1
    16   18    4 1
    17   19   18 ar
    18   20   19 1
    19   21   19 ar
    20   22   21 1
    21   23   21 ar
    22   24   23 1
    23   25   23 ar
    24   26   25 1
    25   27   18 ar
    26   28   27 1
    27   29   30 ar
    28   30   31 ar
    29   31   32 1
    30   33   31 ar
    31   34   33 1
    32   35   33 ar
    33   36   35 1
    34   37   29 ar
    35   38   30 1
    36   39   38 1
    37   40   38 1
    38   41   40 1
    39   42   40 1
    40   43   40 1
    41   44   38 1
    42   45   44 1
    43   46   44 1
    44   47   44 1
    45   48   37 1
    46   49   48 1
    47   50   48 1
    48   51   50 1
    49   52   50 1
    50   53   50 1
    51   54   48 1
    52   55   54 1
    53   56   54 1
    54   57   54 1
    55   58    1 1
    56   59    1 2
    57   60    2 2
    58   61    3 2
    59   62    4 1
    60    2   58 1
    61   14   16 ar
    62   25   27 ar
    63   29   58 1
    64   35   37 ar
    65   59   60 1
    66   61   62 1
@<TRIPOS>SUBSTRUCTURE
     1 RES1 1

@<TRIPOS>CRYSIN
  16.2719   10.2676   15.1924  90.0000 103.2020  90.0000  14 1

