# MOL2 file generated by ConQuest
# Please check atom types

@<TRIPOS>MOLECULE
OPOFOQ
   102    99     4
SMALL
NO_CHARGES
****
Generated from CSD

@<TRIPOS>ATOM
      1 O1        -1.9891   11.4829    9.3636 O.3       1 RES1    0.0000
      2 N1        -2.6280    6.6607    6.5112 N.2       1 RES1    0.0000
      3 C1        -1.6235    7.0877    5.7569 C.2       1 RES1    0.0000
      4 N2        -2.9335    7.6454    7.4232 N.2       1 RES1    0.0000
      5 C2        -2.1034    8.6422    7.1865 C.2       1 RES1    0.0000
      6 N3        -1.2583    8.3492    6.1481 N.3       1 RES1    0.0000
      7 C3        -0.2155    9.2623    5.6305 C.3       1 RES1    0.0000
      8 H1        -0.5335    9.6862    4.8187 H         1 RES1    0.0000
      9 H2         0.5794    8.7521    5.4104 H         1 RES1    0.0000
     10 N4        -2.4217   10.1870    9.0216 N.2       1 RES1    0.0000
     11 C4         0.1382   10.3344    6.6555 C.3       1 RES1    0.0000
     12 H3         0.6918   11.0124    6.2374 H         1 RES1    0.0000
     13 H4         0.6464    9.9350    7.3798 H         1 RES1    0.0000
     14 C5        -1.1278   10.9823    7.2175 C.3       1 RES1    0.0000
     15 H5        -1.6309   11.4212    6.5000 H         1 RES1    0.0000
     16 C6        -1.9633    9.9145    7.8614 C.2       1 RES1    0.0000
     17 C7        -0.9759   11.9178    8.4029 C.3       1 RES1    0.0000
     18 H6        -0.0872   11.8466    8.7849 H         1 RES1    0.0000
     19 H7        -1.1287   12.8378    8.1369 H         1 RES1    0.0000
     20 C8        -1.0379    6.2738    4.6840 C.ar      1 RES1    0.0000
     21 C9        -1.2710    4.8924    4.7219 C.ar      1 RES1    0.0000
     22 H8        -1.7249    4.5198    5.4428 H         1 RES1    0.0000
     23 C10       -0.8301    4.0807    3.6925 C.ar      1 RES1    0.0000
     24 H9        -0.9989    3.1661    3.7189 H         1 RES1    0.0000
     25 C11       -0.1351    4.6258    2.6194 C.ar      1 RES1    0.0000
     26 H10        0.1494    4.0792    1.9234 H         1 RES1    0.0000
     27 C12        0.1326    5.9843    2.5882 C.ar      1 RES1    0.0000
     28 H11        0.6153    6.3455    1.8808 H         1 RES1    0.0000
     29 C13       -0.3181    6.8076    3.6103 C.ar      1 RES1    0.0000
     30 H12       -0.1399    7.7199    3.5808 H         1 RES1    0.0000
     31 O2         4.8218   12.4384    7.4547 O.3       2 RES2    0.0000
     32 N5         6.6111    9.3285    3.0779 N.2       2 RES2    0.0000
     33 C14        5.6267    8.4966    3.4079 C.2       2 RES2    0.0000
     34 N6         6.5735   10.3975    3.9465 N.2       2 RES2    0.0000
     35 C15        5.5619   10.1782    4.7667 C.2       2 RES2    0.0000
     36 N7         4.9430    8.9944    4.4803 N.3       2 RES2    0.0000
     37 C16        3.8246    8.4106    5.2539 C.3       2 RES2    0.0000
     38 H13        3.9573    7.4537    5.3422 H         2 RES2    0.0000
     39 H14        2.9923    8.5556    4.7778 H         2 RES2    0.0000
     40 N8         5.6048   12.0176    6.3535 N.2       2 RES2    0.0000
     41 C17        3.7344    9.0368    6.6325 C.3       2 RES2    0.0000
     42 H15        2.9093    8.7607    7.0610 H         2 RES2    0.0000
     43 H16        4.4759    8.7288    7.1769 H         2 RES2    0.0000
     44 C18        3.7722   10.5474    6.5319 C.3       2 RES2    0.0000
     45 H17        3.0054   10.8632    6.0089 H         2 RES2    0.0000
     46 C19        5.0505   10.9726    5.8648 C.2       2 RES2    0.0000
     47 C20        3.8960   11.3628    7.7961 C.3       2 RES2    0.0000
     48 H18        3.0344   11.7211    8.0602 H         2 RES2    0.0000
     49 H19        4.2479   10.8229    8.5206 H         2 RES2    0.0000
     50 C21        5.3259    7.2533    2.6912 C.ar      2 RES2    0.0000
     51 C22        6.3764    6.5894    2.0463 C.ar      2 RES2    0.0000
     52 H20        7.2415    6.9254    2.1058 H         2 RES2    0.0000
     53 C23        6.1340    5.4387    1.3239 C.ar      2 RES2    0.0000
     54 H21        6.8375    5.0012    0.9020 H         2 RES2    0.0000
     55 C24        4.8524    4.9326    1.2250 C.ar      2 RES2    0.0000
     56 H22        4.6963    4.1502    0.7469 H         2 RES2    0.0000
     57 C25        3.7993    5.5935    1.8381 C.ar      2 RES2    0.0000
     58 H23        2.9351    5.2591    1.7614 H         2 RES2    0.0000
     59 C26        4.0296    6.7506    2.5652 C.ar      2 RES2    0.0000
     60 H24        3.3185    7.1934    2.9704 H         2 RES2    0.0000
     61 O3         3.0902   -2.2244   -1.0292 O.3       3 RES3    0.0000
     62 N9         5.1364    0.5347    3.4681 N.2       3 RES3    0.0000
     63 C27        4.1640    1.4056    3.2300 C.2       3 RES3    0.0000
     64 N10        5.0236   -0.4838    2.5403 N.2       3 RES3    0.0000
     65 C28        3.9884   -0.1916    1.7817 C.2       3 RES3    0.0000
     66 N11        3.4064    0.9830    2.1764 N.3       3 RES3    0.0000
     67 N12        3.9412   -1.8733    0.0455 N.2       3 RES3    0.0000
     68 C29        2.2363    1.6132    1.5329 C.3       3 RES3    0.0000
     69 H25        2.3615    2.5748    1.4988 H         3 RES3    0.0000
     70 H26        1.4397    1.4316    2.0564 H         3 RES3    0.0000
     71 C30        2.0557    1.0715    0.1214 C.3       3 RES3    0.0000
     72 H27        2.7753    1.3891   -0.4450 H         3 RES3    0.0000
     73 H28        1.2166    1.3902   -0.2472 H         3 RES3    0.0000
     74 C31        2.0581   -0.4533    0.1521 C.3       3 RES3    0.0000
     75 H29        1.3281   -0.7862    0.7145 H         3 RES3    0.0000
     76 C32        3.3871   -0.9195    0.6824 C.2       3 RES3    0.0000
     77 C33        2.0758   -1.1878   -1.1919 C.3       3 RES3    0.0000
     78 H30        1.2093   -1.5798   -1.3829 H         3 RES3    0.0000
     79 H31        2.3130   -0.5834   -1.9132 H         3 RES3    0.0000
     80 C34        3.9073    2.5861    4.0564 C.ar      3 RES3    0.0000
     81 C35        4.9870    3.3113    4.5679 C.ar      3 RES3    0.0000
     82 H32        5.8555    3.0968    4.3123 H         3 RES3    0.0000
     83 C36        4.7608    4.3497    5.4553 C.ar      3 RES3    0.0000
     84 H33        5.4793    4.8300    5.7992 H         3 RES3    0.0000
     85 C37        3.4676    4.6744    5.8317 C.ar      3 RES3    0.0000
     86 H34        3.3226    5.3645    6.4369 H         3 RES3    0.0000
     87 C38        2.3893    3.9754    5.3100 C.ar      3 RES3    0.0000
     88 H35        1.5225    4.2065    5.5536 H         3 RES3    0.0000
     89 C39        2.6065    2.9319    4.4253 C.ar      3 RES3    0.0000
     90 H36        1.8836    2.4612    4.0770 H         3 RES3    0.0000
     91 C40        2.4273    1.7874    1.3334 Du        4 SUP4    0.0000
     92 H37        2.9074    2.4111    0.7673 Du        4 SUP4    0.0000
     93 H38        1.8277    2.2916    1.9063 Du        4 SUP4    0.0000
     94 C41        1.6281    0.7926    0.4706 Du        4 SUP4    0.0000
     95 H39        1.1372    0.1790    1.0418 Du        4 SUP4    0.0000
     96 H40        0.9915    1.2703   -0.0836 Du        4 SUP4    0.0000
     97 C42        2.5889    0.0297   -0.3939 Du        4 SUP4    0.0000
     98 H41        3.0412    0.6245   -1.0265 Du        4 SUP4    0.0000
     99 C43        3.5948   -0.7109    0.4757 Du        4 SUP4    0.0000
    100 C44        2.0374   -1.2076   -1.1083 Du        4 SUP4    0.0000
    101 H42        1.2284   -1.5235   -0.6616 Du        4 SUP4    0.0000
    102 H43        1.8199   -1.0061   -2.0274 Du        4 SUP4    0.0000
@<TRIPOS>BOND
     1    1   10 1
     2    2    3 2
     3    3    6 1
     4    4    2 1
     5    5    4 2
     6    6    5 1
     7    7    6 1
     8    8    7 1
     9    9    7 1
    10   10   16 2
    11   11    7 1
    12   12   11 1
    13   13   11 1
    14   14   11 1
    15   15   14 1
    16   16    5 1
    17   17    1 1
    18   18   17 1
    19   19   17 1
    20   20    3 1
    21   21   20 ar
    22   22   21 1
    23   23   21 ar
    24   24   23 1
    25   25   23 ar
    26   26   25 1
    27   27   25 ar
    28   28   27 1
    29   29   20 ar
    30   30   29 1
    31   31   40 1
    32   32   33 2
    33   33   36 1
    34   34   32 1
    35   35   34 2
    36   36   35 1
    37   37   36 1
    38   38   37 1
    39   39   37 1
    40   40   46 2
    41   41   37 1
    42   42   41 1
    43   43   41 1
    44   44   41 1
    45   45   44 1
    46   46   35 1
    47   47   31 1
    48   48   47 1
    49   49   47 1
    50   50   33 1
    51   51   50 ar
    52   52   51 1
    53   53   51 ar
    54   54   53 1
    55   55   53 ar
    56   56   55 1
    57   57   55 ar
    58   58   57 1
    59   59   50 ar
    60   60   59 1
    61   61   67 1
    62   62   63 2
    63   63   66 1
    64   64   62 1
    65   65   64 2
    66   66   65 1
    67   67   76 2
    68   68   66 1
    69   69   68 1
    70   70   68 1
    71   71   68 1
    72   72   71 1
    73   73   71 1
    74   74   71 1
    75   75   74 1
    76   76   65 1
    77   77   61 1
    78   78   77 1
    79   79   77 1
    80   80   63 1
    81   81   80 ar
    82   82   81 1
    83   83   81 ar
    84   84   83 1
    85   85   83 ar
    86   86   85 1
    87   87   85 ar
    88   88   87 1
    89   89   80 ar
    90   90   89 1
    91   14   16 1
    92   14   17 1
    93   27   29 ar
    94   44   46 1
    95   44   47 1
    96   57   59 ar
    97   74   76 1
    98   74   77 1
    99   87   89 ar
@<TRIPOS>SUBSTRUCTURE
     1 RES1 1
     2 RES2 31
     3 RES3 61
     4 SUP4 91

@<TRIPOS>CRYSIN
   9.7850   10.6230   17.9260  95.4060 104.5440 107.7420   2 1

