# MOL2 file generated by ConQuest
# Please check atom types

@<TRIPOS>MOLECULE
OPOHIM
    59    62     1
SMALL
NO_CHARGES
****
Generated from CSD

@<TRIPOS>ATOM
      1 O1         5.7567    5.9204    0.4356 O.3       1 RES1    0.0000
      2 O2         4.9142    4.1959    1.6143 O.2       1 RES1    0.0000
      3 O3         6.0301    8.8927    0.3892 O.3       1 RES1    0.0000
      4 O4         9.5127    1.6908   -3.3945 O.2       1 RES1    0.0000
      5 O5         8.8231    0.0049   -2.2213 O.2       1 RES1    0.0000
      6 N1         8.8097    1.1993   -2.5162 N.pl3     1 RES1    0.0000
      7 C1         5.1159    6.8272    1.3657 C.3       1 RES1    0.0000
      8 C2         4.8511    8.1584    0.6960 C.3       1 RES1    0.0000
      9 C3         4.0063    8.9625    1.6776 C.3       1 RES1    0.0000
     10 C4         3.6839   10.3950    1.2486 C.3       1 RES1    0.0000
     11 C5         2.8773   11.1309    2.3144 C.ar      1 RES1    0.0000
     12 C6         2.1073   10.4807    3.2548 C.ar      1 RES1    0.0000
     13 C7         1.3819   11.1916    4.2504 C.ar      1 RES1    0.0000
     14 C8         0.5957   10.5261    5.2306 C.ar      1 RES1    0.0000
     15 C9        -0.0703   11.2416    6.1828 C.ar      1 RES1    0.0000
     16 C10       -0.0100   12.6470    6.1936 C.ar      1 RES1    0.0000
     17 C11        0.7294   13.3208    5.2605 C.ar      1 RES1    0.0000
     18 C12        1.4565   12.6073    4.2649 C.ar      1 RES1    0.0000
     19 C13        2.2496   13.2569    3.2831 C.ar      1 RES1    0.0000
     20 C14        2.9344   12.5417    2.3472 C.ar      1 RES1    0.0000
     21 C15        2.9952   10.3947   -0.1199 C.ar      1 RES1    0.0000
     22 C16        1.6413   10.0944   -0.2667 C.ar      1 RES1    0.0000
     23 C17        1.0554   10.0280   -1.5290 C.ar      1 RES1    0.0000
     24 C18        1.8247   10.2633   -2.6606 C.ar      1 RES1    0.0000
     25 C19        3.1702   10.5654   -2.5236 C.ar      1 RES1    0.0000
     26 C20        3.7491   10.6333   -1.2613 C.ar      1 RES1    0.0000
     27 C21        6.6547    8.4989   -0.8332 C.3       1 RES1    0.0000
     28 C22        5.5892    4.6169    0.7056 C.2       1 RES1    0.0000
     29 C23        6.3715    3.7509   -0.2240 C.ar      1 RES1    0.0000
     30 C24        7.1250    4.2725   -1.2744 C.ar      1 RES1    0.0000
     31 C25        7.9012    3.4335   -2.0554 C.ar      1 RES1    0.0000
     32 C26        7.9083    2.0816   -1.7580 C.ar      1 RES1    0.0000
     33 C27        7.1478    1.5312   -0.7424 C.ar      1 RES1    0.0000
     34 C28        6.3750    2.3797    0.0278 C.ar      1 RES1    0.0000
     35 H1         5.7376    6.9579    2.1305 H         1 RES1    0.0000
     36 H2         4.2713    6.4271    1.6540 H         1 RES1    0.0000
     37 H3         4.3680    8.0082   -0.1609 H         1 RES1    0.0000
     38 H4         4.4775    9.0298    2.5284 H         1 RES1    0.0000
     39 H5         3.0859    8.4859    1.7887 H         1 RES1    0.0000
     40 H6         4.6108   10.8884    1.1526 H         1 RES1    0.0000
     41 H7         2.0086    9.5550    3.2893 H         1 RES1    0.0000
     42 H8         0.5339    9.5407    5.1816 H         1 RES1    0.0000
     43 H9        -0.6081   10.7602    6.8431 H         1 RES1    0.0000
     44 H10       -0.5382   13.1141    6.8618 H         1 RES1    0.0000
     45 H11        0.7450   14.2961    5.2627 H         1 RES1    0.0000
     46 H12        2.3170   14.2297    3.2843 H         1 RES1    0.0000
     47 H13        3.4702   13.0113    1.6790 H         1 RES1    0.0000
     48 H14        1.1030    9.9011    0.5226 H         1 RES1    0.0000
     49 H15        0.1197    9.8149   -1.6153 H         1 RES1    0.0000
     50 H16        1.4010   10.2262   -3.5201 H         1 RES1    0.0000
     51 H17        3.7236   10.7458   -3.3093 H         1 RES1    0.0000
     52 H18        4.7095   10.8674   -1.1688 H         1 RES1    0.0000
     53 H19        7.2547    9.2023   -1.0865 H         1 RES1    0.0000
     54 H20        5.9832    8.4018   -1.4831 H         1 RES1    0.0000
     55 H21        7.1718    7.6699   -0.7098 H         1 RES1    0.0000
     56 H22        7.1359    5.1866   -1.4519 H         1 RES1    0.0000
     57 H23        8.4245    3.7703   -2.7579 H         1 RES1    0.0000
     58 H24        7.1782    0.6103   -0.5526 H         1 RES1    0.0000
     59 H25        5.8709    2.0366    0.7484 H         1 RES1    0.0000
@<TRIPOS>BOND
     1    1    7 1
     2    2   28 2
     3    3    8 1
     4    4    6 2
     5    5    6 2
     6    6   32 1
     7    7    8 1
     8    8    9 1
     9    9   10 1
    10   10   11 1
    11   11   12 ar
    12   12   13 ar
    13   13   14 ar
    14   14   15 ar
    15   15   16 ar
    16   16   17 ar
    17   17   18 ar
    18   18   13 ar
    19   19   18 ar
    20   20   11 ar
    21   21   10 1
    22   22   21 ar
    23   23   22 ar
    24   24   23 ar
    25   25   24 ar
    26   26   21 ar
    27   27    3 1
    28   28    1 1
    29   29   28 1
    30   30   29 ar
    31   31   30 ar
    32   32   31 ar
    33   33   32 ar
    34   34   29 ar
    35   35    7 1
    36   36    7 1
    37   37    8 1
    38   38    9 1
    39   39    9 1
    40   40   10 1
    41   41   12 1
    42   42   14 1
    43   43   15 1
    44   44   16 1
    45   45   17 1
    46   46   19 1
    47   47   20 1
    48   48   22 1
    49   49   23 1
    50   50   24 1
    51   51   25 1
    52   52   26 1
    53   53   27 1
    54   54   27 1
    55   55   27 1
    56   56   30 1
    57   57   31 1
    58   58   33 1
    59   59   34 1
    60   19   20 ar
    61   25   26 ar
    62   33   34 ar
@<TRIPOS>SUBSTRUCTURE
     1 RES1 1

@<TRIPOS>CRYSIN
  16.6860   11.0565   12.9454  90.0000 105.5145  90.0000  14 1

