# MOL2 file generated by ConQuest
# Please check atom types

@<TRIPOS>MOLECULE
OPOXAZ01
    19    20     1
SMALL
NO_CHARGES
****
Generated from CSD

@<TRIPOS>ATOM
      1 C1        -0.2223    0.6854    7.9343 C.ar      1 RES1    0.0000
      2 C2         0.8147    0.1416    7.1635 C.ar      1 RES1    0.0000
      3 C3         0.7160    0.1046    5.7780 C.ar      1 RES1    0.0000
      4 C4        -1.0438    0.6881    1.5454 C.2       1 RES1    0.0000
      5 C5        -1.5341    1.0242    2.8319 C.2       1 RES1    0.0000
      6 C6        -0.5766    0.5862    3.6807 C.2       1 RES1    0.0000
      7 C7        -0.4494    0.6002    5.1500 C.ar      1 RES1    0.0000
      8 C8        -1.4786    1.1343    5.9360 C.ar      1 RES1    0.0000
      9 C9        -1.3683    1.1771    7.3196 C.ar      1 RES1    0.0000
     10 H1        -0.1792    0.7780    8.9829 H         1 RES1    0.0000
     11 H2         1.6600   -0.1556    7.6507 H         1 RES1    0.0000
     12 H3         1.4186   -0.3695    5.2337 H         1 RES1    0.0000
     13 H4        -2.3655    1.5755    3.1402 H         1 RES1    0.0000
     14 H5        -1.2045    0.6535   -0.4187 H         1 RES1    0.0000
     15 H6        -2.3951    1.3537    5.4621 H         1 RES1    0.0000
     16 H7        -2.0600    1.4393    7.8791 H         1 RES1    0.0000
     17 N1         0.1236    0.0860    1.6006 N.2       1 RES1    0.0000
     18 O1         0.4362    0.0144    2.9899 O.3       1 RES1    0.0000
     19 O2        -1.6750    0.9359    0.3997 O.3       1 RES1    0.0000
@<TRIPOS>BOND
     1    1    2 ar
     2    2    3 ar
     3    3    7 ar
     4    4    5 1
     5    5    6 2
     6    6    7 1
     7    7    8 ar
     8    8    9 ar
     9    9    1 ar
    10   10    1 1
    11   11    2 1
    12   12    3 1
    13   13    5 1
    14   14   19 1
    15   15    8 1
    16   16    9 1
    17   17    4 2
    18   18    6 1
    19   19    4 1
    20   17   18 1
@<TRIPOS>SUBSTRUCTURE
     1 RES1 1

@<TRIPOS>CRYSIN
  10.4100    3.8900   19.1400  90.0000  96.1000  90.0000 231 1

