# MOL2 file generated by ConQuest
# Please check atom types

@<TRIPOS>MOLECULE
OPUBIL
    41    42     1
SMALL
NO_CHARGES
****
Generated from CSD

@<TRIPOS>ATOM
      1 O1         2.9843   10.0003    5.5503 O.2       1 RES1    0.0000
      2 O2         1.4440   11.2365    4.7119 O.2       1 RES1    0.0000
      3 O3         0.4685    2.9730    1.5038 O.2       1 RES1    0.0000
      4 O4         1.3518   -0.7905    3.6692 O.2       1 RES1    0.0000
      5 O5         3.0749   -1.3245    4.9911 O.3       1 RES1    0.0000
      6 N1         2.0320   10.1722    4.8070 N.pl3     1 RES1    0.0000
      7 N2         0.8186    4.1591    3.3968 N.am      1 RES1    0.0000
      8 H1         0.4596    4.4914    4.1034 H         1 RES1    0.0000
      9 C1         1.5867    9.0443    3.9761 C.ar      1 RES1    0.0000
     10 C2         0.4698    9.2069    3.1857 C.ar      1 RES1    0.0000
     11 H2        -0.0204    9.9957    3.2059 H         1 RES1    0.0000
     12 C3         0.0994    8.1512    2.3556 C.ar      1 RES1    0.0000
     13 H3        -0.6469    8.2316    1.8077 H         1 RES1    0.0000
     14 C4         0.8458    6.9792    2.3481 C.ar      1 RES1    0.0000
     15 H4         0.5967    6.2879    1.7777 H         1 RES1    0.0000
     16 C5         1.9555    6.8098    3.1685 C.ar      1 RES1    0.0000
     17 C6         2.3370    7.8774    3.9956 C.ar      1 RES1    0.0000
     18 H5         3.0801    7.8039    4.5495 H         1 RES1    0.0000
     19 C7         2.7882    5.5779    3.1543 C.ar      1 RES1    0.0000
     20 C8         2.2249    4.2843    3.2351 C.ar      1 RES1    0.0000
     21 C9         3.0592    3.1551    3.2396 C.ar      1 RES1    0.0000
     22 C10        4.4364    3.3211    3.1004 C.ar      1 RES1    0.0000
     23 H6         4.9912    2.5733    3.0697 H         1 RES1    0.0000
     24 C11        4.9818    4.5838    3.0083 C.ar      1 RES1    0.0000
     25 H7         5.9011    4.6847    2.9117 H         1 RES1    0.0000
     26 C12        4.1650    5.7011    3.0599 C.ar      1 RES1    0.0000
     27 H8         4.5485    6.5480    3.0300 H         1 RES1    0.0000
     28 C13        0.0140    3.5452    2.4971 C.2       1 RES1    0.0000
     29 C14       -1.4546    3.5709    2.7725 C.3       1 RES1    0.0000
     30 H9        -1.9207    3.1089    2.0726 H         1 RES1    0.0000
     31 H10       -1.7563    4.4828    2.8099 H         1 RES1    0.0000
     32 H11       -1.6299    3.1414    3.6131 H         1 RES1    0.0000
     33 C15        2.4784    1.8085    3.4409 C.2       1 RES1    0.0000
     34 H12        1.6036    1.6734    3.1558 H         1 RES1    0.0000
     35 C16        3.1067    0.7836    3.9948 C.2       1 RES1    0.0000
     36 H13        3.9896    0.8709    4.2748 H         1 RES1    0.0000
     37 C17        2.3953   -0.5013    4.1663 C.2       1 RES1    0.0000
     38 C18        2.4476   -2.5939    5.2179 C.3       1 RES1    0.0000
     39 H14        2.9913   -3.1174    5.8122 H         1 RES1    0.0000
     40 H15        2.3507   -3.0576    4.3826 H         1 RES1    0.0000
     41 H16        1.5825   -2.4587    5.6116 H         1 RES1    0.0000
@<TRIPOS>BOND
     1    1    6 2
     2    2    6 2
     3    3   28 2
     4    4   37 2
     5    5   37 1
     6    6    9 1
     7    7    8 1
     8    9   10 ar
     9   10   11 1
    10   12   10 ar
    11   13   12 1
    12   14   12 ar
    13   15   14 1
    14   16   14 ar
    15   17    9 ar
    16   18   17 1
    17   19   16 1
    18   20    7 1
    19   21   20 ar
    20   22   21 ar
    21   23   22 1
    22   24   22 ar
    23   25   24 1
    24   26   19 ar
    25   27   26 1
    26   28    7 1
    27   29   28 1
    28   30   29 1
    29   31   29 1
    30   32   29 1
    31   33   21 1
    32   34   33 1
    33   35   33 2
    34   36   35 1
    35   37   35 1
    36   38    5 1
    37   39   38 1
    38   40   38 1
    39   41   38 1
    40   16   17 ar
    41   19   20 ar
    42   24   26 ar
@<TRIPOS>SUBSTRUCTURE
     1 RES1 1

@<TRIPOS>CRYSIN
  12.7600   17.1100    7.8682  90.0000 107.9510  90.0000  14 1

