# MOL2 file generated by ConQuest
# Please check atom types

@<TRIPOS>MOLECULE
OPUTAW
    58    59     1
SMALL
NO_CHARGES
****
Generated from CSD

@<TRIPOS>ATOM
      1 O1         0.6423   10.6722   13.8238 O.2       1 RES1    0.0000
      2 N1         1.1019   10.0201   11.8453 N.3       1 RES1    0.0000
      3 N2         0.3022   10.7277   12.6521 N.2       1 RES1    0.0000
      4 C1         1.7522   10.3640    9.4607 C.ar      1 RES1    0.0000
      5 C2         2.3077    9.3919    8.6103 C.ar      1 RES1    0.0000
      6 C3         3.6897   11.0914    7.5633 C.ar      1 RES1    0.0000
      7 C4         2.1635   11.6843    9.3586 C.ar      1 RES1    0.0000
      8 C5         2.2746    9.3005   12.3119 C.3       1 RES1    0.0000
      9 H1         2.7232    9.8228   12.9948 H         1 RES1    0.0000
     10 H2         2.8920    9.1782   11.5736 H         1 RES1    0.0000
     11 C6         3.1296   12.0256    8.4011 C.ar      1 RES1    0.0000
     12 H3         3.3990   12.9132    8.3306 H         1 RES1    0.0000
     13 C7         3.2665    9.7849    7.6830 C.ar      1 RES1    0.0000
     14 H4         3.6365    9.1403    7.1223 H         1 RES1    0.0000
     15 C8         0.6693    9.9848   10.4497 C.3       1 RES1    0.0000
     16 H5        -0.0804   10.5898   10.3389 H         1 RES1    0.0000
     17 H6         0.3570    9.0903   10.2431 H         1 RES1    0.0000
     18 C9         1.9025    7.9441    8.6581 C.3       1 RES1    0.0000
     19 H7         2.3544    7.4615    7.9627 H         1 RES1    0.0000
     20 H8         0.9534    7.8734    8.5321 H         1 RES1    0.0000
     21 H9         2.1410    7.5735    9.5111 H         1 RES1    0.0000
     22 C10        4.7292   11.4826    6.5377 C.3       1 RES1    0.0000
     23 H10        5.5698   11.0776    6.7645 H         1 RES1    0.0000
     24 H11        4.8260   12.4375    6.5276 H         1 RES1    0.0000
     25 H12        4.4526   11.1793    5.6696 H         1 RES1    0.0000
     26 C11        1.5846   12.7719   10.2280 C.3       1 RES1    0.0000
     27 H13        0.6267   12.7598   10.1612 H         1 RES1    0.0000
     28 H14        1.9142   13.6251    9.9357 H         1 RES1    0.0000
     29 H15        1.8440   12.6254   11.1414 H         1 RES1    0.0000
     30 O1B        3.5310    6.5638   11.3745 O.2       1 RES1    0.0000
     31 N1B        3.0714    7.2159   13.3530 N.3       1 RES1    0.0000
     32 N2B        3.8710    6.5083   12.5462 N.2       1 RES1    0.0000
     33 C1B        2.4211    6.8720   15.7376 C.ar      1 RES1    0.0000
     34 C2B        1.8655    7.8441   16.5880 C.ar      1 RES1    0.0000
     35 C3B        0.4835    6.1446   17.6350 C.ar      1 RES1    0.0000
     36 C4B        2.0098    5.5517   15.8396 C.ar      1 RES1    0.0000
     37 C5B        1.8987    7.9355   12.8864 C.3       1 RES1    0.0000
     38 H1B        1.4501    7.4132   12.2035 H         1 RES1    0.0000
     39 H2B        1.2812    8.0578   13.6247 H         1 RES1    0.0000
     40 C6B        1.0437    5.2104   16.7972 C.ar      1 RES1    0.0000
     41 H3B        0.7743    4.3228   16.8677 H         1 RES1    0.0000
     42 C7B        0.9068    7.4511   17.5153 C.ar      1 RES1    0.0000
     43 H4B        0.5368    8.0957   18.0760 H         1 RES1    0.0000
     44 C8B        3.5040    7.2512   14.7486 C.3       1 RES1    0.0000
     45 H5B        4.2536    6.6462   14.8594 H         1 RES1    0.0000
     46 H6B        3.8163    8.1457   14.9552 H         1 RES1    0.0000
     47 C9B        2.2708    9.2919   16.5402 C.3       1 RES1    0.0000
     48 H7B        1.8189    9.7745   17.2356 H         1 RES1    0.0000
     49 H8B        3.2199    9.3626   16.6662 H         1 RES1    0.0000
     50 H9B        2.0323    9.6625   15.6872 H         1 RES1    0.0000
     51 C10B      -0.5559    5.7534   18.6606 C.3       1 RES1    0.0000
     52 H10B      -1.3965    6.1584   18.4338 H         1 RES1    0.0000
     53 H11B      -0.6527    4.7985   18.6707 H         1 RES1    0.0000
     54 H12B      -0.2793    6.0567   19.5287 H         1 RES1    0.0000
     55 C11B       2.5887    4.4641   14.9703 C.3       1 RES1    0.0000
     56 H13B       3.5466    4.4762   15.0371 H         1 RES1    0.0000
     57 H14B       2.2591    3.6109   15.2626 H         1 RES1    0.0000
     58 H15B       2.3293    4.6106   14.0569 H         1 RES1    0.0000
@<TRIPOS>BOND
     1    1    3 2
     2    2    3 1
     3    4    5 ar
     4    5   13 ar
     5    6   11 ar
     6    7    4 ar
     7    8    2 1
     8    9    8 1
     9   10    8 1
    10   11    7 ar
    11   12   11 1
    12   13    6 ar
    13   14   13 1
    14   15    2 1
    15   16   15 1
    16   17   15 1
    17   18    5 1
    18   19   18 1
    19   20   18 1
    20   21   18 1
    21   22    6 1
    22   23   22 1
    23   24   22 1
    24   25   22 1
    25   26    7 1
    26   27   26 1
    27   28   26 1
    28   29   26 1
    29   30   32 2
    30   31   32 1
    31   33   34 ar
    32   34   42 ar
    33   35   40 ar
    34   36   33 ar
    35   37    8 1
    36   38   37 1
    37   39   37 1
    38   40   36 ar
    39   41   40 1
    40   42   35 ar
    41   43   42 1
    42   44   31 1
    43   45   44 1
    44   46   44 1
    45   47   34 1
    46   48   47 1
    47   49   47 1
    48   50   47 1
    49   51   35 1
    50   52   51 1
    51   53   51 1
    52   54   51 1
    53   55   36 1
    54   56   55 1
    55   57   55 1
    56   58   55 1
    57    4   15 1
    58   31   37 1
    59   33   44 1
@<TRIPOS>SUBSTRUCTURE
     1 RES1 1

@<TRIPOS>CRYSIN
   4.9480   17.2360   12.6051  90.0000  91.7610  90.0000  14 1

