# MOL2 file generated by ConQuest
# Please check atom types

@<TRIPOS>MOLECULE
OQEYOZ
    68    65     2
SMALL
NO_CHARGES
****
Generated from CSD

@<TRIPOS>ATOM
      1 C1        -2.0765    4.6094    6.6476 C.ar      1 RES1    0.0000
      2 H1        -2.6674    5.0135    6.0550 H         1 RES1    0.0000
      3 C2        -2.4528    3.5334    7.4256 C.ar      1 RES1    0.0000
      4 H2        -3.3158    3.1966    7.3447 H         1 RES1    0.0000
      5 C3        -1.5355    2.9102    8.3691 C.ar      1 RES1    0.0000
      6 H3        -1.8181    2.1798    8.8725 H         1 RES1    0.0000
      7 C4        -0.2425    3.3920    8.5287 C.ar      1 RES1    0.0000
      8 C5         0.1695    4.4449    7.7551 C.ar      1 RES1    0.0000
      9 H4         1.0367    4.7718    7.8363 H         1 RES1    0.0000
     10 C6        -0.7635    5.0603    6.7941 C.ar      1 RES1    0.0000
     11 C7        -0.3161    6.1926    5.8892 C.3       1 RES1    0.0000
     12 H5         0.6637    6.1929    5.8673 H         1 RES1    0.0000
     13 C8        -0.7693    7.5621    6.2776 C.2       1 RES1    0.0000
     14 C9        -0.1623    7.9737    7.6145 C.2       1 RES1    0.0000
     15 C10       -0.2148    9.5270    9.3360 C.3       1 RES1    0.0000
     16 H6        -0.5873    8.9905   10.0389 H         1 RES1    0.0000
     17 H7        -0.4607   10.4450    9.4686 H         1 RES1    0.0000
     18 H8         0.7421    9.4479    9.3454 H         1 RES1    0.0000
     19 C11       -1.6215    8.3502    5.4532 C.2       1 RES1    0.0000
     20 C12       -2.1509    9.6933    5.8125 C.2       1 RES1    0.0000
     21 C13       -1.7071   12.0039    5.8720 C.3       1 RES1    0.0000
     22 H9        -2.3933   12.2757    5.2582 H         1 RES1    0.0000
     23 H10       -0.9522   12.5912    5.7887 H         1 RES1    0.0000
     24 H11       -2.0455   12.0418    6.7697 H         1 RES1    0.0000
     25 C14       -1.6624    6.8177    3.6760 C.2       1 RES1    0.0000
     26 C15       -2.1426    6.6424    2.2050 C.2       1 RES1    0.0000
     27 C16       -3.9126    5.9365    0.6489 C.3       1 RES1    0.0000
     28 H12       -4.0522    6.8068    0.2687 H         1 RES1    0.0000
     29 H13       -4.7495    5.4682    0.6923 H         1 RES1    0.0000
     30 H14       -3.2983    5.4432    0.1009 H         1 RES1    0.0000
     31 C17       -0.8324    5.9569    4.4298 C.2       1 RES1    0.0000
     32 C18       -0.3339    4.7232    3.9075 C.2       1 RES1    0.0000
     33 C19       -0.4896    3.2646    2.0970 C.3       1 RES1    0.0000
     34 H15        0.4683    3.2981    2.0618 H         1 RES1    0.0000
     35 H16       -0.8424    3.2173    1.2051 H         1 RES1    0.0000
     36 H17       -0.7646    2.4889    2.5922 H         1 RES1    0.0000
     37 C20       -2.9390    8.9201    3.2699 C.ar      1 RES1    0.0000
     38 C21       -4.3155    8.8156    3.1507 C.ar      1 RES1    0.0000
     39 H18       -4.7578    8.1707    3.6541 H         1 RES1    0.0000
     40 C22       -5.0995    9.6696    2.2695 C.ar      1 RES1    0.0000
     41 H19       -6.0219    9.5551    2.2343 H         1 RES1    0.0000
     42 C23       -4.5375   10.6070    1.5173 C.ar      1 RES1    0.0000
     43 C24       -3.1597   10.7210    1.6487 C.ar      1 RES1    0.0000
     44 H20       -2.7266   11.3740    1.1488 H         1 RES1    0.0000
     45 C25       -2.3480    9.8741    2.5288 C.ar      1 RES1    0.0000
     46 H21       -1.4273    9.9966    2.5746 H         1 RES1    0.0000
     47 C26       -5.3753   12.0393   -0.2664 C.3       1 RES1    0.0000
     48 H22       -4.8167   12.7479    0.0587 H         1 RES1    0.0000
     49 H23       -6.1584   12.4107   -0.6783 H         1 RES1    0.0000
     50 H24       -4.8911   11.5180   -0.9106 H         1 RES1    0.0000
     51 O1        -5.7507   11.2327    0.7862 O.3       1 RES1    0.0000
     52 N1         0.7560    2.7657    9.5554 N.pl3     1 RES1    0.0000
     53 N2        -2.1090    8.0002    4.1598 N.pl3     1 RES1    0.0000
     54 O2         0.4354    1.8198   10.1938 O.2       1 RES1    0.0000
     55 O3         1.8727    3.2499    9.7643 O.2       1 RES1    0.0000
     56 O4         0.7503    7.3849    8.2710 O.2       1 RES1    0.0000
     57 O5        -0.7334    9.0626    8.0336 O.3       1 RES1    0.0000
     58 O6        -3.2221    9.8266    6.2076 O.2       1 RES1    0.0000
     59 O7        -1.3012   10.6596    5.5710 O.3       1 RES1    0.0000
     60 O8        -1.5155    7.0261    1.3315 O.2       1 RES1    0.0000
     61 O9        -3.3459    6.0786    2.0336 O.3       1 RES1    0.0000
     62 O10        0.5527    4.0441    4.5001 O.2       1 RES1    0.0000
     63 O11       -0.9706    4.4061    2.7230 O.3       1 RES1    0.0000
     64 C27       -6.2094   11.5421    0.0587 Du        2 SUP2    0.0000
     65 H25       -6.3572   10.6835   -0.3438 Du        2 SUP2    0.0000
     66 H26       -6.3857   12.2316   -0.5844 Du        2 SUP2    0.0000
     67 H27       -6.7975   11.6494    0.8109 Du        2 SUP2    0.0000
     68 O12       -4.8099   11.6386    0.5116 Du        2 SUP2    0.0000
@<TRIPOS>BOND
     1    1    2 1
     2    3    1 ar
     3    4    3 1
     4    5    3 ar
     5    6    5 1
     6    7    5 ar
     7    8    7 ar
     8    9    8 1
     9   10    1 ar
    10   11   10 1
    11   12   11 1
    12   13   11 1
    13   14   13 1
    14   15   16 1
    15   17   15 1
    16   18   15 1
    17   19   13 2
    18   20   19 1
    19   21   22 1
    20   23   21 1
    21   24   21 1
    22   25   26 1
    23   26   60 2
    24   27   28 1
    25   29   27 1
    26   30   27 1
    27   31   11 1
    28   32   31 1
    29   33   34 1
    30   35   33 1
    31   36   33 1
    32   37   38 ar
    33   38   39 1
    34   40   38 ar
    35   41   40 1
    36   42   40 ar
    37   43   42 ar
    38   44   43 1
    39   45   37 ar
    40   46   45 1
    41   47   48 1
    42   49   47 1
    43   50   47 1
    44   51   42 1
    45   52    7 1
    46   53   19 1
    47   54   52 2
    48   55   52 2
    49   56   14 2
    50   57   14 1
    51   58   20 2
    52   59   20 1
    53   61   26 1
    54   62   32 2
    55   63   32 1
    56    8   10 ar
    57   15   57 1
    58   21   59 1
    59   25   31 2
    60   25   53 1
    61   27   61 1
    62   33   63 1
    63   37   53 1
    64   43   45 ar
    65   47   51 1
@<TRIPOS>SUBSTRUCTURE
     1 RES1 1
     2 SUP2 64

@<TRIPOS>CRYSIN
   9.9884   11.2546   13.3690 111.3230 102.7990 103.0910   2 1

