# MOL2 file generated by ConQuest
# Please check atom types

@<TRIPOS>MOLECULE
OQOMUD
   213   208     5
SMALL
NO_CHARGES
****
Generated from CSD

@<TRIPOS>ATOM
      1 C1         4.6920    2.3554    8.4606 C.ar      1 RES1    0.0000
      2 H1         5.5996    2.5227    8.2359 H         1 RES1    0.0000
      3 C2         4.3849    1.9603    9.7421 C.ar      1 RES1    0.0000
      4 H2         5.0765    1.8413   10.3835 H         1 RES1    0.0000
      5 O1         2.8551    1.3843   11.4102 O.3       1 RES1    0.0000
      6 C3         3.0619    1.7350   10.0972 C.ar      1 RES1    0.0000
      7 C4         2.0664    1.8685    9.1415 C.ar      1 RES1    0.0000
      8 H3         1.1604    1.7105    9.3790 H         1 RES1    0.0000
      9 C5         2.3906    2.2349    7.8273 C.ar      1 RES1    0.0000
     10 C6         1.2843    2.2465    6.7998 C.3       1 RES1    0.0000
     11 H4         0.5051    2.7259    7.1798 H         1 RES1    0.0000
     12 H5         1.0050    1.3132    6.6235 H         1 RES1    0.0000
     13 C7         1.6618    2.8990    5.4769 C.3       1 RES1    0.0000
     14 H6         1.6035    3.8833    5.5720 H         1 RES1    0.0000
     15 H7         1.0144    2.6221    4.7810 H         1 RES1    0.0000
     16 C8         3.0700    2.5188    5.0336 C.3       1 RES1    0.0000
     17 H8         3.1308    1.5209    5.0157 H         1 RES1    0.0000
     18 C9         4.0637    3.0369    6.0766 C.3       1 RES1    0.0000
     19 H9         3.9481    4.0297    6.1071 H         1 RES1    0.0000
     20 C10        3.7110    2.5192    7.4776 C.ar      1 RES1    0.0000
     21 C11        5.5022    2.7875    5.6598 C.3       1 RES1    0.0000
     22 H10        5.6760    1.8130    5.6424 H         1 RES1    0.0000
     23 H11        6.1138    3.1955    6.3231 H         1 RES1    0.0000
     24 C12        5.7805    3.3783    4.2830 C.3       1 RES1    0.0000
     25 H12        6.7173    3.1767    4.0347 H         1 RES1    0.0000
     26 H13        5.6888    4.3625    4.3351 H         1 RES1    0.0000
     27 C13        4.8512    2.8553    3.1723 C.3       1 RES1    0.0000
     28 C14        3.3712    3.0437    3.6077 C.3       1 RES1    0.0000
     29 H14        3.2034    4.0290    3.6263 H         1 RES1    0.0000
     30 C15        2.3968    2.4525    2.5715 C.3       1 RES1    0.0000
     31 H15        2.9042    2.1516    1.7767 H         1 RES1    0.0000
     32 H16        1.9412    1.6645    2.9597 H         1 RES1    0.0000
     33 C16        1.3779    3.4586    2.1570 C.2       1 RES1    0.0000
     34 H17        1.6547    4.3515    1.9880 H         1 RES1    0.0000
     35 C17        0.1086    3.1471    2.0157 C.2       1 RES1    0.0000
     36 H18       -0.1831    2.2581    2.1804 H         1 RES1    0.0000
     37 H19       -0.5163    3.8104    1.7509 H         1 RES1    0.0000
     38 C18        5.1452    1.3931    2.9663 C.2       1 RES1    0.0000
     39 H20        4.8691    0.7735    3.6310 H         1 RES1    0.0000
     40 N1         5.7417    0.9610    1.9450 N.2       1 RES1    0.0000
     41 C19        5.1356    3.6539    1.8845 C.3       1 RES1    0.0000
     42 H21        4.5936    3.2948    1.1524 H         1 RES1    0.0000
     43 H22        6.0862    3.5762    1.6570 H         1 RES1    0.0000
     44 H23        4.9092    4.5963    2.0279 H         1 RES1    0.0000
     45 O2         5.9399   -0.4365    1.9948 O.3       1 RES1    0.0000
     46 H24        6.3324   -0.6890    1.2956 H         1 RES1    0.0000
     47 C20        1.5145    1.4043   11.8925 C.3       1 RES1    0.0000
     48 H25        1.0040    0.6838   11.4679 H         1 RES1    0.0000
     49 H26        1.1025    2.2672   11.6768 H         1 RES1    0.0000
     50 H27        1.5149    1.2758   12.8644 H         1 RES1    0.0000
     51 C21        3.8192    3.5410   16.1733 C.ar      2 RES2    0.0000
     52 H28        4.6480    3.4190   16.6221 H         2 RES2    0.0000
     53 C22        3.8388    3.8471   14.8233 C.ar      2 RES2    0.0000
     54 H29        4.6627    3.9277   14.3572 H         2 RES2    0.0000
     55 O3         2.5204    4.3533   12.8292 O.3       2 RES2    0.0000
     56 C23        2.6241    4.0349   14.1633 C.ar      2 RES2    0.0000
     57 C24        1.4354    3.9143   14.8641 C.ar      2 RES2    0.0000
     58 H30        0.6115    4.0447   14.4111 H         2 RES2    0.0000
     59 C25        1.4292    3.6053   16.2210 C.ar      2 RES2    0.0000
     60 C26        0.1021    3.5387   16.9462 C.3       2 RES2    0.0000
     61 H31       -0.2390    4.4597   17.0727 H         2 RES2    0.0000
     62 H32       -0.5474    3.0517   16.3804 H         2 RES2    0.0000
     63 C27        0.1787    2.8599   18.2921 C.3       2 RES2    0.0000
     64 H33        0.2579    1.8811   18.1618 H         2 RES2    0.0000
     65 H34       -0.6555    3.0341   18.7955 H         2 RES2    0.0000
     66 C28        1.3761    3.3610   19.1053 C.3       2 RES2    0.0000
     67 H35        1.3312    4.3597   19.1311 H         2 RES2    0.0000
     68 C29        2.6628    2.9696   18.3690 C.3       2 RES2    0.0000
     69 H36        2.6927    1.9695   18.3660 H         2 RES2    0.0000
     70 C30        2.6440    3.4035   16.9035 C.ar      2 RES2    0.0000
     71 C31        3.9039    3.4357   19.1347 C.3       2 RES2    0.0000
     72 H37        4.7180    3.1232   18.6664 H         2 RES2    0.0000
     73 H38        3.9247    4.4252   19.1593 H         2 RES2    0.0000
     74 C32        3.8981    2.8912   20.5626 C.3       2 RES2    0.0000
     75 H39        4.6863    3.2504   21.0417 H         2 RES2    0.0000
     76 H40        3.9942    1.9068   20.5253 H         2 RES2    0.0000
     77 C33        2.6324    3.2323   21.3726 C.3       2 RES2    0.0000
     78 C34        1.3540    2.8531   20.5575 C.3       2 RES2    0.0000
     79 H41        1.3970    1.8571   20.4737 H         2 RES2    0.0000
     80 C35       -0.0650    3.3673   21.2036 C.3       2 RES2    0.0000
     81 H42        0.1026    3.6644   22.1331 H         2 RES2    0.0000
     82 H43       -0.3770    4.1535   20.6896 H         2 RES2    0.0000
     83 C36       -1.1595    2.3428   21.2194 C.2       2 RES2    0.0000
     84 H44       -1.7616    2.3523   20.4854 H         2 RES2    0.0000
     85 C37       -1.3698    1.4470   22.1284 C.2       2 RES2    0.0000
     86 H45       -0.7970    1.3940   22.8841 H         2 RES2    0.0000
     87 H46       -2.0974    0.8430   22.0392 H         2 RES2    0.0000
     88 C38        2.6349    4.7160   21.6439 C.2       2 RES2    0.0000
     89 H47        2.7293    5.3181   20.9149 H         2 RES2    0.0000
     90 N2         2.5152    5.1822   22.8119 N.2       2 RES2    0.0000
     91 C39        2.6898    2.4384   22.6882 C.3       2 RES2    0.0000
     92 H48        1.9063    2.6557   23.2362 H         2 RES2    0.0000
     93 H49        3.5052    2.6745   23.1775 H         2 RES2    0.0000
     94 H50        2.6936    1.4780   22.4898 H         2 RES2    0.0000
     95 O4         2.5637    6.5902   22.8334 O.3       2 RES2    0.0000
     96 H51        2.3645    6.8653   23.6024 H         2 RES2    0.0000
     97 C40        3.7462    4.4636   12.1037 C.3       2 RES2    0.0000
     98 H52        4.2442    3.6218   12.1744 H         2 RES2    0.0000
     99 H53        4.2833    5.1923   12.4795 H         2 RES2    0.0000
    100 H54        3.5535    4.6507   11.1604 H         2 RES2    0.0000
    101 C41       -3.5110    7.3283    5.1798 C.ar      3 RES3    0.0000
    102 H55       -4.1484    7.4441    5.8748 H         3 RES3    0.0000
    103 C42       -3.9172    7.4741    3.8650 C.ar      3 RES3    0.0000
    104 H56       -4.8234    7.6802    3.6638 H         3 RES3    0.0000
    105 O5        -3.4850    7.5118    1.5737 O.3       3 RES3    0.0000
    106 C43       -3.0003    7.3205    2.8482 C.ar      3 RES3    0.0000
    107 C44       -1.6826    6.9946    3.1491 C.ar      3 RES3    0.0000
    108 H57       -1.0546    6.8775    2.4457 H         3 RES3    0.0000
    109 C45       -1.2711    6.8376    4.4806 C.ar      3 RES3    0.0000
    110 C46        0.1588    6.4494    4.7592 C.3       3 RES3    0.0000
    111 H58        0.7497    6.9157    4.1168 H         3 RES3    0.0000
    112 H59        0.2624    5.4754    4.6120 H         3 RES3    0.0000
    113 C47        0.6047    6.7866    6.1726 C.3       3 RES3    0.0000
    114 H60        0.6752    7.7692    6.2738 H         3 RES3    0.0000
    115 H61        1.4961    6.3926    6.3442 H         3 RES3    0.0000
    116 C48       -0.4037    6.2370    7.1755 C.3       3 RES3    0.0000
    117 H62       -0.5411    5.2691    6.9662 H         3 RES3    0.0000
    118 C49       -1.7444    6.9479    6.9793 C.3       3 RES3    0.0000
    119 H63       -1.6151    7.8917    7.2830 H         3 RES3    0.0000
    120 C50       -2.1827    7.0130    5.5187 C.ar      3 RES3    0.0000
    121 C51       -2.7952    6.3297    7.9029 C.3       3 RES3    0.0000
    122 H64       -3.6637    6.7862    7.7712 H         3 RES3    0.0000
    123 H65       -2.9131    5.3721    7.6797 H         3 RES3    0.0000
    124 C52       -2.3585    6.4662    9.3614 C.3       3 RES3    0.0000
    125 H66       -3.0380    6.0347    9.9376 H         3 RES3    0.0000
    126 H67       -2.3329    7.4271    9.5973 H         3 RES3    0.0000
    127 C53       -0.9789    5.8440    9.6700 C.3       3 RES3    0.0000
    128 C54        0.0796    6.3370    8.6401 C.3       3 RES3    0.0000
    129 H68        0.2425    7.3052    8.8298 H         3 RES3    0.0000
    130 C55        1.4189    5.6068    8.8441 C.3       3 RES3    0.0000
    131 H69        1.3507    5.0781    9.6794 H         3 RES3    0.0000
    132 H70        1.5274    4.9626    8.0998 H         3 RES3    0.0000
    133 C56        2.6708    6.4257    8.9246 C.2       3 RES3    0.0000
    134 H71        3.4813    5.9337    8.9753 H         3 RES3    0.0000
    135 C57        2.7962    7.7305    8.9347 C.2       3 RES3    0.0000
    136 H72        2.0254    8.2829    8.8861 H         3 RES3    0.0000
    137 H73        3.6597    8.1237    8.9894 H         3 RES3    0.0000
    138 C58       -1.0916    4.3373    9.5827 C.2       3 RES3    0.0000
    139 H74       -1.0955    3.9173    8.7312 H         3 RES3    0.0000
    140 N3        -1.1804    3.6291   10.6265 N.2       3 RES3    0.0000
    141 C59       -0.5847    6.2776   11.0848 C.3       3 RES3    0.0000
    142 H75        0.2646    5.8547   11.3318 H         3 RES3    0.0000
    143 H76       -1.2815    6.0034   11.7167 H         3 RES3    0.0000
    144 H77       -0.4841    7.2523   11.1111 H         3 RES3    0.0000
    145 O6        -1.2908    2.2498   10.3373 O.3       3 RES3    0.0000
    146 H78       -1.4146    1.8230   11.0501 H         3 RES3    0.0000
    147 C60       -2.5676    7.3366    0.5135 C.3       3 RES3    0.0000
    148 H79       -2.1871    6.4343    0.5563 H         3 RES3    0.0000
    149 H80       -1.8484    7.9979    0.5915 H         3 RES3    0.0000
    150 H81       -3.0294    7.4555   -0.3427 H         3 RES3    0.0000
    151 C61        2.9146   -1.0592   18.1160 C.ar      4 RES4    0.0000
    152 H82        2.3842   -1.0957   17.3286 H         4 RES4    0.0000
    153 C62        2.2845   -1.1774   19.3457 C.ar      4 RES4    0.0000
    154 H83        1.3430   -1.2907   19.3964 H         4 RES4    0.0000
    155 O7         2.5454   -1.2349   21.7744 O.3       4 RES4    0.0000
    156 C63        3.0555   -1.1288   20.5037 C.ar      4 RES4    0.0000
    157 C64        4.4312   -0.9710   20.4012 C.ar      4 RES4    0.0000
    158 H84        4.9571   -0.9490   21.1919 H         4 RES4    0.0000
    159 C65        5.0579   -0.8445   19.1617 C.ar      4 RES4    0.0000
    160 C66        6.5529   -0.6635   19.0861 C.3       4 RES4    0.0000
    161 H85        6.9771   -1.1743   19.8212 H         4 RES4    0.0000
    162 H86        6.7684    0.2939   19.2180 H         4 RES4    0.0000
    163 C67        7.1368   -1.1252   17.7581 C.3       4 RES4    0.0000
    164 H87        7.0352   -2.1057   17.6713 H         4 RES4    0.0000
    165 H88        8.1021   -0.9094   17.7229 H         4 RES4    0.0000
    166 C68        6.4119   -0.4270   16.6134 C.3       4 RES4    0.0000
    167 H89        6.4435    0.5564   16.7911 H         4 RES4    0.0000
    168 C69        4.9363   -0.8503   16.6026 C.3       4 RES4    0.0000
    169 H90        4.9149   -1.7885   16.2560 H         4 RES4    0.0000
    170 C70        4.2967   -0.8872   17.9841 C.ar      4 RES4    0.0000
    171 C71        4.1808    0.0021   15.5814 C.3       4 RES4    0.0000
    172 H91        3.2197   -0.2361   15.5917 H         4 RES4    0.0000
    173 H92        4.2654    0.9598   15.8170 H         4 RES4    0.0000
    174 C72        4.7556   -0.2393   14.1912 C.3       4 RES4    0.0000
    175 H93        4.2813    0.3467   13.5498 H         4 RES4    0.0000
    176 H94        4.5704   -1.1765   13.9323 H         4 RES4    0.0000
    177 C73        6.2744    0.0153   14.0595 C.3       4 RES4    0.0000
    178 C74        7.0445   -0.6715   15.2324 C.3       4 RES4    0.0000
    179 H95        6.9882   -1.6565   15.0683 H         4 RES4    0.0000
    180 C75        8.5532   -0.3095   15.1979 C.3       4 RES4    0.0000
    181 H96        8.7415    0.2129   14.3783 H         4 RES4    0.0000
    182 H97        8.7660    0.2633   15.9767 H         4 RES4    0.0000
    183 C76        9.4394   -1.5152   15.2221 C.2       4 RES4    0.0000
    184 H98        9.3345   -2.1214   15.9461 H         4 RES4    0.0000
    185 C77       10.3555   -1.8016   14.3147 C.2       4 RES4    0.0000
    186 H99       10.4909   -1.2200   13.5756 H         4 RES4    0.0000
    187 H100      10.8805   -2.5897   14.4018 H         4 RES4    0.0000
    188 C78        6.5117    1.5057   14.1074 C.2       4 RES4    0.0000
    189 H101       6.3145    1.9854   14.9040 H         4 RES4    0.0000
    190 N4         6.9695    2.1270   13.1033 N.2       4 RES4    0.0000
    191 C79        6.7339   -0.5636   12.7140 C.3       4 RES4    0.0000
    192 H102       7.6855   -0.3713   12.5828 H         4 RES4    0.0000
    193 H103       6.2153   -0.1558   11.9889 H         4 RES4    0.0000
    194 H104       6.5929   -1.5332   12.7095 H         4 RES4    0.0000
    195 O8         7.0944    3.5149   13.3503 O.3       4 RES4    0.0000
    196 H105       7.3507    3.9019   12.6508 H         4 RES4    0.0000
    197 C80        1.1359   -1.3867   21.9054 C.3       4 RES4    0.0000
    198 H106       0.8513   -2.2059   21.4477 H         4 RES4    0.0000
    199 H107       0.6849   -0.6153   21.5017 H         4 RES4    0.0000
    200 H108       0.9004   -1.4439   22.8560 H         4 RES4    0.0000
    201 C81        0.2876    3.0920   21.5181 Du        5 SUP5    0.0000
    202 C82       -0.4159    1.8947   22.0415 Du        5 SUP5    0.0000
    203 C83       -1.6455    1.5424   21.7317 Du        5 SUP5    0.0000
    204 C84        0.9157    3.0348    2.2297 Du        5 SUP5    0.0000
    205 C85        0.7809    4.3363    2.1335 Du        5 SUP5    0.0000
    206 H109      -0.3838    3.6820   21.0933 Du        5 SUP5    0.0000
    207 H110       0.6701    3.5846   22.2880 Du        5 SUP5    0.0000
    208 H111       0.0594    1.3392   22.6494 Du        5 SUP5    0.0000
    209 H112      -2.1530    2.0680   21.1262 Du        5 SUP5    0.0000
    210 H113      -2.0232    0.7558   22.1096 Du        5 SUP5    0.0000
    211 H114       0.1758    2.4532    2.1053 Du        5 SUP5    0.0000
    212 H115       1.5325    4.9029    2.2626 Du        5 SUP5    0.0000
    213 H116      -0.0693    4.7116    1.9364 Du        5 SUP5    0.0000
@<TRIPOS>BOND
     1    1    2 1
     2    3    1 ar
     3    4    3 1
     4    5    6 1
     5    6    3 ar
     6    7    6 ar
     7    8    7 1
     8    9    7 ar
     9   10    9 1
    10   11   10 1
    11   12   10 1
    12   13   10 1
    13   14   13 1
    14   15   13 1
    15   16   13 1
    16   17   16 1
    17   18   16 1
    18   19   18 1
    19   20    1 ar
    20   21   18 1
    21   22   21 1
    22   23   21 1
    23   24   21 1
    24   25   24 1
    25   26   24 1
    26   27   24 1
    27   28   16 1
    28   29   28 1
    29   30   28 1
    30   31   30 1
    31   32   30 1
    32   33   30 1
    33   34   33 1
    34   35   33 2
    35   36   35 1
    36   37   35 1
    37   38   27 1
    38   39   38 1
    39   40   38 2
    40   41   27 1
    41   42   41 1
    42   43   41 1
    43   44   41 1
    44   45   40 1
    45   46   45 1
    46   47    5 1
    47   48   47 1
    48   49   47 1
    49   50   47 1
    50   51   52 1
    51   53   51 ar
    52   54   53 1
    53   55   56 1
    54   56   53 ar
    55   57   56 ar
    56   58   57 1
    57   59   57 ar
    58   60   59 1
    59   61   60 1
    60   62   60 1
    61   63   60 1
    62   64   63 1
    63   65   63 1
    64   66   63 1
    65   67   66 1
    66   68   66 1
    67   69   68 1
    68   70   51 ar
    69   71   68 1
    70   72   71 1
    71   73   71 1
    72   74   71 1
    73   75   74 1
    74   76   74 1
    75   77   74 1
    76   78   66 1
    77   79   78 1
    78   80   78 1
    79   81   80 1
    80   82   80 1
    81   83   80 1
    82   84   83 1
    83   85   83 2
    84   86   85 1
    85   87   85 1
    86   88   77 1
    87   89   88 1
    88   90   88 2
    89   91   77 1
    90   92   91 1
    91   93   91 1
    92   94   91 1
    93   95   90 1
    94   96   95 1
    95   97   55 1
    96   98   97 1
    97   99   97 1
    98  100   97 1
    99  101  102 1
   100  103  101 ar
   101  104  103 1
   102  105  106 1
   103  106  103 ar
   104  107  106 ar
   105  108  107 1
   106  109  107 ar
   107  110  109 1
   108  111  110 1
   109  112  110 1
   110  113  110 1
   111  114  113 1
   112  115  113 1
   113  116  113 1
   114  117  116 1
   115  118  116 1
   116  119  118 1
   117  120  101 ar
   118  121  118 1
   119  122  121 1
   120  123  121 1
   121  124  121 1
   122  125  124 1
   123  126  124 1
   124  127  124 1
   125  128  116 1
   126  129  128 1
   127  130  128 1
   128  131  130 1
   129  132  130 1
   130  133  130 1
   131  134  133 1
   132  135  133 2
   133  136  135 1
   134  137  135 1
   135  138  127 1
   136  139  138 1
   137  140  138 2
   138  141  127 1
   139  142  141 1
   140  143  141 1
   141  144  141 1
   142  145  140 1
   143  146  145 1
   144  147  105 1
   145  148  147 1
   146  149  147 1
   147  150  147 1
   148  151  152 1
   149  153  151 ar
   150  154  153 1
   151  155  156 1
   152  156  153 ar
   153  157  156 ar
   154  158  157 1
   155  159  157 ar
   156  160  159 1
   157  161  160 1
   158  162  160 1
   159  163  160 1
   160  164  163 1
   161  165  163 1
   162  166  163 1
   163  167  166 1
   164  168  166 1
   165  169  168 1
   166  170  151 ar
   167  171  168 1
   168  172  171 1
   169  173  171 1
   170  174  171 1
   171  175  174 1
   172  176  174 1
   173  177  174 1
   174  178  166 1
   175  179  178 1
   176  180  178 1
   177  181  180 1
   178  182  180 1
   179  183  180 1
   180  184  183 1
   181  185  183 2
   182  186  185 1
   183  187  185 1
   184  188  177 1
   185  189  188 1
   186  190  188 2
   187  191  177 1
   188  192  191 1
   189  193  191 1
   190  194  191 1
   191  195  190 1
   192  196  195 1
   193  197  155 1
   194  198  197 1
   195  199  197 1
   196  200  197 1
   197    9   20 ar
   198   18   20 1
   199   27   28 1
   200   59   70 ar
   201   68   70 1
   202   77   78 1
   203  109  120 ar
   204  118  120 1
   205  127  128 1
   206  159  170 ar
   207  168  170 1
   208  177  178 1
@<TRIPOS>SUBSTRUCTURE
     1 RES1 1
     2 RES2 51
     3 RES3 101
     4 RES4 151
     5 SUP5 201

@<TRIPOS>CRYSIN
   8.8489    9.4453   23.6805  96.8060  90.0320 116.5430   1 1

