# MOL2 file generated by ConQuest
# Please check atom types

@<TRIPOS>MOLECULE
OQOWIC
    52    58     2
SMALL
USER_CHARGES
****
Generated from CSD

@<TRIPOS>ATOM
      1 N1         3.8599    6.3250    2.1235 N.pl3     1 RES1    1.0000
      2 N2         1.5663    6.1963    2.4277 N.am      1 RES1    0.0000
      3 O1         1.1566    5.5333    0.2457 O.2       1 RES1    0.0000
      4 O2         1.3730    6.5123    4.7155 O.2       1 RES1    0.0000
      5 C1         2.7191    6.9920    2.2237 C.2       1 RES1    0.0000
      6 C2         2.5686    8.4390    2.1612 C.ar      1 RES1    0.0000
      7 C3         3.8386    4.3645    3.5999 C.ar      1 RES1    0.0000
      8 C4         3.9065    4.8793    2.3229 C.ar      1 RES1    0.0000
      9 C5         0.8186    5.5723    1.3932 C.2       1 RES1    0.0000
     10 C6         0.9359    6.0624    3.6816 C.2       1 RES1    0.0000
     11 C7         1.2703    8.9708    2.1695 C.ar      1 RES1    0.0000
     12 C8        -2.4232    3.8639    2.4358 C.ar      1 RES1    0.0000
     13 C9        -0.3795    5.0067    2.0693 C.ar      1 RES1    0.0000
     14 C10        3.6513    9.3361    2.1425 C.ar      1 RES1    0.0000
     15 C11        1.0716   10.3541    2.1618 C.ar      1 RES1    0.0000
     16 C12       -1.4381    4.3008    1.5345 C.ar      1 RES1    0.0000
     17 C13        4.1238    4.0823    1.2052 C.ar      1 RES1    0.0000
     18 C14       -0.3057    5.2966    3.4303 C.ar      1 RES1    0.0000
     19 C15        4.1918    2.1647    2.6790 C.ar      1 RES1    0.0000
     20 C16        3.9840    2.9890    3.7715 C.ar      1 RES1    0.0000
     21 C17        2.1539   11.2212    2.1637 C.ar      1 RES1    0.0000
     22 C18       -2.3507    4.1500    3.7908 C.ar      1 RES1    0.0000
     23 C19       -1.2719    4.8793    4.3255 C.ar      1 RES1    0.0000
     24 C20        4.2602    2.7081    1.3994 C.ar      1 RES1    0.0000
     25 C21        3.4304   10.7064    2.1444 C.ar      1 RES1    0.0000
     26 O3         4.9910    6.8698    1.8711 O.2       1 RES1   -1.0000
     27 N3         7.7862   12.3328    2.2199 N.pl3     2 RES2    1.0000
     28 O4        10.1515   12.3432    4.8192 O.2       2 RES2    0.0000
     29 N4        10.0751   12.4082    2.5098 N.am      2 RES2    0.0000
     30 O5        10.6704   12.6878    0.2837 O.2       2 RES2    0.0000
     31 C22        7.7913   13.7929    2.2702 C.ar      2 RES2    0.0000
     32 C23        8.9060   11.6321    2.3451 C.2       2 RES2    0.0000
     33 C24       10.6518   12.6800    3.7729 C.2       2 RES2    0.0000
     34 C25        9.0173   10.1734    2.3407 C.ar      2 RES2    0.0000
     35 C26       12.0579   13.5016    2.1077 C.ar      2 RES2    0.0000
     36 C27       10.9070   12.8503    1.4474 C.2       2 RES2    0.0000
     37 C28       11.8989   13.4145    3.4878 C.ar      2 RES2    0.0000
     38 C29        7.8901    9.3114    2.3104 C.ar      2 RES2    0.0000
     39 C30       10.2908    9.6039    2.3658 C.ar      2 RES2    0.0000
     40 C31        7.6065   15.8119    3.5283 C.ar      2 RES2    0.0000
     41 C32        7.7384   14.4871    1.0596 C.ar      2 RES2    0.0000
     42 C33        7.7321   14.4221    3.4955 C.ar      2 RES2    0.0000
     43 C34        8.0866    7.9346    2.3220 C.ar      2 RES2    0.0000
     44 C35       10.4601    8.2284    2.3664 C.ar      2 RES2    0.0000
     45 C36        7.5377   16.5374    2.3413 C.ar      2 RES2    0.0000
     46 C37       13.1596   14.1387    1.5345 C.ar      2 RES2    0.0000
     47 C38       14.0917   14.6938    2.4204 C.ar      2 RES2    0.0000
     48 C39       13.9340   14.6054    3.7947 C.ar      2 RES2    0.0000
     49 C40        9.3566    7.3898    2.3451 C.ar      2 RES2    0.0000
     50 C41        7.6127   15.8717    1.1118 C.ar      2 RES2    0.0000
     51 C42       12.8230   13.9632    4.3737 C.ar      2 RES2    0.0000
     52 O6         6.6209   11.8141    2.0608 O.2       2 RES2   -1.0000
@<TRIPOS>BOND
     1    1    5 2
     2    2    5 1
     3    3    9 2
     4    4   10 2
     5    5    6 1
     6    6   11 ar
     7    7    8 ar
     8    8    1 1
     9    9    2 1
    10   10    2 1
    11   11   15 ar
    12   12   16 ar
    13   13    9 1
    14   14    6 ar
    15   15   21 ar
    16   16   13 ar
    17   17    8 ar
    18   18   10 1
    19   19   20 ar
    20   20    7 ar
    21   21   25 ar
    22   22   12 ar
    23   23   18 ar
    24   24   17 ar
    25   25   14 ar
    26   26    1 1
    27   27   31 1
    28   28   33 2
    29   29   32 1
    30   30   36 2
    31   31   41 ar
    32   32   27 2
    33   33   29 1
    34   34   32 1
    35   35   36 1
    36   36   29 1
    37   37   33 1
    38   38   34 ar
    39   39   34 ar
    40   40   42 ar
    41   41   50 ar
    42   42   31 ar
    43   43   38 ar
    44   44   39 ar
    45   45   40 ar
    46   46   35 ar
    47   47   46 ar
    48   48   47 ar
    49   49   43 ar
    50   50   45 ar
    51   51   37 ar
    52   52   27 1
    53   13   18 ar
    54   19   24 ar
    55   22   23 ar
    56   35   37 ar
    57   44   49 ar
    58   48   51 ar
@<TRIPOS>SUBSTRUCTURE
     1 RES1 1
     2 RES2 27

@<TRIPOS>CRYSIN
  13.4491   13.0011   19.7568  90.0000 102.3250  90.0000 231 1

