# MOL2 file generated by ConQuest
# Please check atom types

@<TRIPOS>MOLECULE
OQOWOI
    26    29     1
SMALL
USER_CHARGES
****
Generated from CSD

@<TRIPOS>ATOM
      1 O1         2.1946    4.6959    3.7972 O.2       1 RES1    0.0000
      2 N1         4.9109    5.9279    3.1882 N.pl3     1 RES1    1.0000
      3 C1         5.9408    3.6996    3.5618 C.ar      1 RES1    0.0000
      4 C2         2.7830    4.6821    4.8471 C.2       1 RES1    0.0000
      5 C3         2.2650    4.6308    6.2251 C.ar      1 RES1    0.0000
      6 C4         5.0296    4.7949    3.8587 C.2       1 RES1    0.0000
      7 O2         5.7379    4.6608    6.6614 O.2       1 RES1    0.0000
      8 N2         4.1767    4.6784    4.9727 N.am      1 RES1    0.0000
      9 O3         4.2300    6.9218    3.6221 O.2       1 RES1   -1.0000
     10 C5         3.3415    4.5932    7.0978 C.ar      1 RES1    0.0000
     11 C6         0.9666    4.6658    6.6765 C.ar      1 RES1    0.0000
     12 C7         5.4576    6.0845    1.8556 C.ar      1 RES1    0.0000
     13 C8         3.1705    4.5719    8.4596 C.ar      1 RES1    0.0000
     14 C9         4.5922    4.6408    6.3076 C.2       1 RES1    0.0000
     15 C10        5.5158    2.3887    3.8503 C.ar      1 RES1    0.0000
     16 C11        7.2257    3.9039    3.0577 C.ar      1 RES1    0.0000
     17 C12        7.6197    1.5315    3.0442 C.ar      1 RES1    0.0000
     18 C13        1.8620    4.6132    8.9282 C.ar      1 RES1    0.0000
     19 C14        6.1965    7.2300    1.5948 C.ar      1 RES1    0.0000
     20 C15        0.7817    4.6696    8.0588 C.ar      1 RES1    0.0000
     21 C16        8.0604    2.8323    2.7949 C.ar      1 RES1    0.0000
     22 C17        6.3599    1.3234    3.5956 C.ar      1 RES1    0.0000
     23 C18        5.1574    5.1446    0.8917 C.ar      1 RES1    0.0000
     24 C19        6.4051    6.4580   -0.6792 C.ar      1 RES1    0.0000
     25 C20        5.6530    5.3627   -0.4027 C.ar      1 RES1    0.0000
     26 C21        6.6826    7.3917    0.2988 C.ar      1 RES1    0.0000
@<TRIPOS>BOND
     1    1    4 2
     2    2    6 2
     3    3    6 1
     4    4    5 1
     5    5   10 ar
     6    6    8 1
     7    7   14 2
     8    8    4 1
     9    9    2 1
    10   10   13 ar
    11   11    5 ar
    12   12    2 1
    13   13   18 ar
    14   14    8 1
    15   15    3 ar
    16   16    3 ar
    17   17   21 ar
    18   18   20 ar
    19   19   12 ar
    20   20   11 ar
    21   21   16 ar
    22   22   15 ar
    23   23   12 ar
    24   24   25 ar
    25   25   23 ar
    26   26   19 ar
    27   10   14 1
    28   17   22 ar
    29   24   26 ar
@<TRIPOS>SUBSTRUCTURE
     1 RES1 1

@<TRIPOS>CRYSIN
   8.1631   12.5325   16.1842  90.0000  99.1060  90.0000  14 1

