# MOL2 file generated by ConQuest
# Please check atom types

@<TRIPOS>MOLECULE
OQUPUM
    42    44     1
SMALL
NO_CHARGES
****
Generated from CSD

@<TRIPOS>ATOM
      1 C1         2.2227    5.7396    5.5935 C.ar      1 RES1    0.0000
      2 C2         2.0508    6.0825    4.2483 C.ar      1 RES1    0.0000
      3 H1         1.7831    6.9433    4.0191 H         1 RES1    0.0000
      4 C3         2.2765    5.1476    3.2647 C.ar      1 RES1    0.0000
      5 H2         2.1711    5.3686    2.3677 H         1 RES1    0.0000
      6 C4         2.6643    3.8680    3.6369 C.ar      1 RES1    0.0000
      7 C5         2.8209    3.4878    4.9521 C.ar      1 RES1    0.0000
      8 H3         3.0638    2.6175    5.1743 H         1 RES1    0.0000
      9 C6         2.6048    4.4394    5.9308 C.ar      1 RES1    0.0000
     10 H4         2.7153    4.2104    6.8256 H         1 RES1    0.0000
     11 C7         2.0326    6.7349    6.6576 C.2       1 RES1    0.0000
     12 H5         2.3170    6.5374    7.5209 H         1 RES1    0.0000
     13 C8         1.4420    8.8179    7.4624 C.ar      1 RES1    0.0000
     14 C9         0.2826    9.5735    7.6122 C.ar      1 RES1    0.0000
     15 H6        -0.4456    9.4189    7.0543 H         1 RES1    0.0000
     16 C10        2.5387    9.0733    8.2877 C.ar      1 RES1    0.0000
     17 H7         3.3221    8.5836    8.1825 H         1 RES1    0.0000
     18 N1         2.9550    2.8956    2.5730 N.pl3     1 RES1    0.0000
     19 N2         1.4888    7.8594    6.4231 N.2       1 RES1    0.0000
     20 O1         3.2896    1.7605    2.9085 O.2       1 RES1    0.0000
     21 O2         2.8777    3.2589    1.4050 O.2       1 RES1    0.0000
     22 C1A        0.5227   13.8895   11.2828 C.ar      1 RES1    0.0000
     23 C2A        0.6946   13.5466   12.6279 C.ar      1 RES1    0.0000
     24 H1A        0.9623   12.6857   12.8572 H         1 RES1    0.0000
     25 C3A        0.4689   14.4814   13.6116 C.ar      1 RES1    0.0000
     26 H2A        0.5743   14.2605   14.5085 H         1 RES1    0.0000
     27 C4A        0.0811   15.7610   13.2394 C.ar      1 RES1    0.0000
     28 C5A       -0.0755   16.1413   11.9242 C.ar      1 RES1    0.0000
     29 H3A       -0.3184   17.0116   11.7020 H         1 RES1    0.0000
     30 C6A        0.1406   15.1897   10.9454 C.ar      1 RES1    0.0000
     31 H4A        0.0301   15.4187   10.0507 H         1 RES1    0.0000
     32 C7A        0.7128   12.8942   10.2187 C.2       1 RES1    0.0000
     33 H5A        0.4284   13.0917    9.3554 H         1 RES1    0.0000
     34 C8A        1.3034   10.8112    9.4138 C.ar      1 RES1    0.0000
     35 C9A        2.4628   10.0556    9.2641 C.ar      1 RES1    0.0000
     36 H6A        3.1910   10.2102    9.8220 H         1 RES1    0.0000
     37 C10A       0.2067   10.5558    8.5886 C.ar      1 RES1    0.0000
     38 H7A       -0.5767   11.0455    8.6938 H         1 RES1    0.0000
     39 N1A       -0.2096   16.7334   14.3033 N.pl3     1 RES1    0.0000
     40 N2A        1.2566   11.7697   10.4532 N.2       1 RES1    0.0000
     41 O1A       -0.5442   17.8686   13.9678 O.2       1 RES1    0.0000
     42 O2A       -0.1323   16.3702   15.4712 O.2       1 RES1    0.0000
@<TRIPOS>BOND
     1    1    2 ar
     2    2    3 1
     3    4    2 ar
     4    5    4 1
     5    6    4 ar
     6    7    6 ar
     7    8    7 1
     8    9    1 ar
     9   10    9 1
    10   11    1 1
    11   12   11 1
    12   13   14 ar
    13   14   15 1
    14   16   13 ar
    15   17   16 1
    16   18    6 1
    17   19   11 2
    18   20   18 2
    19   21   18 2
    20   22   23 ar
    21   23   24 1
    22   25   23 ar
    23   26   25 1
    24   27   25 ar
    25   28   27 ar
    26   29   28 1
    27   30   22 ar
    28   31   30 1
    29   32   22 1
    30   33   32 1
    31   34   35 ar
    32   35   16 ar
    33   36   35 1
    34   37   14 ar
    35   38   37 1
    36   39   27 1
    37   40   32 2
    38   41   39 2
    39   42   39 2
    40    7    9 ar
    41   13   19 1
    42   28   30 ar
    43   34   37 ar
    44   34   40 1
@<TRIPOS>SUBSTRUCTURE
     1 RES1 1

@<TRIPOS>CRYSIN
   6.9357    7.3036    8.8768  73.2950  82.7070  88.0710   2 1

