# MOL2 file generated by ConQuest
# Please check atom types

@<TRIPOS>MOLECULE
ORAWAG
    27    27     1
SMALL
NO_CHARGES
****
Generated from CSD

@<TRIPOS>ATOM
      1 C1         9.0556    2.3318    0.4028 C.ar      1 RES1    0.0000
      2 O1         9.3374    1.2956   -0.3868 O.3       1 RES1    0.0000
      3 H1         8.6034    1.0857   -0.7407 H         1 RES1    0.0000
      4 C2        10.0579    2.7616    1.2702 C.ar      1 RES1    0.0000
      5 N1        11.3331    2.0343    1.2861 N.pl3     1 RES1    0.0000
      6 O2        11.6363    1.4685    2.3222 O.2       1 RES1    0.0000
      7 O3        12.0138    2.0587    0.2701 O.2       1 RES1    0.0000
      8 C3         9.8834    3.7960    2.1792 C.ar      1 RES1    0.0000
      9 O4        10.9022    4.1869    2.9657 O.3       1 RES1    0.0000
     10 C4        10.8091    3.7924    4.3649 C.3       1 RES1    0.0000
     11 H2        11.6098    4.0530    4.8252 H         1 RES1    0.0000
     12 H3        10.7033    2.8401    4.4225 H         1 RES1    0.0000
     13 H4        10.0528    4.2235    4.7698 H         1 RES1    0.0000
     14 C5         8.6344    4.4167    2.1881 C.ar      1 RES1    0.0000
     15 N2         8.3832    5.5143    3.1306 N.pl3     1 RES1    0.0000
     16 O5         8.9228    6.5847    2.9105 O.2       1 RES1    0.0000
     17 O6         7.6443    5.2865    4.0813 O.2       1 RES1    0.0000
     18 C6         7.5928    4.0579    1.3450 C.ar      1 RES1    0.0000
     19 O7         6.4670    4.7972    1.4181 O.3       1 RES1    0.0000
     20 C7         5.3056    4.1423    1.9962 C.3       1 RES1    0.0000
     21 H5         4.5229    4.6734    1.8314 H         1 RES1    0.0000
     22 H6         5.4316    4.0443    2.9424 H         1 RES1    0.0000
     23 H7         5.1944    3.2765    1.5962 H         1 RES1    0.0000
     24 C8         7.8170    3.0061    0.4335 C.ar      1 RES1    0.0000
     25 N3         6.7834    2.6099   -0.5150 N.pl3     1 RES1    0.0000
     26 O8         5.9363    3.4178   -0.8461 O.2       1 RES1    0.0000
     27 O9         6.8290    1.4466   -0.9587 O.2       1 RES1    0.0000
@<TRIPOS>BOND
     1    1    2 1
     2    2    3 1
     3    4    1 ar
     4    5    4 1
     5    6    5 2
     6    7    5 2
     7    8    4 ar
     8    9    8 1
     9   10    9 1
    10   11   10 1
    11   12   10 1
    12   13   10 1
    13   14    8 ar
    14   15   14 1
    15   16   15 2
    16   17   15 2
    17   18   14 ar
    18   19   18 1
    19   20   19 1
    20   21   20 1
    21   22   20 1
    22   23   20 1
    23   24    1 ar
    24   25   24 1
    25   26   25 2
    26   27   25 2
    27   18   24 ar
@<TRIPOS>SUBSTRUCTURE
     1 RES1 1

@<TRIPOS>CRYSIN
   8.7071    9.6339   13.7861  90.0000 101.3590  90.0000  14 1

