# MOL2 file generated by ConQuest
# Please check atom types

@<TRIPOS>MOLECULE
OROYUR
    19    19     1
SMALL
NO_CHARGES
****
Generated from CSD

@<TRIPOS>ATOM
      1 C1         3.0170    2.3632    8.7965 C.ar      1 RES1    0.0000
      2 C2         1.8676    1.7785    9.3613 C.ar      1 RES1    0.0000
      3 C3         0.8717    1.2452    8.5945 C.ar      1 RES1    0.0000
      4 H1         0.1361    0.8413    8.9938 H         1 RES1    0.0000
      5 C4         0.9707    1.3114    7.2051 C.ar      1 RES1    0.0000
      6 C5         2.0905    1.8822    6.6178 C.ar      1 RES1    0.0000
      7 H2         2.1624    1.9243    5.6913 H         1 RES1    0.0000
      8 C6         3.0987    2.3866    7.4142 C.ar      1 RES1    0.0000
      9 H3         3.8530    2.7515    7.0123 H         1 RES1    0.0000
     10 C7         4.1033    2.8981    9.5745 C.1       1 RES1    0.0000
     11 N1         5.0199    3.3308   10.1034 N.1       1 RES1    0.0000
     12 N2         1.7000    1.7410   10.8174 N.pl3     1 RES1    0.0000
     13 O1         0.9181    0.9621   11.2918 O.2       1 RES1    0.0000
     14 O2         2.3193    2.5246   11.4847 O.2       1 RES1    0.0000
     15 O3        -0.0673    0.7719    6.5317 O.3       1 RES1    0.0000
     16 C8        -0.0882    0.9138    5.1018 C.3       1 RES1    0.0000
     17 H4        -0.0539    1.8447    4.8718 H         1 RES1    0.0000
     18 H5        -0.8953    0.5271    4.7543 H         1 RES1    0.0000
     19 H6         0.6708    0.4631    4.7245 H         1 RES1    0.0000
@<TRIPOS>BOND
     1    1    2 ar
     2    2    3 ar
     3    3    4 1
     4    5    3 ar
     5    6    5 ar
     6    7    6 1
     7    8    1 ar
     8    9    8 1
     9   10    1 1
    10   11   10 3
    11   12    2 1
    12   13   12 2
    13   14   12 2
    14   15    5 1
    15   16   15 1
    16   17   16 1
    17   18   16 1
    18   19   16 1
    19    6    8 ar
@<TRIPOS>SUBSTRUCTURE
     1 RES1 1

@<TRIPOS>CRYSIN
   6.3262    7.7969   16.6700  90.0000  96.7630  90.0000  14 1

