# MOL2 file generated by ConQuest
# Please check atom types

@<TRIPOS>MOLECULE
OSAQIK
    44    44     2
SMALL
NO_CHARGES
****
Generated from CSD

@<TRIPOS>ATOM
      1 O1         0.4247   -1.3153    1.7180 O.2       1 RES1    0.0000
      2 N1         1.1355   -0.9498    2.6415 N.pl3     1 RES1    0.0000
      3 C1         2.1178    0.9973    3.8472 C.ar      1 RES1    0.0000
      4 O2         1.4823   -1.7045    3.5304 O.2       1 RES1    0.0000
      5 C2         1.5737    0.4425    2.6845 C.ar      1 RES1    0.0000
      6 C3         1.4172    1.1856    1.5264 C.ar      1 RES1    0.0000
      7 H1         1.0417    0.7764    0.7552 H         1 RES1    0.0000
      8 C4         1.7983    2.5162    1.4749 C.ar      1 RES1    0.0000
      9 C5         2.3270    3.1107    2.6301 C.ar      1 RES1    0.0000
     10 C6         2.4673    2.3505    3.7825 C.ar      1 RES1    0.0000
     11 H2         2.8162    2.7668    4.5617 H         1 RES1    0.0000
     12 C7         2.3394    0.2984    5.0841 C.1       1 RES1    0.0000
     13 C8         2.5760   -0.1920    6.1274 C.1       1 RES1    0.0000
     14 H3         2.7678   -0.5882    6.9693 H         1 RES1    0.0000
     15 C9         1.6453    3.2896    0.1954 C.3       1 RES1    0.0000
     16 H4         1.3317    2.6898   -0.5132 H         1 RES1    0.0000
     17 H5         2.5109    3.6723   -0.0599 H         1 RES1    0.0000
     18 H6         0.9942    4.0105    0.3253 H         1 RES1    0.0000
     19 C10        2.7528    4.5550    2.6164 C.3       1 RES1    0.0000
     20 H7         2.9921    4.8340    3.5246 H         1 RES1    0.0000
     21 H8         2.0156    5.1104    2.2879 H         1 RES1    0.0000
     22 H9         3.5293    4.6608    2.0283 H         1 RES1    0.0000
     23 N2        -1.4493    3.2447   11.2826 N.pl3     2 RES2    0.0000
     24 O3        -1.8483    2.1502   11.6143 O.2       2 RES2    0.0000
     25 O4        -0.8173    3.9700   12.0394 O.2       2 RES2    0.0000
     26 C11       -2.3197    2.9057    8.9669 C.ar      2 RES2    0.0000
     27 C12       -1.7547    3.7417    9.9368 C.ar      2 RES2    0.0000
     28 C13       -1.4561    5.0660    9.6757 C.ar      2 RES2    0.0000
     29 H10       -1.0666    5.6007   10.3577 H         2 RES2    0.0000
     30 C14       -1.7164    5.6247    8.4318 C.ar      2 RES2    0.0000
     31 C15       -2.2739    4.8139    7.4327 C.ar      2 RES2    0.0000
     32 C16       -2.5566    3.4839    7.7183 C.ar      2 RES2    0.0000
     33 H11       -2.9288    2.9427    7.0316 H         2 RES2    0.0000
     34 C17       -2.6560    1.5153    9.1533 C.1       2 RES2    0.0000
     35 C18       -2.9525    0.3755    9.2060 C.1       2 RES2    0.0000
     36 H12       -3.1913   -0.5431    9.2490 H         2 RES2    0.0000
     37 C19       -1.4047    7.0810    8.1887 C.3       2 RES2    0.0000
     38 H13       -2.2363    7.5684    8.0146 H         2 RES2    0.0000
     39 H14       -0.8102    7.1625    7.4145 H         2 RES2    0.0000
     40 H15       -0.9648    7.4573    8.9801 H         2 RES2    0.0000
     41 C20       -2.5793    5.3706    6.0700 C.3       2 RES2    0.0000
     42 H16       -2.9132    4.6533    5.4919 H         2 RES2    0.0000
     43 H17       -1.7642    5.7507    5.6821 H         2 RES2    0.0000
     44 H18       -3.2609    6.0708    6.1484 H         2 RES2    0.0000
@<TRIPOS>BOND
     1    1    2 2
     2    2    4 2
     3    3    5 ar
     4    5    2 1
     5    6    5 ar
     6    7    6 1
     7    8    6 ar
     8    9    8 ar
     9   10    3 ar
    10   11   10 1
    11   12    3 1
    12   13   12 3
    13   14   13 1
    14   15    8 1
    15   16   15 1
    16   17   15 1
    17   18   15 1
    18   19    9 1
    19   20   19 1
    20   21   19 1
    21   22   19 1
    22   23   24 2
    23   25   23 2
    24   26   27 ar
    25   27   23 1
    26   28   27 ar
    27   29   28 1
    28   30   28 ar
    29   31   30 ar
    30   32   26 ar
    31   33   32 1
    32   34   26 1
    33   35   34 3
    34   36   35 1
    35   37   30 1
    36   38   37 1
    37   39   37 1
    38   40   37 1
    39   41   31 1
    40   42   41 1
    41   43   41 1
    42   44   41 1
    43    9   10 ar
    44   31   32 ar
@<TRIPOS>SUBSTRUCTURE
     1 RES1 1
     2 RES2 23

@<TRIPOS>CRYSIN
   7.6080    9.8811   12.8240 108.1760 102.4170  96.6480   2 1

