# MOL2 file generated by ConQuest
# Please check atom types

@<TRIPOS>MOLECULE
OSEWEQ
   102   106     2
SMALL
NO_CHARGES
****
Generated from CSD

@<TRIPOS>ATOM
      1 O1         1.6187    3.9791   11.2813 O.2       1 RES1    0.0000
      2 O2         2.9021    4.6926   12.8550 O.2       1 RES1    0.0000
      3 O3         4.6109    9.0531   12.9100 O.2       1 RES1    0.0000
      4 O4         4.0490   10.5473   11.4590 O.2       1 RES1    0.0000
      5 O5        -1.1759    8.3732    8.7074 O.2       1 RES1    0.0000
      6 O6        -0.2875    9.7260   10.1492 O.2       1 RES1    0.0000
      7 O7        -1.1498   10.4307    4.3070 O.2       1 RES1    0.0000
      8 O8         0.6693   11.3509    3.5760 O.2       1 RES1    0.0000
      9 O9         4.2523   11.6175    8.4711 O.2       1 RES1    0.0000
     10 O10        4.5543   11.2502    6.3735 O.2       1 RES1    0.0000
     11 O11       -2.6350    4.4224    8.3831 O.2       1 RES1    0.0000
     12 O12       -0.8348    3.7565    9.3376 O.2       1 RES1    0.0000
     13 O13       -0.7665    7.3647    3.4368 O.2       1 RES1    0.0000
     14 O14       -2.1022    5.7293    3.7702 O.2       1 RES1    0.0000
     15 O15        2.9733    7.9440    6.5402 O.2       1 RES1    0.0000
     16 O16        3.4422    6.0684    7.5221 O.2       1 RES1    0.0000
     17 N1         1.8162    7.6879    9.4263 N.ar      1 RES1    0.0000
     18 N2         2.2837    4.8639   11.8071 N.pl3     1 RES1    0.0000
     19 N3         3.9808    9.4064   11.9207 N.pl3     1 RES1    0.0000
     20 N4         2.4390    9.8938    9.4530 N.3       1 RES1    0.0000
     21 N5        -0.3934    9.2545    9.0445 N.pl3     1 RES1    0.0000
     22 N6         0.0000   10.8281    4.4554 N.pl3     1 RES1    0.0000
     23 N7         3.8647   11.2555    7.3701 N.pl3     1 RES1    0.0000
     24 N8         1.1542    5.5121    9.1654 N.3       1 RES1    0.0000
     25 N9        -1.4344    4.4347    8.5114 N.pl3     1 RES1    0.0000
     26 N10       -1.1934    6.4587    4.0963 N.pl3     1 RES1    0.0000
     27 N11        2.6655    6.8508    7.0110 N.pl3     1 RES1    0.0000
     28 C1         2.4637    8.6716   10.0576 C.ar      1 RES1    0.0000
     29 C2         3.1504    8.4085   11.2575 C.ar      1 RES1    0.0000
     30 C3         3.0676    7.1563   11.8016 C.ar      1 RES1    0.0000
     31 C4         2.3795    6.1655   11.1678 C.ar      1 RES1    0.0000
     32 C5         1.7770    6.4516    9.9220 C.ar      1 RES1    0.0000
     33 C6         1.7944   10.1870    8.2531 C.ar      1 RES1    0.0000
     34 C7         0.4805    9.8037    7.9801 C.ar      1 RES1    0.0000
     35 C8        -0.1263    9.9856    6.7545 C.ar      1 RES1    0.0000
     36 C9         0.6156   10.6320    5.7872 C.ar      1 RES1    0.0000
     37 C10        1.8830   11.0842    5.9979 C.ar      1 RES1    0.0000
     38 C11        2.4666   10.8387    7.2033 C.ar      1 RES1    0.0000
     39 C12        0.6098    5.7222    7.8940 C.ar      1 RES1    0.0000
     40 C13       -0.6533    5.2136    7.5624 C.ar      1 RES1    0.0000
     41 C14       -1.2398    5.4396    6.3258 C.ar      1 RES1    0.0000
     42 C15       -0.5662    6.1867    5.4172 C.ar      1 RES1    0.0000
     43 C16        0.6693    6.7183    5.6645 C.ar      1 RES1    0.0000
     44 C17        1.2689    6.4340    6.8827 C.ar      1 RES1    0.0000
     45 H1         2.3374   11.4091    5.4227 H         1 RES1    0.0000
     46 H2         0.9001    4.8038    9.5813 H         1 RES1    0.0000
     47 H3        -0.9437    9.6960    6.5768 H         1 RES1    0.0000
     48 H4         1.1759    7.2234    5.0196 H         1 RES1    0.0000
     49 H5         3.0197   10.4024    9.7461 H         1 RES1    0.0000
     50 H6         3.4407    6.9585   12.6040 H         1 RES1    0.0000
     51 H7        -2.0325    5.2807    6.2287 H         1 RES1    0.0000
     52 O17        4.8214   -3.1667    6.9139 O.2       2 RES2    0.0000
     53 O18        3.5409   -2.4761    8.4949 O.2       2 RES2    0.0000
     54 O19        2.2445    2.0469    8.8979 O.2       2 RES2    0.0000
     55 O20        2.3403    3.3450    7.2363 O.2       2 RES2    0.0000
     56 O21        7.4535   -3.1667    5.2156 O.2       2 RES2    0.0000
     57 O22        9.2769   -2.3878    4.4847 O.2       2 RES2    0.0000
     58 O23        9.3292   -0.3921    0.1154 O.2       2 RES2    0.0000
     59 O24        7.4811    0.0795   -0.8207 O.2       2 RES2    0.0000
     60 O25        3.6672    0.8318    2.1068 O.2       2 RES2    0.0000
     61 O26        3.2477   -0.9943    3.1821 O.2       2 RES2    0.0000
     62 O27        6.7494    2.7092    5.9814 O.2       2 RES2    0.0000
     63 O28        7.6742    1.3705    4.5470 O.2       2 RES2    0.0000
     64 O29        7.3548    3.0024   -0.0238 O.2       2 RES2    0.0000
     65 O30        6.0191    4.6255   -0.4433 O.2       2 RES2    0.0000
     66 O31        1.8670    4.0903    2.2552 O.2       2 RES2    0.0000
     67 O32        2.2358    4.5743    4.3125 O.2       2 RES2    0.0000
     68 N12        4.6719    0.6164    5.1852 N.ar      2 RES2    0.0000
     69 N13        4.1449   -2.2748    7.4635 N.pl3     2 RES2    0.0000
     70 N14        2.6205    2.2942    7.7896 N.pl3     2 RES2    0.0000
     71 N15        5.4079   -1.5401    4.8987 N.3       2 RES2    0.0000
     72 N16        8.0879   -2.4425    4.4737 N.pl3     2 RES2    0.0000
     73 N17        8.1300   -0.2685    0.1282 N.pl3     2 RES2    0.0000
     74 N18        4.0084   -0.2084    2.6637 N.pl3     2 RES2    0.0000
     75 N19        4.0229    2.8346    5.2743 N.3       2 RES2    0.0000
     76 N20        6.8684    2.2359    4.8731 N.pl3     2 RES2    0.0000
     77 N21        6.4735    3.8148    0.2840 N.pl3     2 RES2    0.0000
     78 N22        2.5900    4.1804    3.2243 N.pl3     2 RES2    0.0000
     79 C18        4.7154   -0.6376    5.6462 C.ar      2 RES2    0.0000
     80 C19        4.1071   -0.9749    6.8809 C.ar      2 RES2    0.0000
     81 C20        3.4378    0.0336    7.5533 C.ar      2 RES2    0.0000
     82 C21        3.3711    1.2999    7.0495 C.ar      2 RES2    0.0000
     83 C22        4.0287    1.5842    5.8349 C.ar      2 RES2    0.0000
     84 C23        6.0482   -1.2645    3.7006 C.ar      2 RES2    0.0000
     85 C24        7.3678   -1.6584    3.4679 C.ar      2 RES2    0.0000
     86 C25        8.0618   -1.3370    2.3321 C.ar      2 RES2    0.0000
     87 C26        7.4303   -0.5899    1.3813 C.ar      2 RES2    0.0000
     88 C27        6.1295   -0.1695    1.5352 C.ar      2 RES2    0.0000
     89 C28        5.4355   -0.5334    2.6545 C.ar      2 RES2    0.0000
     90 C29        4.6748    3.1349    4.0890 C.ar      2 RES2    0.0000
     91 C30        6.0017    2.7816    3.8105 C.ar      2 RES2    0.0000
     92 C31        6.5752    2.9812    2.5849 C.ar      2 RES2    0.0000
     93 C32        5.8594    3.6047    1.5938 C.ar      2 RES2    0.0000
     94 C33        4.5688    4.0321    1.8173 C.ar      2 RES2    0.0000
     95 C34        4.0098    3.7936    3.0356 C.ar      2 RES2    0.0000
     96 H8         3.2810    3.3733    5.5509 H         2 RES2    0.0000
     97 H9         7.4186    2.7375    2.3449 H         2 RES2    0.0000
     98 H10        5.5604   -2.2960    5.4593 H         2 RES2    0.0000
     99 H11        5.6039    0.3356    0.8427 H         2 RES2    0.0000
    100 H12        8.8704   -1.7308    2.2167 H         2 RES2    0.0000
    101 H13        4.0505    4.5743    1.0076 H         2 RES2    0.0000
    102 H14        3.1068   -0.2473    8.2805 H         2 RES2    0.0000
@<TRIPOS>BOND
     1    1   18 2
     2    2   18 2
     3    3   19 2
     4    4   19 2
     5    5   21 2
     6    6   21 2
     7    7   22 2
     8    8   22 2
     9    9   23 2
    10   10   23 2
    11   11   25 2
    12   12   25 2
    13   13   26 2
    14   14   26 2
    15   15   27 2
    16   16   27 2
    17   17   28 ar
    18   18   31 1
    19   19   29 1
    20   20   28 1
    21   21   34 1
    22   22   36 1
    23   23   38 1
    24   24   32 1
    25   25   40 1
    26   26   42 1
    27   27   44 1
    28   28   29 ar
    29   29   30 ar
    30   30   31 ar
    31   31   32 ar
    32   32   17 ar
    33   33   20 1
    34   34   33 ar
    35   35   34 ar
    36   36   35 ar
    37   37   36 ar
    38   38   33 ar
    39   39   24 1
    40   40   39 ar
    41   41   40 ar
    42   42   41 ar
    43   43   42 ar
    44   44   39 ar
    45   45   37 1
    46   46   24 1
    47   47   35 1
    48   48   43 1
    49   49   20 1
    50   50   30 1
    51   51   41 1
    52   52   69 2
    53   53   69 2
    54   54   70 2
    55   55   70 2
    56   56   72 2
    57   57   72 2
    58   58   73 2
    59   59   73 2
    60   60   74 2
    61   61   74 2
    62   62   76 2
    63   63   76 2
    64   64   77 2
    65   65   77 2
    66   66   78 2
    67   67   78 2
    68   68   79 ar
    69   69   80 1
    70   70   82 1
    71   71   79 1
    72   72   85 1
    73   73   87 1
    74   74   89 1
    75   75   83 1
    76   76   91 1
    77   77   93 1
    78   78   95 1
    79   79   80 ar
    80   80   81 ar
    81   81   82 ar
    82   82   83 ar
    83   83   68 ar
    84   84   71 1
    85   85   84 ar
    86   86   85 ar
    87   87   86 ar
    88   88   87 ar
    89   89   84 ar
    90   90   75 1
    91   91   90 ar
    92   92   91 ar
    93   93   92 ar
    94   94   93 ar
    95   95   90 ar
    96   96   75 1
    97   97   92 1
    98   98   71 1
    99   99   88 1
   100  100   86 1
   101  101   94 1
   102  102   81 1
   103   37   38 ar
   104   43   44 ar
   105   88   89 ar
   106   94   95 ar
@<TRIPOS>SUBSTRUCTURE
     1 RES1 1
     2 RES2 52

@<TRIPOS>CRYSIN
  14.5179   17.6612   18.3198  90.0000  90.0000  90.0000  19 1

