# MOL2 file generated by ConQuest
# Please check atom types

@<TRIPOS>MOLECULE
OSEWIU
    94    98     2
SMALL
NO_CHARGES
****
Generated from CSD

@<TRIPOS>ATOM
      1 O1         2.0828    0.2850    9.1610 O.2       1 RES1    0.0000
      2 O2         1.1592    0.4226    7.2014 O.2       1 RES1    0.0000
      3 O3         3.7758    1.0175    3.2854 O.2       1 RES1    0.0000
      4 O4         5.5846    2.1691    3.4219 O.2       1 RES1    0.0000
      5 O5         7.6593    2.9198    7.7851 O.2       1 RES1    0.0000
      6 O6         7.0976    1.3969    9.2253 O.2       1 RES1    0.0000
      7 O7         3.6428    6.0335    8.7107 O.2       1 RES1    0.0000
      8 O8         3.1455    4.3449    7.4242 O.2       1 RES1    0.0000
      9 O9         5.1659    5.1768    3.0328 O.2       1 RES1    0.0000
     10 O10        7.2180    5.6955    2.9308 O.2       1 RES1    0.0000
     11 O11        8.6702    7.1222    8.7562 O.2       1 RES1    0.0000
     12 O12        9.6030    6.9515    6.8108 O.2       1 RES1    0.0000
     13 N1         5.3413    3.7649    9.4999 N.ar      1 RES1    0.0000
     14 N2         4.2815    1.7250    9.5689 N.3       1 RES1    0.0000
     15 N3         2.1287    0.5535    7.9671 N.pl3     1 RES1    0.0000
     16 N4         4.6766    1.5361    3.9537 N.pl3     1 RES1    0.0000
     17 N5         6.8833    2.0846    8.2510 N.pl3     1 RES1    0.0000
     18 N6         6.4261    5.7833    9.2128 N.3       1 RES1    0.0000
     19 N7         3.9065    5.2348    7.8227 N.pl3     1 RES1    0.0000
     20 N8         6.2242    5.4784    3.5615 N.pl3     1 RES1    0.0000
     21 N9         8.6519    6.7775    7.5654 N.pl3     1 RES1    0.0000
     22 C1         4.8227    2.8171   10.2671 C.ar      1 RES1    0.0000
     23 C2         4.7783    2.8817   11.6447 C.ar      1 RES1    0.0000
     24 C3         5.2818    4.0384   12.2361 C.ar      1 RES1    0.0000
     25 C4         5.8052    5.0575   11.4579 C.ar      1 RES1    0.0000
     26 C5         5.8255    4.8536   10.0836 C.ar      1 RES1    0.0000
     27 C6         6.3421    5.7999    7.8431 C.ar      1 RES1    0.0000
     28 C7         7.4164    6.2141    7.0116 C.ar      1 RES1    0.0000
     29 C8         7.3931    6.1081    5.6199 C.ar      1 RES1    0.0000
     30 C9         6.2526    5.6126    5.0237 C.ar      1 RES1    0.0000
     31 C10        5.1309    5.2596    5.7627 C.ar      1 RES1    0.0000
     32 C11        5.1832    5.3806    7.1183 C.ar      1 RES1    0.0000
     33 C12        4.4256    1.5378    8.2275 C.ar      1 RES1    0.0000
     34 C13        5.5971    1.8725    7.5183 C.ar      1 RES1    0.0000
     35 C14        5.7056    1.8924    6.1393 C.ar      1 RES1    0.0000
     36 C15        4.6123    1.4798    5.4050 C.ar      1 RES1    0.0000
     37 C16        3.4684    1.0224    6.0122 C.ar      1 RES1    0.0000
     38 C17        3.3811    1.0291    7.3740 C.ar      1 RES1    0.0000
     39 H1         4.5237    2.3365   12.2377 H         1 RES1    0.0000
     40 H2         2.6720    0.6297    5.4442 H         1 RES1    0.0000
     41 H3         4.3123    4.9713    5.4285 H         1 RES1    0.0000
     42 H4         8.2227    6.2307    5.0990 H         1 RES1    0.0000
     43 H5         6.5116    2.2039    5.7423 H         1 RES1    0.0000
     44 H6         7.0222    6.3964    9.5078 H         1 RES1    0.0000
     45 H7         5.2177    4.1428   13.1163 H         1 RES1    0.0000
     46 H8         3.6769    1.3091    9.9784 H         1 RES1    0.0000
     47 H9         6.1215    5.8496   11.7200 H         1 RES1    0.0000
     48 O13        1.9598   15.8551    1.9706 O.2       2 RES2    0.0000
     49 O14        1.2228   16.0092   -0.0894 O.2       2 RES2    0.0000
     50 O15        4.1857   16.4368   -3.7074 O.2       2 RES2    0.0000
     51 O16        6.1577   15.6049   -3.6148 O.2       2 RES2    0.0000
     52 O17        7.7354   13.6628    0.6480 O.2       2 RES2    0.0000
     53 O18        7.0954   15.0382    2.2169 O.2       2 RES2    0.0000
     54 O19        3.7334   10.5242    1.3258 O.2       2 RES2    0.0000
     55 O20        3.2292   12.2427    0.0988 O.2       2 RES2    0.0000
     56 O21        5.5780   12.2029   -4.1498 O.2       2 RES2    0.0000
     57 O22        7.4975   11.2650   -4.3177 O.2       2 RES2    0.0000
     58 O23        9.6825    9.5598   -0.5225 O.2       2 RES2    0.0000
     59 O24        8.7988    9.5051    1.4622 O.2       2 RES2    0.0000
     60 N10        5.3760   12.6602    2.2530 N.ar      2 RES2    0.0000
     61 N11        4.2949   14.7034    2.3722 N.3       2 RES2    0.0000
     62 N12        2.1300   15.8187    0.7500 N.pl3     2 RES2    0.0000
     63 N13        5.0816   15.8651   -3.1018 N.pl3     2 RES2    0.0000
     64 N14        6.9452   14.4549    1.1438 N.pl3     2 RES2    0.0000
     65 N15        6.4848   10.6717    1.9235 N.3       2 RES2    0.0000
     66 N16        4.0004   11.3627    0.4801 N.pl3     2 RES2    0.0000
     67 N17        6.5293   11.6345   -3.6650 N.pl3     2 RES2    0.0000
     68 N18        8.7699    9.8051    0.2526 N.pl3     2 RES2    0.0000
     69 C18        5.8833   11.5881    2.8053 C.ar      2 RES2    0.0000
     70 C19        5.8827   11.3660    4.1953 C.ar      2 RES2    0.0000
     71 C20        5.3572   12.3537    4.9798 C.ar      2 RES2    0.0000
     72 C21        4.8494   13.4987    4.4244 C.ar      2 RES2    0.0000
     73 C22        4.8570   13.5982    3.0469 C.ar      2 RES2    0.0000
     74 C23        4.4991   15.0067    1.0496 C.ar      2 RES2    0.0000
     75 C24        3.4794   15.5569    0.2291 C.ar      2 RES2    0.0000
     76 C25        3.6711   15.8187   -1.1187 C.ar      2 RES2    0.0000
     77 C26        4.8825   15.5287   -1.7086 C.ar      2 RES2    0.0000
     78 C27        5.9227   15.0166   -0.9586 C.ar      2 RES2    0.0000
     79 C28        5.7298   14.7929    0.3734 C.ar      2 RES2    0.0000
     80 C29        6.4616   10.7960    0.5413 C.ar      2 RES2    0.0000
     81 C30        5.3300   11.2749   -0.1836 C.ar      2 RES2    0.0000
     82 C31        5.3468   11.5831   -1.5234 C.ar      2 RES2    0.0000
     83 C32        6.5030   11.3296   -2.2310 C.ar      2 RES2    0.0000
     84 C33        7.5870   10.7364   -1.6395 C.ar      2 RES2    0.0000
     85 C34        7.5716   10.4729   -0.2855 C.ar      2 RES2    0.0000
     86 H10        2.9430   16.1567   -1.6160 H         2 RES2    0.0000
     87 H11        8.2964   10.6054   -2.1024 H         2 RES2    0.0000
     88 H12        4.4422   14.2013    4.9735 H         2 RES2    0.0000
     89 H13        6.2317   10.5889    4.5656 H         2 RES2    0.0000
     90 H14        7.0411   10.1415    2.2906 H         2 RES2    0.0000
     91 H15        3.4879   15.0630    2.7613 H         2 RES2    0.0000
     92 H16        4.5531   11.9643   -1.9769 H         2 RES2    0.0000
     93 H17        6.7610   14.7813   -1.3493 H         2 RES2    0.0000
     94 H18        5.3690   12.0637    5.9463 H         2 RES2    0.0000
@<TRIPOS>BOND
     1    1   15 2
     2    2   15 2
     3    3   16 2
     4    4   16 2
     5    5   17 2
     6    6   17 2
     7    7   19 2
     8    8   19 2
     9    9   20 2
    10   10   20 2
    11   11   21 2
    12   12   21 2
    13   13   22 ar
    14   14   22 1
    15   15   38 1
    16   16   36 1
    17   17   34 1
    18   18   26 1
    19   19   32 1
    20   20   30 1
    21   21   28 1
    22   22   23 ar
    23   23   24 ar
    24   24   25 ar
    25   25   26 ar
    26   26   13 ar
    27   27   18 1
    28   28   27 ar
    29   29   28 ar
    30   30   29 ar
    31   31   30 ar
    32   32   27 ar
    33   33   14 1
    34   34   33 ar
    35   35   34 ar
    36   36   35 ar
    37   37   36 ar
    38   38   33 ar
    39   39   23 1
    40   40   37 1
    41   41   31 1
    42   42   29 1
    43   43   35 1
    44   44   18 1
    45   45   24 1
    46   46   14 1
    47   47   25 1
    48   48   62 2
    49   49   62 2
    50   50   63 2
    51   51   63 2
    52   52   64 2
    53   53   64 2
    54   54   66 2
    55   55   66 2
    56   56   67 2
    57   57   67 2
    58   58   68 2
    59   59   68 2
    60   60   69 ar
    61   61   73 1
    62   62   75 1
    63   63   77 1
    64   64   79 1
    65   65   69 1
    66   66   81 1
    67   67   83 1
    68   68   85 1
    69   69   70 ar
    70   70   71 ar
    71   71   72 ar
    72   72   73 ar
    73   73   60 ar
    74   74   61 1
    75   75   74 ar
    76   76   75 ar
    77   77   76 ar
    78   78   77 ar
    79   79   74 ar
    80   80   65 1
    81   81   80 ar
    82   82   81 ar
    83   83   82 ar
    84   84   83 ar
    85   85   80 ar
    86   86   76 1
    87   87   84 1
    88   88   72 1
    89   89   70 1
    90   90   65 1
    91   91   61 1
    92   92   82 1
    93   93   78 1
    94   94   71 1
    95   31   32 ar
    96   37   38 ar
    97   78   79 ar
    98   84   85 ar
@<TRIPOS>SUBSTRUCTURE
     1 RES1 1
     2 RES2 48

@<TRIPOS>CRYSIN
   7.9956   16.5710   15.7330  90.0000  94.2680  90.0000   4 1

