# MOL2 file generated by ConQuest
# Please check atom types

@<TRIPOS>MOLECULE
OSICEA
    34    36     1
SMALL
NO_CHARGES
****
Generated from CSD

@<TRIPOS>ATOM
      1 O1         0.3662    4.1813    4.8707 O.2       1 RES1    0.0000
      2 O2         0.1326   -0.3812    5.0721 O.2       1 RES1    0.0000
      3 O3        -0.1162    1.9294    2.3677 O.3       1 RES1    0.0000
      4 O4         1.4505    1.4405    0.8378 O.2       1 RES1    0.0000
      5 O5         1.4449    2.9743   -1.6858 O.2       1 RES1    0.0000
      6 O6         1.3736    0.8791   -2.2368 O.2       1 RES1    0.0000
      7 N1         0.3564    1.8829    4.6417 N.am      1 RES1    0.0000
      8 N2         0.8884    1.8873   -1.7484 N.pl3     1 RES1    0.0000
      9 C1         0.1305    3.0905    5.3204 C.2       1 RES1    0.0000
     10 C2        -0.4335    2.7081    6.6425 C.ar      1 RES1    0.0000
     11 C3        -0.8578    3.5118    7.6881 C.ar      1 RES1    0.0000
     12 H1        -0.7853    4.4379    7.6504 H         1 RES1    0.0000
     13 C4        -1.3991    2.8673    8.8021 C.ar      1 RES1    0.0000
     14 H2        -1.7044    3.3738    9.5191 H         1 RES1    0.0000
     15 C5        -1.4893    1.4762    8.8574 C.ar      1 RES1    0.0000
     16 H3        -1.8552    1.0750    9.6115 H         1 RES1    0.0000
     17 C6        -1.0424    0.6715    7.8039 C.ar      1 RES1    0.0000
     18 H4        -1.0950   -0.2559    7.8431 H         1 RES1    0.0000
     19 C7        -0.5178    1.3215    6.6993 C.ar      1 RES1    0.0000
     20 C8         0.0013    0.7635    5.4179 C.2       1 RES1    0.0000
     21 C9         0.9495    1.8112    3.3448 C.3       1 RES1    0.0000
     22 H5         1.4121    0.9659    3.2346 H         1 RES1    0.0000
     23 H6         1.5905    2.5300    3.2293 H         1 RES1    0.0000
     24 C10        0.3072    1.6991    1.1064 C.2       1 RES1    0.0000
     25 C11       -0.7892    1.7735    0.1076 C.ar      1 RES1    0.0000
     26 C12       -2.1319    1.7325    0.4765 C.ar      1 RES1    0.0000
     27 H7        -2.3581    1.7089    1.3778 H         1 RES1    0.0000
     28 C13       -3.1347    1.7266   -0.4798 C.ar      1 RES1    0.0000
     29 H8        -4.0265    1.7075   -0.2151 H         1 RES1    0.0000
     30 C14       -2.8160    1.7484   -1.8265 C.ar      1 RES1    0.0000
     31 H9        -3.4941    1.7420   -2.4626 H         1 RES1    0.0000
     32 C15       -1.4829    1.7803   -2.2319 C.ar      1 RES1    0.0000
     33 H10       -1.2590    1.7875   -3.1343 H         1 RES1    0.0000
     34 C16       -0.5033    1.8004   -1.2597 C.ar      1 RES1    0.0000
@<TRIPOS>BOND
     1    1    9 2
     2    2   20 2
     3    3   21 1
     4    4   24 2
     5    5    8 2
     6    6    8 2
     7    7    9 1
     8    8   34 1
     9    9   10 1
    10   10   11 ar
    11   11   12 1
    12   13   11 ar
    13   14   13 1
    14   15   13 ar
    15   16   15 1
    16   17   15 ar
    17   18   17 1
    18   19   10 ar
    19   20    7 1
    20   21    7 1
    21   22   21 1
    22   23   21 1
    23   24    3 1
    24   25   24 1
    25   26   25 ar
    26   27   26 1
    27   28   26 ar
    28   29   28 1
    29   30   28 ar
    30   31   30 1
    31   32   30 ar
    32   33   32 1
    33   34   25 ar
    34   17   19 ar
    35   19   20 1
    36   32   34 ar
@<TRIPOS>SUBSTRUCTURE
     1 RES1 1

@<TRIPOS>CRYSIN
   7.5556    7.6118   13.6551  99.1319  97.0675 113.2039   2 1

