# MOL2 file generated by ConQuest
# Please check atom types

@<TRIPOS>MOLECULE
OSIDEB
    34    36     1
SMALL
NO_CHARGES
****
Generated from CSD

@<TRIPOS>ATOM
      1 O1        12.8468    1.4274   12.4617 O.2       1 RES1    0.0000
      2 O2         8.6285    2.2442   10.9656 O.2       1 RES1    0.0000
      3 O3        11.3759    1.4976    9.2220 O.3       1 RES1    0.0000
      4 O4        11.6614    3.0919    7.7163 O.2       1 RES1    0.0000
      5 O5        12.0898   -1.7686    2.8586 O.2       1 RES1    0.0000
      6 O6        12.0667   -3.2655    4.3442 O.2       1 RES1    0.0000
      7 N1        10.8647    1.9634   11.4236 N.am      1 RES1    0.0000
      8 N2        12.0098   -2.1143    4.0145 N.pl3     1 RES1    0.0000
      9 C1        11.6545    1.4629   12.4672 C.2       1 RES1    0.0000
     10 C2        10.7028    1.0387   13.5079 C.ar      1 RES1    0.0000
     11 C3        10.9257    0.5156   14.7573 C.ar      1 RES1    0.0000
     12 H1        11.7888    0.3442   15.0596 H         1 RES1    0.0000
     13 C4         9.8233    0.2514   15.5536 C.ar      1 RES1    0.0000
     14 H2         9.9456   -0.1110   16.4009 H         1 RES1    0.0000
     15 C5         8.5560    0.5148   15.1090 C.ar      1 RES1    0.0000
     16 H3         7.8339    0.3336   15.6677 H         1 RES1    0.0000
     17 C6         8.3193    1.0440   13.8530 C.ar      1 RES1    0.0000
     18 H4         7.4562    1.2213   13.5554 H         1 RES1    0.0000
     19 C7         9.4182    1.2961   13.0634 C.ar      1 RES1    0.0000
     20 C8         9.5055    1.8818   11.7122 C.2       1 RES1    0.0000
     21 C9        11.3765    2.5401   10.2187 C.3       1 RES1    0.0000
     22 H5        12.2781    2.8714   10.3607 H         1 RES1    0.0000
     23 H6        10.8167    3.2798    9.9330 H         1 RES1    0.0000
     24 C10       11.5474    1.9317    7.9709 C.2       1 RES1    0.0000
     25 C11       11.6171    0.8326    6.9770 C.ar      1 RES1    0.0000
     26 C12       11.7595    1.1942    5.6392 C.ar      1 RES1    0.0000
     27 H7        11.7701    2.0940    5.4029 H         1 RES1    0.0000
     28 C13       11.8838    0.2310    4.6668 C.ar      1 RES1    0.0000
     29 H8        11.9776    0.4642    3.7707 H         1 RES1    0.0000
     30 C14       11.8656   -1.0802    5.0518 C.ar      1 RES1    0.0000
     31 C15       11.7178   -1.4757    6.3634 C.ar      1 RES1    0.0000
     32 H9        11.6997   -2.3778    6.5900 H         1 RES1    0.0000
     33 C16       11.5971   -0.5020    7.3284 C.ar      1 RES1    0.0000
     34 H10       11.5015   -0.7443    8.2222 H         1 RES1    0.0000
@<TRIPOS>BOND
     1    1    9 2
     2    2   20 2
     3    3   21 1
     4    4   24 2
     5    5    8 2
     6    6    8 2
     7    7    9 1
     8    8   30 1
     9    9   10 1
    10   10   11 ar
    11   11   12 1
    12   13   11 ar
    13   14   13 1
    14   15   13 ar
    15   16   15 1
    16   17   15 ar
    17   18   17 1
    18   19   10 ar
    19   20    7 1
    20   21    7 1
    21   22   21 1
    22   23   21 1
    23   24    3 1
    24   25   24 1
    25   26   25 ar
    26   27   26 1
    27   28   26 ar
    28   29   28 1
    29   30   28 ar
    30   31   30 ar
    31   32   31 1
    32   33   25 ar
    33   34   33 1
    34   17   19 ar
    35   19   20 1
    36   31   33 ar
@<TRIPOS>SUBSTRUCTURE
     1 RES1 1

@<TRIPOS>CRYSIN
  13.2981    7.5485   29.0950  90.0000  90.0000  90.0000  60 1

