# MOL2 file generated by ConQuest
# Please check atom types

@<TRIPOS>MOLECULE
OSIFUS
    37    37     1
SMALL
NO_CHARGES
****
Generated from CSD

@<TRIPOS>ATOM
      1 C1        -2.7566    2.6625    9.8746 C.2       1 RES1    0.0000
      2 N1        -2.3871    3.9992    9.7500 N.3       1 RES1    0.0000
      3 O1        -2.6122    4.7835    8.7702 O.2       1 RES1    0.0000
      4 C2        -1.7706    4.4319   11.0441 C.3       1 RES1    0.0000
      5 C3        -1.4563    3.0326   11.6602 C.3       1 RES1    0.0000
      6 N2        -2.3537    2.0782   10.9368 N.2       1 RES1    0.0000
      7 C4        -2.8389    5.2186   11.7987 C.3       1 RES1    0.0000
      8 H1        -3.6364    4.6478   12.0060 H         1 RES1    0.0000
      9 H2        -3.1357    5.9929   11.2284 H         1 RES1    0.0000
     10 H3        -2.4782    5.5763   12.6423 H         1 RES1    0.0000
     11 C5        -0.5659    5.3193   10.7665 C.3       1 RES1    0.0000
     12 H4        -0.1485    5.5710   11.6054 H         1 RES1    0.0000
     13 H5         0.1200    4.8667   10.1680 H         1 RES1    0.0000
     14 H6        -0.8662    6.1711   10.3447 H         1 RES1    0.0000
     15 C6        -1.7114    2.9357   13.1548 C.3       1 RES1    0.0000
     16 H7        -1.1247    3.6275   13.6437 H         1 RES1    0.0000
     17 H8        -2.6606    3.1579   13.3845 H         1 RES1    0.0000
     18 H9        -1.5067    2.0459   13.4434 H         1 RES1    0.0000
     19 C7        -0.0352    2.5410   11.3639 C.3       1 RES1    0.0000
     20 H10        0.1695    2.6037   10.3919 H         1 RES1    0.0000
     21 H11        0.6226    3.0609   11.8646 H         1 RES1    0.0000
     22 H12        0.0553    1.6010   11.6172 H         1 RES1    0.0000
     23 N3        -3.4994    2.0443    8.8571 N.3       1 RES1    0.0000
     24 O2        -4.4645    2.7094    8.3394 O.2       1 RES1    0.0000
     25 C8        -3.2806    0.6056    8.4779 C.3       1 RES1    0.0000
     26 C9        -3.8559    0.4281    7.0775 C.3       1 RES1    0.0000
     27 H13       -3.6814   -0.5119    6.8101 H         1 RES1    0.0000
     28 H14       -3.3793    1.0168    6.4566 H         1 RES1    0.0000
     29 H15       -4.8455    0.6355    7.0575 H         1 RES1    0.0000
     30 C10       -4.0107   -0.2793    9.4740 C.3       1 RES1    0.0000
     31 H16       -3.6586   -0.1395   10.4390 H         1 RES1    0.0000
     32 H17       -4.9755   -0.0635    9.4375 H         1 RES1    0.0000
     33 H18       -3.8973   -1.2498    9.2254 H         1 RES1    0.0000
     34 C11       -1.7814    0.3154    8.4702 C.3       1 RES1    0.0000
     35 H19       -1.3982    0.3672    9.3904 H         1 RES1    0.0000
     36 H20       -1.6303   -0.6125    8.1061 H         1 RES1    0.0000
     37 H21       -1.3044    0.9973    7.8587 H         1 RES1    0.0000
@<TRIPOS>BOND
     1    1    2 1
     2    2    3 1
     3    4    2 1
     4    5    4 1
     5    6    1 2
     6    7    4 1
     7    8    7 1
     8    9    7 1
     9   10    7 1
    10   11    4 1
    11   12   11 1
    12   13   11 1
    13   14   11 1
    14   15    5 1
    15   16   15 1
    16   17   15 1
    17   18   15 1
    18   19    5 1
    19   20   19 1
    20   21   19 1
    21   22   19 1
    22   23    1 1
    23   24   23 1
    24   25   23 1
    25   26   25 1
    26   27   26 1
    27   28   26 1
    28   29   26 1
    29   30   25 1
    30   31   30 1
    31   32   30 1
    32   33   30 1
    33   34   25 1
    34   35   34 1
    35   36   34 1
    36   37   34 1
    37    5    6 1
@<TRIPOS>SUBSTRUCTURE
     1 RES1 1

@<TRIPOS>CRYSIN
   6.1180   17.6520   12.4940  90.0000 109.4340  90.0000  14 1

