# MOL2 file generated by ConQuest
# Please check atom types

@<TRIPOS>MOLECULE
OSIGAZ
    38    38     1
SMALL
NO_CHARGES
****
Generated from CSD

@<TRIPOS>ATOM
      1 C1         7.0633   -0.1144    1.9049 C.2       1 RES1    0.0000
      2 N1         5.8218   -0.3946    1.4673 N.3       1 RES1    0.0000
      3 C2         5.1342    0.8504    0.9729 C.3       1 RES1    0.0000
      4 C3         6.3533    1.8131    0.7638 C.3       1 RES1    0.0000
      5 N2         7.3864    1.1570    1.6440 N.pl3     1 RES1    0.0000
      6 O1         5.2342   -1.5246    1.5459 O.2       1 RES1    0.0000
      7 O2         8.4707    1.7317    1.9811 O.2       1 RES1    0.0000
      8 C4         4.1878    1.2759    2.0896 C.3       1 RES1    0.0000
      9 H1         3.6824    2.1020    1.7739 H         1 RES1    0.0000
     10 H2         3.5870    0.5796    2.2494 H         1 RES1    0.0000
     11 H3         4.6654    1.5104    2.8894 H         1 RES1    0.0000
     12 C5         4.3516    0.5261   -0.2877 C.3       1 RES1    0.0000
     13 H4         4.8734    0.0571   -0.8961 H         1 RES1    0.0000
     14 H5         3.9719    1.3543   -0.6157 H         1 RES1    0.0000
     15 H6         3.6373   -0.0721   -0.0671 H         1 RES1    0.0000
     16 C6         6.1163    3.2380    1.2332 C.3       1 RES1    0.0000
     17 H7         5.8408    3.2521    2.2433 H         1 RES1    0.0000
     18 H8         5.4178    3.6064    0.6766 H         1 RES1    0.0000
     19 H9         6.8828    3.7536    1.1094 H         1 RES1    0.0000
     20 C7         6.9216    1.8029   -0.6516 C.3       1 RES1    0.0000
     21 H10        7.1741    0.9009   -0.9814 H         1 RES1    0.0000
     22 H11        7.7912    2.2822   -0.6279 H         1 RES1    0.0000
     23 H12        6.2465    2.3332   -1.2557 H         1 RES1    0.0000
     24 N3         7.8635   -1.0027    2.6157 N.3       1 RES1    0.0000
     25 O3         7.4360   -1.3294    3.7788 O.2       1 RES1    0.0000
     26 C8         9.0317   -1.7305    2.0104 C.3       1 RES1    0.0000
     27 C9         8.6668   -3.2071    1.9726 C.3       1 RES1    0.0000
     28 H13        9.3811   -3.6305    1.5605 H         1 RES1    0.0000
     29 H14        7.8901   -3.3182    1.4203 H         1 RES1    0.0000
     30 H15        8.5194   -3.5073    2.9199 H         1 RES1    0.0000
     31 C10       10.2391   -1.5011    2.9028 C.3       1 RES1    0.0000
     32 H16       11.0402   -2.0720    2.5176 H         1 RES1    0.0000
     33 H17       10.4976   -0.4714    2.9382 H         1 RES1    0.0000
     34 H18       10.1005   -1.8978    3.7794 H         1 RES1    0.0000
     35 C11        9.2805   -1.1759    0.6199 C.3       1 RES1    0.0000
     36 H19        8.4553   -1.2822    0.0488 H         1 RES1    0.0000
     37 H20        9.4660   -0.0661    0.6705 H         1 RES1    0.0000
     38 H21       10.1075   -1.7357    0.2377 H         1 RES1    0.0000
@<TRIPOS>BOND
     1    1    2 1
     2    2    3 1
     3    3    4 1
     4    4    5 1
     5    5    1 2
     6    6    2 1
     7    7    5 1
     8    8    3 1
     9    9    8 1
    10   10    8 1
    11   11    8 1
    12   12    3 1
    13   13   12 1
    14   14   12 1
    15   15   12 1
    16   16    4 1
    17   17   16 1
    18   18   16 1
    19   19   16 1
    20   20    4 1
    21   21   20 1
    22   22   20 1
    23   23   20 1
    24   24    1 1
    25   25   24 1
    26   26   24 1
    27   27   26 1
    28   28   27 1
    29   29   27 1
    30   30   27 1
    31   31   26 1
    32   32   31 1
    33   33   31 1
    34   34   31 1
    35   35   26 1
    36   36   35 1
    37   37   35 1
    38   38   35 1
@<TRIPOS>SUBSTRUCTURE
     1 RES1 1

@<TRIPOS>CRYSIN
  34.6740   34.6740    6.0958  90.0000  90.0000 120.0000 233 1

