# MOL2 file generated by ConQuest
# Please check atom types

@<TRIPOS>MOLECULE
OSIHAB
    27    29     1
SMALL
NO_CHARGES
****
Generated from CSD

@<TRIPOS>ATOM
      1 O1         6.5182    0.7247    7.8835 O.2       1 RES1    0.0000
      2 N1         7.8435    4.3220    9.3916 N.3       1 RES1    0.0000
      3 O2         6.8086    0.0375    9.9268 O.2       1 RES1    0.0000
      4 N2         6.8437    0.9106    9.0562 N.pl3     1 RES1    0.0000
      5 N3         7.1247    3.5026    7.2309 N.pl3     1 RES1    0.0000
      6 C1         7.2862    2.2211    9.4190 C.2       1 RES1    0.0000
      7 N4         6.0741    4.2231    6.8123 N.2       1 RES1    0.0000
      8 C2         7.7928    2.9612    3.8093 C.3       1 RES1    0.0000
      9 H1         8.7146    2.5741    3.7857 H         1 RES1    0.0000
     10 N5         7.6554    2.5340   10.7006 N.2       1 RES1    0.0000
     11 C3         7.8857    2.9578    6.2547 C.2       1 RES1    0.0000
     12 H2         8.6670    2.4249    6.3441 H         1 RES1    0.0000
     13 C4         7.3916    3.3040    8.5909 C.2       1 RES1    0.0000
     14 C5         7.9794    3.8002   10.6369 C.2       1 RES1    0.0000
     15 H3         8.2791    4.3024   11.3853 H         1 RES1    0.0000
     16 C6         6.8070    2.4070    2.8133 C.3       1 RES1    0.0000
     17 H4         7.1169    1.6848    2.2107 H         1 RES1    0.0000
     18 H5         5.8594    2.3388    3.0918 H         1 RES1    0.0000
     19 N6         6.1529    4.1234    5.4960 N.2       1 RES1    0.0000
     20 C7         7.3760    3.7738    2.6119 C.3       1 RES1    0.0000
     21 H6         6.7797    4.5488    2.7645 H         1 RES1    0.0000
     22 H7         8.0371    3.8949    1.8834 H         1 RES1    0.0000
     23 C8         7.2784    3.3492    5.1417 C.2       1 RES1    0.0000
     24 C9         8.1620    5.6871    8.9670 C.3       1 RES1    0.0000
     25 H8         8.5741    6.1731    9.7112 H         1 RES1    0.0000
     26 H9         7.3393    6.1441    8.6932 H         1 RES1    0.0000
     27 H10        8.7849    5.6564    8.2102 H         1 RES1    0.0000
@<TRIPOS>BOND
     1    1    4 2
     2    2   13 1
     3    3    4 2
     4    4    6 1
     5    5    7 1
     6    6   10 1
     7    7   19 2
     8    8    9 1
     9   10   14 2
    10   11    5 1
    11   12   11 1
    12   13    5 1
    13   14    2 1
    14   15   14 1
    15   16    8 1
    16   17   16 1
    17   18   16 1
    18   19   23 1
    19   20    8 1
    20   21   20 1
    21   22   20 1
    22   23    8 1
    23   24    2 1
    24   25   24 1
    25   26   24 1
    26   27   24 1
    27    6   13 2
    28   11   23 2
    29   16   20 1
@<TRIPOS>SUBSTRUCTURE
     1 RES1 1

@<TRIPOS>CRYSIN
   7.8053    8.5264   15.7343  90.0000  90.0000  90.0000  19 1

