# MOL2 file generated by ConQuest
# Please check atom types

@<TRIPOS>MOLECULE
OTEYET
    60    63     1
SMALL
NO_CHARGES
****
Generated from CSD

@<TRIPOS>ATOM
      1 N1         3.0840    7.0191   34.6441 N.3       1 RES1    0.0000
      2 O1         3.7701    6.1678   35.6605 O.3       1 RES1    0.0000
      3 O2         2.8597    2.4677   33.8391 O.2       1 RES1    0.0000
      4 C1         5.7546    5.1008   37.7570 C.ar      1 RES1    0.0000
      5 H1         6.2888    5.4629   37.0611 H         1 RES1    0.0000
      6 C2         6.0329    5.4302   39.0767 C.ar      1 RES1    0.0000
      7 H2         6.7537    6.0163   39.2760 H         1 RES1    0.0000
      8 C3         5.2647    4.9076   40.0955 C.ar      1 RES1    0.0000
      9 H3         5.4497    5.1355   40.9996 H         1 RES1    0.0000
     10 C4         4.2289    4.0537   39.7971 C.ar      1 RES1    0.0000
     11 H4         3.7044    3.6852   40.5002 H         1 RES1    0.0000
     12 C5         3.9434    3.7266   38.4742 C.ar      1 RES1    0.0000
     13 H5         3.2216    3.1416   38.2773 H         1 RES1    0.0000
     14 C6         4.7075    4.2506   37.4429 C.ar      1 RES1    0.0000
     15 C7         4.4032    3.8848   35.9996 C.3       1 RES1    0.0000
     16 H6         5.2586    3.7695   35.5147 H         1 RES1    0.0000
     17 H7         3.9312    3.0141   35.9859 H         1 RES1    0.0000
     18 C8         3.5703    4.8934   35.2691 C.2       1 RES1    0.0000
     19 C9         2.6492    4.7656   34.2877 C.2       1 RES1    0.0000
     20 C10        2.0579    6.1357   34.0271 C.3       1 RES1    0.0000
     21 H8         1.1898    6.2302   34.5160 H         1 RES1    0.0000
     22 C11        1.8886    6.5641   32.5778 C.ar      1 RES1    0.0000
     23 C12        2.7690    6.1370   31.5960 C.ar      1 RES1    0.0000
     24 H9         3.4887    5.5591   31.8219 H         1 RES1    0.0000
     25 C13        2.5951    6.5577   30.2791 C.ar      1 RES1    0.0000
     26 H10        3.1839    6.2464   29.6030 H         1 RES1    0.0000
     27 C14        1.5710    7.4233   29.9550 C.ar      1 RES1    0.0000
     28 H11        1.4604    7.7140   29.0553 H         1 RES1    0.0000
     29 C15        0.7096    7.8675   30.9327 C.ar      1 RES1    0.0000
     30 H12        0.0148    8.4770   30.7104 H         1 RES1    0.0000
     31 C16        0.8564    7.4234   32.2492 C.ar      1 RES1    0.0000
     32 H13        0.2472    7.7119   32.9173 H         1 RES1    0.0000
     33 C17        2.2312    3.5053   33.6744 C.2       1 RES1    0.0000
     34 C18        0.9910    3.5033   32.8142 C.3       1 RES1    0.0000
     35 H14        1.2372    3.6992   31.8863 H         1 RES1    0.0000
     36 H15        0.3675    4.1866   33.1388 H         1 RES1    0.0000
     37 H16        0.5633    2.6229   32.8609 H         1 RES1    0.0000
     38 C19        2.5054    8.1395   35.4072 C.3       1 RES1    0.0000
     39 H17        2.0553    7.7897   36.2154 H         1 RES1    0.0000
     40 H18        1.8264    8.6002   34.8543 H         1 RES1    0.0000
     41 C20        3.5769    9.1241   35.8123 C.ar      1 RES1    0.0000
     42 C21        4.0795   10.0099   34.8478 C.ar      1 RES1    0.0000
     43 C22        5.0863   10.9072   35.2050 C.ar      1 RES1    0.0000
     44 H19        5.4299   11.5019   34.5482 H         1 RES1    0.0000
     45 C23        5.6006   10.9557   36.4941 C.ar      1 RES1    0.0000
     46 C24        5.0822   10.0768   37.4421 C.ar      1 RES1    0.0000
     47 H20        5.4222   10.1024   38.3297 H         1 RES1    0.0000
     48 C25        4.0800    9.1612   37.1272 C.ar      1 RES1    0.0000
     49 C26        3.5479    8.2475   38.2113 C.3       1 RES1    0.0000
     50 H21        4.0306    8.4165   39.0465 H         1 RES1    0.0000
     51 H22        3.6763    7.3131   37.9431 H         1 RES1    0.0000
     52 H23        2.5926    8.4208   38.3458 H         1 RES1    0.0000
     53 C27        3.5295   10.0531   33.4392 C.3       1 RES1    0.0000
     54 H24        2.6247   10.4288   33.4529 H         1 RES1    0.0000
     55 H25        3.5005    9.1449   33.0703 H         1 RES1    0.0000
     56 H26        4.1071   10.6136   32.8810 H         1 RES1    0.0000
     57 C28        6.6808   11.9426   36.8509 C.3       1 RES1    0.0000
     58 H27        6.9331   12.4529   36.0544 H         1 RES1    0.0000
     59 H28        7.4632   11.4608   37.1900 H         1 RES1    0.0000
     60 H29        6.3484   12.5556   37.5403 H         1 RES1    0.0000
@<TRIPOS>BOND
     1    1    2 1
     2    2   18 1
     3    3   33 2
     4    4    5 1
     5    6    4 ar
     6    7    6 1
     7    8    6 ar
     8    9    8 1
     9   10    8 ar
    10   11   10 1
    11   12   10 ar
    12   13   12 1
    13   14    4 ar
    14   15   14 1
    15   16   15 1
    16   17   15 1
    17   18   15 1
    18   19   18 2
    19   20    1 1
    20   21   20 1
    21   22   20 1
    22   23   22 ar
    23   24   23 1
    24   25   23 ar
    25   26   25 1
    26   27   25 ar
    27   28   27 1
    28   29   27 ar
    29   30   29 1
    30   31   22 ar
    31   32   31 1
    32   33   19 1
    33   34   33 1
    34   35   34 1
    35   36   34 1
    36   37   34 1
    37   38    1 1
    38   39   38 1
    39   40   38 1
    40   41   38 1
    41   42   41 ar
    42   43   42 ar
    43   44   43 1
    44   45   43 ar
    45   46   45 ar
    46   47   46 1
    47   48   41 ar
    48   49   48 1
    49   50   49 1
    50   51   49 1
    51   52   49 1
    52   53   42 1
    53   54   53 1
    54   55   53 1
    55   56   53 1
    56   57   45 1
    57   58   57 1
    58   59   57 1
    59   60   57 1
    60   12   14 ar
    61   19   20 1
    62   29   31 ar
    63   46   48 ar
@<TRIPOS>SUBSTRUCTURE
     1 RES1 1

@<TRIPOS>CRYSIN
   5.0975   10.8070   40.2707  90.0000  90.0000  90.0000  19 1

