# MOL2 file generated by ConQuest
# Please check atom types

@<TRIPOS>MOLECULE
OTIBAW
    63    64     2
SMALL
NO_CHARGES
****
Generated from CSD

@<TRIPOS>ATOM
      1 C1        12.1357    9.3295    4.1552 C.ar      1 RES1    0.0000
      2 C2        11.0699    8.4534    4.3001 C.ar      1 RES1    0.0000
      3 H1        10.5425    8.4692    5.0898 H         1 RES1    0.0000
      4 C3        10.7821    7.5566    3.2884 C.ar      1 RES1    0.0000
      5 C4        11.6262    7.4631    2.1775 C.ar      1 RES1    0.0000
      6 C5        12.7371    8.2762    2.0665 C.ar      1 RES1    0.0000
      7 H2        13.3339    8.1816    1.3329 H         1 RES1    0.0000
      8 C6        12.9648    9.2191    3.0303 C.ar      1 RES1    0.0000
      9 C7        10.3218   10.5309    8.0336 C.ar      1 RES1    0.0000
     10 C8        10.7935   10.6195    6.7252 C.ar      1 RES1    0.0000
     11 H3        10.2754   11.0600    6.0605 H         1 RES1    0.0000
     12 C9        12.0077   10.0674    6.4028 C.ar      1 RES1    0.0000
     13 C10       12.7865    9.4509    7.3631 C.ar      1 RES1    0.0000
     14 C11       12.3478    9.3951    8.6738 C.ar      1 RES1    0.0000
     15 H4        12.8834    8.9788    9.3373 H         1 RES1    0.0000
     16 C12       11.1347    9.9448    9.0137 C.ar      1 RES1    0.0000
     17 C13        6.7511   10.3319    5.6961 C.ar      1 RES1    0.0000
     18 C14        7.6498   10.1353    6.7171 C.ar      1 RES1    0.0000
     19 H5         7.8888    9.2531    6.9764 H         1 RES1    0.0000
     20 C15        8.2017   11.2190    7.3654 C.ar      1 RES1    0.0000
     21 C16        7.8544   12.4956    7.0044 C.ar      1 RES1    0.0000
     22 C17        6.9648   12.7189    5.9577 C.ar      1 RES1    0.0000
     23 H6         6.7457   13.6023    5.6879 H         1 RES1    0.0000
     24 C18        6.4103   11.6279    5.3234 C.ar      1 RES1    0.0000
     25 C19        8.5771    6.7945    3.9835 C.ar      1 RES1    0.0000
     26 C20        8.0124    8.0323    4.2791 C.ar      1 RES1    0.0000
     27 H7         8.4812    8.8344    4.0781 H         1 RES1    0.0000
     28 C21        6.7584    8.0820    4.8702 C.ar      1 RES1    0.0000
     29 C22        6.0968    6.9134    5.1984 C.ar      1 RES1    0.0000
     30 C23        6.6513    5.6938    4.9134 C.ar      1 RES1    0.0000
     31 H8         6.2038    4.8929    5.1587 H         1 RES1    0.0000
     32 C24        7.8710    5.6417    4.2650 C.ar      1 RES1    0.0000
     33 N1        11.4020    6.4559    1.1378 N.pl3     1 RES1    0.0000
     34 N2        14.1029   10.1256    2.8796 N.pl3     1 RES1    0.0000
     35 N3        14.0938    8.8854    7.0488 N.pl3     1 RES1    0.0000
     36 N4        10.6900    9.8562   10.4120 N.pl3     1 RES1    0.0000
     37 N5         5.4157   11.8925    4.2721 N.pl3     1 RES1    0.0000
     38 N6         4.7509    6.8673    5.7989 N.pl3     1 RES1    0.0000
     39 N7         8.3360    4.3165    3.8527 N.pl3     1 RES1    0.0000
     40 O1        12.4595   10.2627    5.1038 O.3       1 RES1    0.0000
     41 O2        10.2605    6.2885    0.7348 O.2       1 RES1    0.0000
     42 O3        12.3673    5.8467    0.7254 O.2       1 RES1    0.0000
     43 O4        15.1268    9.6693    2.3796 O.2       1 RES1    0.0000
     44 O5        13.9557   11.2894    3.2394 O.2       1 RES1    0.0000
     45 O6         9.0916   10.9945    8.4051 O.3       1 RES1    0.0000
     46 O7        14.3450    8.6196    5.8760 O.2       1 RES1    0.0000
     47 O8        14.8747    8.7216    7.9647 O.2       1 RES1    0.0000
     48 O9        10.8810    8.8138   10.9938 O.2       1 RES1    0.0000
     49 O10       10.1497   10.8525   10.8933 O.2       1 RES1    0.0000
     50 O11        6.1093    9.3004    5.0559 O.3       1 RES1    0.0000
     51 O12        5.7414   12.6631    3.3807 O.2       1 RES1    0.0000
     52 O13        4.3421   11.3294    4.3749 O.2       1 RES1    0.0000
     53 O14        9.7779    6.6307    3.3655 O.3       1 RES1    0.0000
     54 O15        3.9717    7.7908    5.5582 O.2       1 RES1    0.0000
     55 O16        4.5018    5.9159    6.5080 O.2       1 RES1    0.0000
     56 O17        7.9316    3.3445    4.4683 O.2       1 RES1    0.0000
     57 O18        9.0652    4.2328    2.8667 O.2       1 RES1    0.0000
     58 N8         8.3378   13.6509    7.7860 N.pl3     1 RES1    0.0000
     59 O19        8.6469   13.4579    8.9682 O.2       1 RES1    0.0000
     60 O20        8.3649   14.7443    7.2474 O.2       1 RES1    0.0000
     61 N9         8.5225   13.7261    7.4997 Du        2 SUP2    0.0000
     62 O21        9.5236   13.5939    8.2007 Du        2 SUP2    0.0000
     63 O22        8.0374   14.8062    7.1727 Du        2 SUP2    0.0000
@<TRIPOS>BOND
     1    1    2 ar
     2    2    3 1
     3    4    2 ar
     4    5    4 ar
     5    6    5 ar
     6    7    6 1
     7    8    1 ar
     8    9   10 ar
     9   10   11 1
    10   12   10 ar
    11   13   12 ar
    12   14   13 ar
    13   15   14 1
    14   16    9 ar
    15   17   18 ar
    16   18   19 1
    17   20   18 ar
    18   21   20 ar
    19   22   21 ar
    20   23   22 1
    21   24   17 ar
    22   25   26 ar
    23   26   27 1
    24   28   26 ar
    25   29   28 ar
    26   30   29 ar
    27   31   30 1
    28   32   25 ar
    29   33    5 1
    30   34    8 1
    31   35   13 1
    32   36   16 1
    33   37   24 1
    34   38   29 1
    35   39   32 1
    36   40    1 1
    37   41   33 2
    38   42   33 2
    39   43   34 2
    40   44   34 2
    41   45    9 1
    42   46   35 2
    43   47   35 2
    44   48   36 2
    45   49   36 2
    46   50   17 1
    47   51   37 2
    48   52   37 2
    49   53    4 1
    50   54   38 2
    51   55   38 2
    52   56   39 2
    53   57   39 2
    54   58   21 1
    55   59   58 2
    56   60   58 2
    57    6    8 ar
    58   12   40 1
    59   14   16 ar
    60   20   45 1
    61   22   24 ar
    62   25   53 1
    63   28   50 1
    64   30   32 ar
@<TRIPOS>SUBSTRUCTURE
     1 RES1 1
     2 SUP2 61

@<TRIPOS>CRYSIN
  19.4680   12.1352   11.6945  90.0000  92.6650  90.0000   9 1

