# MOL2 file generated by ConQuest
# Please check atom types

@<TRIPOS>MOLECULE
OTOGOU
    55    59     1
SMALL
NO_CHARGES
****
Generated from CSD

@<TRIPOS>ATOM
      1 C1        -4.5912   -0.3889    6.5458 C.ar      1 RES1    0.0000
      2 H1        -5.1937   -0.7555    7.1523 H         1 RES1    0.0000
      3 C2        -5.0206   -0.0228    5.2902 C.ar      1 RES1    0.0000
      4 H2        -5.9091   -0.1549    5.0511 H         1 RES1    0.0000
      5 C3        -4.1502    0.5354    4.3864 C.ar      1 RES1    0.0000
      6 H3        -4.4482    0.7776    3.5393 H         1 RES1    0.0000
      7 C4        -2.8508    0.7317    4.7359 C.ar      1 RES1    0.0000
      8 H4        -2.2610    1.1196    4.1308 H         1 RES1    0.0000
      9 C5        -2.4047    0.3547    5.9911 C.ar      1 RES1    0.0000
     10 H5        -1.5121    0.4864    6.2174 H         1 RES1    0.0000
     11 C6        -3.2617   -0.2133    6.9119 C.ar      1 RES1    0.0000
     12 C7        -2.7887   -0.6405    8.2520 C.2       1 RES1    0.0000
     13 C8        -1.3242   -0.9508    8.4650 C.3       1 RES1    0.0000
     14 H6        -0.9251   -1.1045    7.5829 H         1 RES1    0.0000
     15 C9        -1.1197   -2.2171    9.2849 C.2       1 RES1    0.0000
     16 C10       -0.0251   -0.5640   10.5044 C.3       1 RES1    0.0000
     17 H7         0.9219   -0.4330   10.6688 H         1 RES1    0.0000
     18 H8        -0.5252   -0.2076   11.2561 H         1 RES1    0.0000
     19 C11       -0.4494    0.1252    9.1942 C.3       1 RES1    0.0000
     20 C12       -0.0643   -2.9091   11.3743 C.3       1 RES1    0.0000
     21 H9        -0.5375   -2.6400   12.1650 H         1 RES1    0.0000
     22 H10        0.8776   -2.9363   11.5591 H         1 RES1    0.0000
     23 H11       -0.3630   -3.7800   11.1025 H         1 RES1    0.0000
     24 C13       -1.0270    1.4974    9.3862 C.ar      1 RES1    0.0000
     25 C14       -2.0311    1.9477   10.2062 C.ar      1 RES1    0.0000
     26 H12       -2.5013    1.3564   10.7477 H         1 RES1    0.0000
     27 C15       -2.3310    3.3067   10.2108 C.ar      1 RES1    0.0000
     28 H13       -2.9991    3.6293   10.7715 H         1 RES1    0.0000
     29 C16       -1.6504    4.1727    9.3966 C.ar      1 RES1    0.0000
     30 H14       -1.8839    5.0734    9.3946 H         1 RES1    0.0000
     31 C17       -0.6240    3.7392    8.5771 C.ar      1 RES1    0.0000
     32 H15       -0.1665    4.3292    8.0218 H         1 RES1    0.0000
     33 C18       -0.3050    2.3979    8.6148 C.ar      1 RES1    0.0000
     34 C19        0.7647    0.4138    8.2944 C.2       1 RES1    0.0000
     35 C20        1.7364    2.3594    7.0933 C.3       1 RES1    0.0000
     36 H16        2.5229    1.7943    7.0413 H         1 RES1    0.0000
     37 H17        2.0059    3.2113    7.4709 H         1 RES1    0.0000
     38 C21        1.1918    2.5789    5.7128 C.ar      1 RES1    0.0000
     39 C22        0.8175    3.8216    5.2677 C.ar      1 RES1    0.0000
     40 H18        0.9385    4.5632    5.8159 H         1 RES1    0.0000
     41 C23        0.2597    3.9838    4.0085 C.ar      1 RES1    0.0000
     42 H19       -0.0083    4.8283    3.7251 H         1 RES1    0.0000
     43 C24        0.1024    2.9055    3.1827 C.ar      1 RES1    0.0000
     44 H20       -0.2791    3.0136    2.3419 H         1 RES1    0.0000
     45 C25        0.5058    1.6721    3.5970 C.ar      1 RES1    0.0000
     46 H21        0.4187    0.9431    3.0267 H         1 RES1    0.0000
     47 C26        1.0442    1.4972    4.8538 C.ar      1 RES1    0.0000
     48 H22        1.3099    0.6493    5.1290 H         1 RES1    0.0000
     49 N1        -3.6903   -0.7703    9.1500 N.2       1 RES1    0.0000
     50 N2        -0.3198   -1.9607   10.3145 N.am      1 RES1    0.0000
     51 N3         0.7487    1.7335    7.9702 N.am      1 RES1    0.0000
     52 O1        -3.1500   -1.1441   10.3823 O.3       1 RES1    0.0000
     53 H23       -3.7527   -1.2188   10.9334 H         1 RES1    0.0000
     54 O2        -1.5814   -3.3160    8.9864 O.2       1 RES1    0.0000
     55 O3         1.5720   -0.4021    7.9034 O.2       1 RES1    0.0000
@<TRIPOS>BOND
     1    1    2 1
     2    3    1 ar
     3    4    3 1
     4    5    3 ar
     5    6    5 1
     6    7    5 ar
     7    8    7 1
     8    9    7 ar
     9   10    9 1
    10   11    1 ar
    11   12   11 1
    12   13   12 1
    13   14   13 1
    14   15   13 1
    15   16   17 1
    16   18   16 1
    17   19   13 1
    18   20   21 1
    19   22   20 1
    20   23   20 1
    21   24   19 1
    22   25   24 ar
    23   26   25 1
    24   27   25 ar
    25   28   27 1
    26   29   27 ar
    27   30   29 1
    28   31   29 ar
    29   32   31 1
    30   33   24 ar
    31   34   19 1
    32   35   36 1
    33   37   35 1
    34   38   35 1
    35   39   38 ar
    36   40   39 1
    37   41   39 ar
    38   42   41 1
    39   43   41 ar
    40   44   43 1
    41   45   43 ar
    42   46   45 1
    43   47   38 ar
    44   48   47 1
    45   49   12 2
    46   50   15 1
    47   51   33 1
    48   52   49 1
    49   53   52 1
    50   54   15 2
    51   55   34 2
    52    9   11 ar
    53   16   19 1
    54   16   50 1
    55   20   50 1
    56   31   33 ar
    57   34   51 1
    58   35   51 1
    59   45   47 ar
@<TRIPOS>SUBSTRUCTURE
     1 RES1 1

@<TRIPOS>CRYSIN
   9.7946   10.7754   11.2618 102.1520 107.4440  96.7480   2 1

