# MOL2 file generated by ConQuest
# Please check atom types

@<TRIPOS>MOLECULE
OVAJOM
    58    39     2
SMALL
NO_CHARGES
****
Generated from CSD

@<TRIPOS>ATOM
      1 C1        -0.0293    7.1880   10.0579 C.ar      1 RES1    0.0000
      2 C2         0.8996    6.1926   10.2974 C.ar      1 RES1    0.0000
      3 H1         0.7416    5.5413   10.9414 H         1 RES1    0.0000
      4 C3         0.1669    8.1684    9.1163 C.ar      1 RES1    0.0000
      5 H2        -0.4751    8.8257    8.9703 H         1 RES1    0.0000
      6 C4         2.0657    6.1876    9.5609 C.ar      1 RES1    0.0000
      7 H3         2.7029    5.5283    9.7154 H         1 RES1    0.0000
      8 C5         1.3486    8.1554    8.3864 C.ar      1 RES1    0.0000
      9 H4         1.5065    8.8197    7.7557 H         1 RES1    0.0000
     10 C6         2.3004    7.1570    8.5887 C.ar      1 RES1    0.0000
     11 C7         3.5774    7.2120    7.7977 C.2       1 RES1    0.0000
     12 C8         3.2354    4.7820    7.1423 C.3       1 RES1    0.0000
     13 H5         3.4831    4.0857    7.7701 H         1 RES1    0.0000
     14 H6         2.2927    4.9831    7.2548 H         1 RES1    0.0000
     15 C9         5.4545    5.9095    6.7091 C.3       1 RES1    0.0000
     16 H7         6.1139    5.5103    7.2978 H         1 RES1    0.0000
     17 H8         5.7841    6.7538    6.3637 H         1 RES1    0.0000
     18 C10        3.5127    4.3588    5.7627 C.3       1 RES1    0.0000
     19 H9         2.8900    4.7880    5.1396 H         1 RES1    0.0000
     20 C11        4.9795    4.9171    5.5537 C.3       1 RES1    0.0000
     21 H10        5.1145    5.2912    4.6578 H         1 RES1    0.0000
     22 C12        3.5977    2.8672    5.4879 C.3       1 RES1    0.0000
     23 H11        3.0156    2.6231    4.7513 H         1 RES1    0.0000
     24 H12        3.3341    2.3610    6.2731 H         1 RES1    0.0000
     25 C13        7.1673    3.8646    5.2961 C.3       1 RES1    0.0000
     26 H13        7.1614    3.9927    4.3449 H         1 RES1    0.0000
     27 H14        7.6756    3.0793    5.5108 H         1 RES1    0.0000
     28 H15        7.5648    4.6289    5.7197 H         1 RES1    0.0000
     29 C14        5.0510    2.5831    5.1349 C.3       1 RES1    0.0000
     30 H16        5.3380    1.7277    5.4907 H         1 RES1    0.0000
     31 H17        5.1861    2.5881    4.1741 H         1 RES1    0.0000
     32 N1        -1.2857    7.1740   10.8336 N.pl3     1 RES1    0.0000
     33 N2         4.0877    6.0385    7.3627 N.am      1 RES1    0.0000
     34 N3         5.7739    3.6986    5.7808 N.3       1 RES1    0.0000
     35 O1        -1.5418    6.2046   11.5272 O.2       1 RES1    0.0000
     36 O2        -2.0167    8.1484   10.7296 O.2       1 RES1    0.0000
     37 O3         4.1279    8.2875    7.5907 O.2       1 RES1    0.0000
     38 C15        3.4795    4.7590    7.1947 Du        2 SUP2    0.0000
     39 H18        2.5143    4.8340    7.1299 Du        2 SUP2    0.0000
     40 H19        3.7042    4.1637    7.9265 Du        2 SUP2    0.0000
     41 C16        5.2004    6.0615    6.4897 Du        2 SUP2    0.0000
     42 H20        5.9980    5.9845    7.0364 Du        2 SUP2    0.0000
     43 H21        5.2253    6.9379    6.0756 Du        2 SUP2    0.0000
     44 C17        4.1215    4.2498    5.8066 Du        2 SUP2    0.0000
     45 H22        3.4561    4.2398    5.0872 Du        2 SUP2    0.0000
     46 C18        5.3077    5.0921    5.4411 Du        2 SUP2    0.0000
     47 H23        5.0756    5.5553    4.6092 Du        2 SUP2    0.0000
     48 C19        6.4913    4.1397    5.1024 Du        2 SUP2    0.0000
     49 H24        6.9044    4.3648    4.2543 Du        2 SUP2    0.0000
     50 H25        7.1644    4.1377    5.8008 Du        2 SUP2    0.0000
     51 C20        3.7299    1.8898    5.8924 Du        2 SUP2    0.0000
     52 H26        4.1366    1.0334    6.0422 Du        2 SUP2    0.0000
     53 H27        3.3395    1.9098    5.0156 Du        2 SUP2    0.0000
     54 H28        3.0469    2.0389    6.5498 Du        2 SUP2    0.0000
     55 C21        5.7494    2.8342    5.0347 Du        2 SUP2    0.0000
     56 H29        5.3743    2.7021    4.1503 Du        2 SUP2    0.0000
     57 H30        6.3443    2.0949    5.2341 Du        2 SUP2    0.0000
     58 N4         4.7284    2.9192    5.9955 Du        2 SUP2    0.0000
@<TRIPOS>BOND
     1    1    2 ar
     2    2    3 1
     3    4    1 ar
     4    5    4 1
     5    6    2 ar
     6    7    6 1
     7    8    4 ar
     8    9    8 1
     9   10    6 ar
    10   11   10 1
    11   12   13 1
    12   14   12 1
    13   15   16 1
    14   17   15 1
    15   18   12 1
    16   19   18 1
    17   20   15 1
    18   21   20 1
    19   22   18 1
    20   23   22 1
    21   24   22 1
    22   25   26 1
    23   27   25 1
    24   28   25 1
    25   29   22 1
    26   30   29 1
    27   31   29 1
    28   32    1 1
    29   33   11 1
    30   34   20 1
    31   35   32 2
    32   36   32 2
    33   37   11 2
    34    8   10 ar
    35   12   33 1
    36   15   33 1
    37   18   20 1
    38   25   34 1
    39   29   34 1
@<TRIPOS>SUBSTRUCTURE
     1 RES1 1
     2 SUP2 38

@<TRIPOS>CRYSIN
   7.0153   10.0042    9.5621  90.0000  93.8220  90.0000   4 1

