# MOL2 file generated by ConQuest
# Please check atom types

@<TRIPOS>MOLECULE
OVAZAO
    54    57     3
SMALL
NO_CHARGES
****
Generated from CSD

@<TRIPOS>ATOM
      1 O1         5.8579    8.3137   14.1782 O.2       1 RES1    0.0000
      2 O2         4.4523    7.1046   15.3018 O.2       1 RES1    0.0000
      3 N1         4.8337    7.6635   14.2803 N.pl3     1 RES1    0.0000
      4 C1         3.9973    7.5208   13.0901 C.2       1 RES1    0.0000
      5 N2         2.8528    6.8408   13.1296 N.2       1 RES1    0.0000
      6 C2         2.4882    6.8943   11.8362 C.2       1 RES1    0.0000
      7 N3         1.4048    6.3327   11.2558 N.2       1 RES1    0.0000
      8 N4         1.3237    6.4792    9.9494 N.2       1 RES1    0.0000
      9 C3         2.2388    7.1570    9.2615 C.2       1 RES1    0.0000
     10 N5         1.9973    7.1684    7.8380 N.pl3     1 RES1    0.0000
     11 O3         2.8681    7.6579    7.1153 O.2       1 RES1    0.0000
     12 O4         0.9502    6.6893    7.4094 O.2       1 RES1    0.0000
     13 C4         3.3715    7.8078    9.7827 C.2       1 RES1    0.0000
     14 N6         4.2953    8.5361    9.2191 N.3       1 RES1    0.0000
     15 H1         4.9455    8.8768    9.7052 H         1 RES1    0.0000
     16 H2         4.2684    8.6881    8.3534 H         1 RES1    0.0000
     17 N7         3.4462    7.5927   11.1345 N.pl3     1 RES1    0.0000
     18 N8         4.4442    8.0199   11.9504 N.2       1 RES1    0.0000
     19 O5         2.7296    0.2845    5.4763 O.2       2 RES2    0.0000
     20 O6         2.0223   -1.6050    6.2507 O.2       2 RES2    0.0000
     21 N9         1.9644   -0.3877    6.1221 N.pl3     2 RES2    0.0000
     22 C5         0.8830    0.3059    6.8089 C.2       2 RES2    0.0000
     23 N10       -0.1644   -0.3647    7.2903 N.2       2 RES2    0.0000
     24 C6        -0.8781    0.6279    7.8326 C.2       2 RES2    0.0000
     25 N11       -2.0483    0.5549    8.4766 N.2       2 RES2    0.0000
     26 N12       -2.4919    1.7010    8.9735 N.2       2 RES2    0.0000
     27 C7        -1.8224    2.8296    8.8357 C.2       2 RES2    0.0000
     28 N13       -2.4545    3.9779    9.4691 N.pl3     2 RES2    0.0000
     29 O7        -3.5156    3.8211   10.0473 O.2       2 RES2    0.0000
     30 O8        -1.8641    5.0591    9.3795 O.2       2 RES2    0.0000
     31 C8        -0.6100    3.0064    8.1517 C.2       2 RES2    0.0000
     32 N14        0.1156    4.0609    7.9205 N.3       2 RES2    0.0000
     33 H3         0.8568    3.9912    7.4505 H         2 RES2    0.0000
     34 H4        -0.1347    4.8452    8.2338 H         2 RES2    0.0000
     35 N15       -0.1883    1.8044    7.6482 N.pl3     2 RES2    0.0000
     36 N16        0.9629    1.6127    6.9578 N.2       2 RES2    0.0000
     37 O9         3.4766   12.2206    3.6920 O.2       3 RES3    0.0000
     38 O10        2.4146   13.1501    2.0289 O.2       3 RES3    0.0000
     39 N17        2.5532   12.2885    2.8809 N.pl3     3 RES3    0.0000
     40 C9         1.5331   11.2403    2.9086 C.2       3 RES3    0.0000
     41 N18        0.4351   11.3538    2.1767 N.2       3 RES3    0.0000
     42 C10       -0.1962   10.2254    2.5043 C.2       3 RES3    0.0000
     43 N19       -1.3796    9.7645    2.0847 N.2       3 RES3    0.0000
     44 N20       -1.7831    8.6319    2.6429 N.2       3 RES3    0.0000
     45 C11       -1.0788    7.9678    3.5420 C.2       3 RES3    0.0000
     46 N21       -1.7573    6.8107    4.1112 N.pl3     3 RES3    0.0000
     47 O11       -2.8157    6.4527    3.6173 O.2       3 RES3    0.0000
     48 O12       -1.2201    6.2769    5.0829 O.2       3 RES3    0.0000
     49 C12        0.2025    8.3436    3.9862 C.2       3 RES3    0.0000
     50 N22        1.0338    7.7525    4.7996 N.3       3 RES3    0.0000
     51 H5         1.8180    8.1150    4.9670 H         3 RES3    0.0000
     52 H6         0.8101    6.9914    5.1801 H         3 RES3    0.0000
     53 N23        0.5864    9.5182    3.4190 N.pl3     3 RES3    0.0000
     54 N24        1.7320   10.1827    3.6847 N.2       3 RES3    0.0000
@<TRIPOS>BOND
     1    1    3 2
     2    2    3 2
     3    3    4 1
     4    4    5 1
     5    5    6 2
     6    6    7 1
     7    7    8 2
     8    8    9 1
     9    9   10 1
    10   10   11 2
    11   12   10 2
    12   13    9 2
    13   14   13 1
    14   15   14 1
    15   16   14 1
    16   17    6 1
    17   18    4 2
    18   19   21 2
    19   20   21 2
    20   21   22 1
    21   22   23 1
    22   23   24 2
    23   24   25 1
    24   25   26 2
    25   26   27 1
    26   27   28 1
    27   28   29 2
    28   30   28 2
    29   31   27 2
    30   32   31 1
    31   33   32 1
    32   34   32 1
    33   35   24 1
    34   36   22 2
    35   37   39 2
    36   38   39 2
    37   39   40 1
    38   40   41 1
    39   41   42 2
    40   42   43 1
    41   43   44 2
    42   44   45 1
    43   45   46 1
    44   46   47 2
    45   48   46 2
    46   49   45 2
    47   50   49 1
    48   51   50 1
    49   52   50 1
    50   53   42 1
    51   54   40 2
    52   13   17 1
    53   17   18 1
    54   31   35 1
    55   35   36 1
    56   49   53 1
    57   53   54 1
@<TRIPOS>SUBSTRUCTURE
     1 RES1 1
     2 RES2 19
     3 RES3 37

@<TRIPOS>CRYSIN
   6.2353   22.4730   17.6090  90.0000 100.2000  90.0000   9 1

