# MOL2 file generated by ConQuest
# Please check atom types

@<TRIPOS>MOLECULE
OVAZAO01
    54    57     3
SMALL
NO_CHARGES
****
Generated from CSD

@<TRIPOS>ATOM
      1 N1         2.9833   17.1819   11.1652 N.pl3     1 RES1    0.0000
      2 N2         0.8476   17.1607   10.0074 N.2       1 RES1    0.0000
      3 N3         1.9715   15.1859   10.3347 N.2       1 RES1    0.0000
      4 N4         0.8209   14.9962    9.6516 N.pl3     1 RES1    0.0000
      5 N5        -1.0416   16.2438    8.8312 N.2       1 RES1    0.0000
      6 N6        -1.4781   15.0980    8.3349 N.2       1 RES1    0.0000
      7 N7        -1.4429   12.8274    7.8416 N.pl3     1 RES1    0.0000
      8 N8         1.1253   12.7406    9.3799 N.pl3     1 RES1    0.0000
      9 H1         1.8520   12.8046    9.8357 H         1 RES1    0.0000
     10 H2         0.8765   11.9769    9.0723 H         1 RES1    0.0000
     11 O1         3.0338   18.3987   11.0326 O.2       1 RES1    0.0000
     12 O2         3.7421   16.5142   11.8149 O.2       1 RES1    0.0000
     13 O3        -2.5089   12.9811    7.2717 O.2       1 RES1    0.0000
     14 O4        -0.8576   11.7478    7.9344 O.2       1 RES1    0.0000
     15 C1         1.9013   16.4900   10.4868 C.2       1 RES1    0.0000
     16 C2         0.1418   16.1717    9.4663 C.2       1 RES1    0.0000
     17 C3        -0.8161   13.9672    8.4737 C.2       1 RES1    0.0000
     18 C4         0.4062   13.7960    9.1551 C.2       1 RES1    0.0000
     19 N9         5.8206    9.1422    3.0393 N.pl3     2 RES2    0.0000
     20 N10        5.4363    8.7945    5.3660 N.2       2 RES2    0.0000
     21 N11        3.8388    9.9569    4.1997 N.2       2 RES2    0.0000
     22 N12        4.4446    9.2151    6.1854 N.pl3     2 RES2    0.0000
     23 N13        2.4012   10.4680    6.0684 N.2       2 RES2    0.0000
     24 N14        2.3244   10.3235    7.3741 N.2       2 RES2    0.0000
     25 N15        5.3072    8.2935    8.1026 N.pl3     2 RES2    0.0000
     26 H3         5.9459    7.9615    7.6320 H         2 RES2    0.0000
     27 H4         5.2808    8.1539    8.9514 H         2 RES2    0.0000
     28 N16        3.0032    9.6580    9.4818 N.pl3     2 RES2    0.0000
     29 O5         5.4433    9.7039    2.0234 O.2       2 RES2    0.0000
     30 O6         6.8441    8.4903    3.1410 O.2       2 RES2    0.0000
     31 O7         3.8849    9.1784   10.2046 O.2       2 RES2    0.0000
     32 O8         1.9512   10.1327    9.9084 O.2       2 RES2    0.0000
     33 C5         4.9918    9.2867    4.2336 C.2       2 RES2    0.0000
     34 C6         3.4808    9.9095    5.4783 C.2       2 RES2    0.0000
     35 C7         3.2373    9.6531    8.0644 C.2       2 RES2    0.0000
     36 C8         4.3823    9.0071    7.5314 C.2       2 RES2    0.0000
     37 N17        3.5611    4.5425   14.4023 N.pl3     3 RES3    0.0000
     38 N18        2.7388    6.6448   13.6049 N.2       3 RES3    0.0000
     39 N19        1.4359    5.4701   15.1000 N.2       3 RES3    0.0000
     40 N20        1.5944    7.3018   13.8684 N.pl3     3 RES3    0.0000
     41 N21       -0.3850    7.0515   15.1955 N.2       3 RES3    0.0000
     42 N22       -0.7834    8.1789   14.6463 N.2       3 RES3    0.0000
     43 N23        2.0426    9.0742   12.5027 N.pl3     3 RES3    0.0000
     44 H5         2.8086    8.7221   12.3348 H         3 RES3    0.0000
     45 H6         1.8236    9.8204   12.1362 H         3 RES3    0.0000
     46 N24       -0.7494   10.0081   13.1890 N.pl3     3 RES3    0.0000
     47 O9         3.4237    3.6812   15.2503 O.2       3 RES3    0.0000
     48 O10        4.4814    4.6058   13.5897 O.2       3 RES3    0.0000
     49 O11       -0.2117   10.5466   12.2191 O.2       3 RES3    0.0000
     50 O12       -1.8077   10.3692   13.6883 O.2       3 RES3    0.0000
     51 C9         2.5399    5.5865   14.3741 C.2       3 RES3    0.0000
     52 C10        0.8072    6.5929   14.7660 C.2       3 RES3    0.0000
     53 C11       -0.0726    8.8462   13.7493 C.2       3 RES3    0.0000
     54 C12        1.2175    8.4800   13.3070 C.2       3 RES3    0.0000
@<TRIPOS>BOND
     1    1   11 2
     2    2   15 1
     3    3    4 1
     4    4   16 1
     5    5    6 2
     6    6   17 1
     7    7   13 2
     8    8    9 1
     9   10    8 1
    10   12    1 2
    11   14    7 2
    12   15    1 1
    13   16    2 2
    14   17    7 1
    15   18    4 1
    16   19   29 2
    17   20   22 1
    18   21   33 1
    19   22   34 1
    20   23   24 2
    21   24   35 1
    22   25   26 1
    23   27   25 1
    24   28   31 2
    25   30   19 2
    26   32   28 2
    27   33   19 1
    28   34   21 2
    29   35   28 1
    30   36   22 1
    31   37   47 2
    32   38   40 1
    33   39   51 1
    34   40   52 1
    35   41   42 2
    36   42   53 1
    37   43   44 1
    38   45   43 1
    39   46   49 2
    40   48   37 2
    41   50   46 2
    42   51   37 1
    43   52   39 2
    44   53   46 1
    45   54   40 1
    46    3   15 2
    47    5   16 1
    48    8   18 1
    49   17   18 2
    50   20   33 2
    51   23   34 1
    52   25   36 1
    53   35   36 2
    54   38   51 2
    55   41   52 1
    56   43   54 1
    57   53   54 2
@<TRIPOS>SUBSTRUCTURE
     1 RES1 1
     2 RES2 19
     3 RES3 37

@<TRIPOS>CRYSIN
   6.2050   22.3700   17.5470  90.0000 100.1800  90.0000   9 1

