# MOL2 file generated by ConQuest
# Please check atom types

@<TRIPOS>MOLECULE
OVEKIL
    48    51     1
SMALL
NO_CHARGES
****
Generated from CSD

@<TRIPOS>ATOM
      1 N1         3.4662    3.8020    0.0461 N.3       1 RES1    0.0000
      2 H1         3.8164    4.5686   -0.1259 H         1 RES1    0.0000
      3 N2         1.6236    2.3624   -1.5982 N.pl3     1 RES1    0.0000
      4 H2         1.2964    2.1283   -2.3585 H         1 RES1    0.0000
      5 O1         0.1435    4.5933    2.3462 O.2       1 RES1    0.0000
      6 O2         3.5005   -1.7940    4.3160 O.2       1 RES1    0.0000
      7 C1         0.7766    3.0928   -0.8373 C.2       1 RES1    0.0000
      8 O3         4.9987   -0.5062    5.1754 O.2       1 RES1    0.0000
      9 C2         4.6459    0.3190   -1.9727 C.ar      1 RES1    0.0000
     10 H3         4.9022   -0.4567   -2.4182 H         1 RES1    0.0000
     11 C3         5.5704    1.0453   -1.2425 C.ar      1 RES1    0.0000
     12 H4         6.4596    0.7722   -1.2177 H         1 RES1    0.0000
     13 C4         5.1785    2.1660   -0.5561 C.ar      1 RES1    0.0000
     14 H5         5.8018    2.6262   -0.0411 H         1 RES1    0.0000
     15 C5         3.8656    2.6305   -0.6131 C.ar      1 RES1    0.0000
     16 C6         2.3979    3.6295    1.0596 C.3       1 RES1    0.0000
     17 C7         2.7344    2.4836    1.9959 C.ar      1 RES1    0.0000
     18 C8         1.9396    1.3723    2.1680 C.ar      1 RES1    0.0000
     19 H6         1.1183    1.3267    1.7345 H         1 RES1    0.0000
     20 C9         2.3456    0.3167    2.9804 C.ar      1 RES1    0.0000
     21 H7         1.8103   -0.4367    3.0860 H         1 RES1    0.0000
     22 C10        3.5562    0.4144    3.6202 C.ar      1 RES1    0.0000
     23 N3         4.0427   -0.7039    4.4321 N.pl3     1 RES1    0.0000
     24 C11        2.9431    1.9132   -1.3804 C.ar      1 RES1    0.0000
     25 C12       -0.5503    3.3443   -1.5122 C.3       1 RES1    0.0000
     26 H8        -0.7169    2.6286   -2.1452 H         1 RES1    0.0000
     27 H9        -0.4909    4.1719   -2.0140 H         1 RES1    0.0000
     28 C13       -1.7341    3.4368   -0.5572 C.3       1 RES1    0.0000
     29 C14       -2.0356    2.0848    0.0755 C.3       1 RES1    0.0000
     30 H10       -2.2091    1.4408   -0.6148 H         1 RES1    0.0000
     31 H11       -2.8064    2.1624    0.6426 H         1 RES1    0.0000
     32 H12       -1.2814    1.8011    0.5963 H         1 RES1    0.0000
     33 C15       -2.9676    3.9270   -1.3184 C.3       1 RES1    0.0000
     34 H13       -2.7682    4.7628   -1.7464 H         1 RES1    0.0000
     35 H14       -3.6961    4.0471   -0.7036 H         1 RES1    0.0000
     36 H15       -3.2129    3.2784   -1.9822 H         1 RES1    0.0000
     37 C16       -1.3683    4.4455    0.5225 C.3       1 RES1    0.0000
     38 H16       -1.3751    5.3337    0.1312 H         1 RES1    0.0000
     39 H17       -2.0507    4.4238    1.2111 H         1 RES1    0.0000
     40 C17       -0.0214    4.2159    1.1718 C.2       1 RES1    0.0000
     41 C18        1.0339    3.6019    0.4207 C.2       1 RES1    0.0000
     42 C19        4.3511    1.5244    3.5106 C.ar      1 RES1    0.0000
     43 H18        5.1532    1.5845    3.9777 H         1 RES1    0.0000
     44 C20        3.9381    2.5430    2.6980 C.ar      1 RES1    0.0000
     45 H19        4.4759    3.2972    2.6103 H         1 RES1    0.0000
     46 C21        3.3375    0.7604   -2.0323 C.ar      1 RES1    0.0000
     47 H20        2.7122    0.2731   -2.5189 H         1 RES1    0.0000
     48 H21        2.4423    4.4379    1.6218 H         1 RES1    0.0000
@<TRIPOS>BOND
     1    1    2 1
     2    3    4 1
     3    5   40 2
     4    6   23 2
     5    7    3 1
     6    8   23 2
     7    9   10 1
     8   11    9 ar
     9   12   11 1
    10   13   11 ar
    11   14   13 1
    12   15    1 1
    13   16    1 1
    14   17   16 1
    15   18   17 ar
    16   19   18 1
    17   20   18 ar
    18   21   20 1
    19   22   20 ar
    20   23   22 1
    21   24    3 1
    22   25    7 1
    23   26   25 1
    24   27   25 1
    25   28   25 1
    26   29   28 1
    27   30   29 1
    28   31   29 1
    29   32   29 1
    30   33   28 1
    31   34   33 1
    32   35   33 1
    33   36   33 1
    34   37   28 1
    35   38   37 1
    36   39   37 1
    37   40   37 1
    38   41    7 2
    39   42   22 ar
    40   43   42 1
    41   44   17 ar
    42   45   44 1
    43   46    9 ar
    44   47   46 1
    45   48   16 1
    46   13   15 ar
    47   15   24 ar
    48   16   41 1
    49   24   46 ar
    50   40   41 1
    51   42   44 ar
@<TRIPOS>SUBSTRUCTURE
     1 RES1 1

@<TRIPOS>CRYSIN
  11.6617   11.7716   13.3406  90.0000  96.6740  90.0000  14 1

