# MOL2 file generated by ConQuest
# Please check atom types

@<TRIPOS>MOLECULE
OVEQAJ
    48    52     1
SMALL
NO_CHARGES
****
Generated from CSD

@<TRIPOS>ATOM
      1 C1         2.1890    8.8159    2.3783 C.ar      1 RES1    0.0000
      2 H1         2.2672    9.6163    2.8458 H         1 RES1    0.0000
      3 C2         2.5994    8.7646    1.0694 C.ar      1 RES1    0.0000
      4 H2         2.9523    9.5143    0.6467 H         1 RES1    0.0000
      5 C3         2.4704    7.5643    0.4012 C.ar      1 RES1    0.0000
      6 C4         1.9479    6.4395    0.9993 C.ar      1 RES1    0.0000
      7 H3         1.8698    5.6474    0.5194 H         1 RES1    0.0000
      8 C5         1.5347    6.4970    2.3296 C.ar      1 RES1    0.0000
      9 C6         1.6585    7.7043    3.0227 C.ar      1 RES1    0.0000
     10 C7         1.1361    7.8803    4.4016 C.ar      1 RES1    0.0000
     11 C8         0.1303    8.8358    4.6209 C.ar      1 RES1    0.0000
     12 H4        -0.2025    9.3160    3.8975 H         1 RES1    0.0000
     13 C9        -0.3747    9.0788    5.8810 C.ar      1 RES1    0.0000
     14 H5        -1.0611    9.6937    6.0112 H         1 RES1    0.0000
     15 C10        0.1607    8.3905    6.9349 C.ar      1 RES1    0.0000
     16 C11        1.1620    7.4684    6.7782 C.ar      1 RES1    0.0000
     17 H6         1.5099    7.0318    7.5217 H         1 RES1    0.0000
     18 C12        1.6614    7.1833    5.5095 C.ar      1 RES1    0.0000
     19 C13        2.7958    6.2332    5.3637 C.ar      1 RES1    0.0000
     20 C14        4.0058    6.5395    5.9738 C.ar      1 RES1    0.0000
     21 H7         4.0908    7.3202    6.4713 H         1 RES1    0.0000
     22 C15        5.0756    5.6894    5.8426 C.ar      1 RES1    0.0000
     23 C16        4.9904    4.4986    5.1569 C.ar      1 RES1    0.0000
     24 H8         5.7258    3.9340    5.0824 H         1 RES1    0.0000
     25 C17        3.7822    4.1693    4.5871 C.ar      1 RES1    0.0000
     26 H9         3.6962    3.3573    4.1435 H         1 RES1    0.0000
     27 C18        2.6796    5.0264    4.6580 C.ar      1 RES1    0.0000
     28 C19        1.4128    4.6022    4.0131 C.ar      1 RES1    0.0000
     29 C20        0.7866    3.4334    4.4558 C.ar      1 RES1    0.0000
     30 H10        1.1291    2.9880    5.1967 H         1 RES1    0.0000
     31 C21       -0.3281    2.9241    3.8209 C.ar      1 RES1    0.0000
     32 H11       -0.7565    2.1631    4.1406 H         1 RES1    0.0000
     33 C22       -0.7855    3.5781    2.7044 C.ar      1 RES1    0.0000
     34 C23       -0.2073    4.7436    2.2412 C.ar      1 RES1    0.0000
     35 H12       -0.5466    5.1649    1.4844 H         1 RES1    0.0000
     36 C24        0.8838    5.2832    2.9098 C.ar      1 RES1    0.0000
     37 N1         2.9103    7.4599   -0.9984 N.pl3     1 RES1    0.0000
     38 N2        -1.9405    3.0315    1.9806 N.pl3     1 RES1    0.0000
     39 N3         6.3679    6.0770    6.4350 N.pl3     1 RES1    0.0000
     40 N4        -0.3498    8.6438    8.2993 N.pl3     1 RES1    0.0000
     41 O1         3.2165    8.4829   -1.5838 O.2       1 RES1    0.0000
     42 O2         2.9152    6.3689   -1.5191 O.2       1 RES1    0.0000
     43 O3        -2.2951    3.5770    0.9563 O.2       1 RES1    0.0000
     44 O4        -2.4598    2.0396    2.3727 O.2       1 RES1    0.0000
     45 O5         7.3736    5.5621    5.9968 O.2       1 RES1    0.0000
     46 O6         6.3641    6.9039    7.3148 O.2       1 RES1    0.0000
     47 O7         0.1616    8.0620    9.2311 O.2       1 RES1    0.0000
     48 O8        -1.2700    9.4273    8.4218 O.2       1 RES1    0.0000
@<TRIPOS>BOND
     1    1    2 1
     2    3    1 ar
     3    4    3 1
     4    5    3 ar
     5    6    5 ar
     6    7    6 1
     7    8    6 ar
     8    9    1 ar
     9   10    9 1
    10   11   10 ar
    11   12   11 1
    12   13   11 ar
    13   14   13 1
    14   15   13 ar
    15   16   15 ar
    16   17   16 1
    17   18   10 ar
    18   19   18 1
    19   20   19 ar
    20   21   20 1
    21   22   20 ar
    22   23   22 ar
    23   24   23 1
    24   25   23 ar
    25   26   25 1
    26   27   19 ar
    27   28   27 1
    28   29   28 ar
    29   30   29 1
    30   31   29 ar
    31   32   31 1
    32   33   31 ar
    33   34   33 ar
    34   35   34 1
    35   36    8 1
    36   37    5 1
    37   38   33 1
    38   39   22 1
    39   40   15 1
    40   41   37 2
    41   42   37 2
    42   43   38 2
    43   44   38 2
    44   45   39 2
    45   46   39 2
    46   47   40 2
    47   48   40 2
    48    8    9 ar
    49   16   18 ar
    50   25   27 ar
    51   28   36 ar
    52   34   36 ar
@<TRIPOS>SUBSTRUCTURE
     1 RES1 1

@<TRIPOS>CRYSIN
   8.9226   10.2313   14.4881  91.2130  92.3680 105.7900   2 1

