# MOL2 file generated by ConQuest
# Please check atom types

@<TRIPOS>MOLECULE
OVIJEJ
    99   105     1
SMALL
NO_CHARGES
****
Generated from CSD

@<TRIPOS>ATOM
      1 O1         9.3725   14.2362   16.4598 O.2       1 RES1    0.0000
      2 N1         8.8648   14.0518   15.3626 N.pl3     1 RES1    0.0000
      3 O2         8.6771   14.9459   14.5333 O.2       1 RES1    0.0000
      4 C1         7.3965   11.1642   13.5173 C.ar      1 RES1    0.0000
      5 H1         6.9006   11.0062   12.7473 H         1 RES1    0.0000
      6 C2         7.7541   12.4627   13.8450 C.ar      1 RES1    0.0000
      7 H2         7.5093   13.1780   13.3029 H         1 RES1    0.0000
      8 C3         8.4866   12.6667   15.0008 C.ar      1 RES1    0.0000
      9 C4         8.8762   11.6356   15.8144 C.ar      1 RES1    0.0000
     10 H3         9.3754   11.8013   16.5820 H         1 RES1    0.0000
     11 C5         8.5133   10.3366   15.4711 C.ar      1 RES1    0.0000
     12 H4         8.7705    9.6243   16.0104 H         1 RES1    0.0000
     13 C6         7.7649   10.1033   14.3177 C.ar      1 RES1    0.0000
     14 C7         7.4142    8.6767   13.9509 C.3       1 RES1    0.0000
     15 H5         8.2294    8.2108   13.6699 H         1 RES1    0.0000
     16 O3         6.4950    8.6808   12.8785 O.3       1 RES1    0.0000
     17 O4         6.8784    8.0219   15.0778 O.3       1 RES1    0.0000
     18 C8         6.5837    6.6387   14.7918 C.3       1 RES1    0.0000
     19 H6         6.1985    6.2229   15.5792 H         1 RES1    0.0000
     20 H7         7.4073    6.1721   14.5784 H         1 RES1    0.0000
     21 C9         5.6037    6.5067   13.6131 C.3       1 RES1    0.0000
     22 C10        6.2504    7.3188   12.4772 C.3       1 RES1    0.0000
     23 H8         7.1197    6.9095   12.2841 H         1 RES1    0.0000
     24 C11        5.4461    7.2952   11.1992 C.3       1 RES1    0.0000
     25 H9         4.5343    7.6101   11.3735 H         1 RES1    0.0000
     26 O5         6.0449    8.0842   10.1736 O.3       1 RES1    0.0000
     27 H10        6.4043    8.7398   10.5091 H         1 RES1    0.0000
     28 C12        5.4134    5.8546   10.7041 C.3       1 RES1    0.0000
     29 H11        6.3138    5.5924   10.4570 H         1 RES1    0.0000
     30 H12        4.8668    5.8148    9.9035 H         1 RES1    0.0000
     31 C13        4.8652    4.8312   11.7267 C.3       1 RES1    0.0000
     32 C14        5.5711    5.0409   13.1033 C.3       1 RES1    0.0000
     33 H13        6.5100    4.8165   12.9359 H         1 RES1    0.0000
     34 C15        5.0935    3.9800   14.1093 C.3       1 RES1    0.0000
     35 H14        5.4707    4.1667   14.9835 H         1 RES1    0.0000
     36 H15        4.1266    4.0143   14.1833 H         1 RES1    0.0000
     37 C16        5.5260    2.5839   13.6492 C.3       1 RES1    0.0000
     38 H16        5.1735    1.9301   14.2716 H         1 RES1    0.0000
     39 H17        6.4938    2.5326   13.6859 H         1 RES1    0.0000
     40 C17        5.0639    2.2046   12.2181 C.3       1 RES1    0.0000
     41 C18        5.3083    3.4001   11.2406 C.3       1 RES1    0.0000
     42 H18        6.2823    3.4556   11.1449 H         1 RES1    0.0000
     43 C19        4.7893    3.0612    9.8329 C.3       1 RES1    0.0000
     44 H19        3.8380    3.2455    9.7952 H         1 RES1    0.0000
     45 H20        5.2269    3.6395    9.1895 H         1 RES1    0.0000
     46 C20        5.0233    1.6357    9.4420 C.2       1 RES1    0.0000
     47 H21        4.8249    1.4047    8.5637 H         1 RES1    0.0000
     48 C21        5.4864    0.6692   10.2247 C.2       1 RES1    0.0000
     49 C22        5.8954    0.9509   11.6792 C.3       1 RES1    0.0000
     50 C23        5.6392   -0.2876   12.5879 C.3       1 RES1    0.0000
     51 H22        6.1842   -0.2014   13.3851 H         1 RES1    0.0000
     52 H23        4.7106   -0.2767   12.8677 H         1 RES1    0.0000
     53 C24        5.9346   -1.6415   11.9467 C.3       1 RES1    0.0000
     54 H24        5.6536   -2.3435   12.5548 H         1 RES1    0.0000
     55 H25        6.8920   -1.7269   11.8208 H         1 RES1    0.0000
     56 C25        5.2378   -1.8466   10.5962 C.3       1 RES1    0.0000
     57 C26        5.6779   -0.7239    9.6151 C.3       1 RES1    0.0000
     58 H26        5.0687   -0.7741    8.8485 H         1 RES1    0.0000
     59 C27        7.0958   -0.9284    9.0513 C.3       1 RES1    0.0000
     60 H27        7.2616   -0.2487    8.3792 H         1 RES1    0.0000
     61 H28        7.7360   -0.7934    9.7671 H         1 RES1    0.0000
     62 C28        7.3502   -2.3051    8.4256 C.3       1 RES1    0.0000
     63 C29        7.0053   -3.3653    9.4833 C.3       1 RES1    0.0000
     64 H29        7.1320   -4.2473    9.1012 H         1 RES1    0.0000
     65 H30        7.6160   -3.2770   10.2324 H         1 RES1    0.0000
     66 C30        5.5669   -3.2448    9.9961 C.3       1 RES1    0.0000
     67 H31        5.4183   -3.9215   10.6756 H         1 RES1    0.0000
     68 H32        4.9563   -3.4241    9.2637 H         1 RES1    0.0000
     69 C31        3.7043   -1.7959   10.6738 C.2       1 RES1    0.0000
     70 O6         2.9990   -1.6269    9.7107 O.2       1 RES1    0.0000
     71 O7         3.2075   -2.0082   11.8956 O.3       1 RES1    0.0000
     72 C32        1.7585   -1.8870   12.0045 C.3       1 RES1    0.0000
     73 H33        1.3393   -2.4818   11.3795 H         1 RES1    0.0000
     74 H34        1.4975   -0.9843   11.8107 H         1 RES1    0.0000
     75 H35        1.4841   -2.1158   12.8958 H         1 RES1    0.0000
     76 C33        8.8353   -2.4091    8.0479 C.3       1 RES1    0.0000
     77 H36        9.3735   -2.2927    8.8345 H         1 RES1    0.0000
     78 H37        9.0506   -1.7269    7.4085 H         1 RES1    0.0000
     79 H38        9.0086   -3.2735    7.6673 H         1 RES1    0.0000
     80 C34        6.5395   -2.4769    7.1448 C.3       1 RES1    0.0000
     81 H39        6.8072   -1.8128    6.5060 H         1 RES1    0.0000
     82 H40        5.6060   -2.3750    7.3403 H         1 RES1    0.0000
     83 H41        6.6977   -3.3505    6.7808 H         1 RES1    0.0000
     84 C35        7.4279    1.2148   11.6922 C.3       1 RES1    0.0000
     85 H42        7.6388    1.9073   11.0627 H         1 RES1    0.0000
     86 H43        7.8932    0.4098   11.4497 H         1 RES1    0.0000
     87 H44        7.6979    1.4887   12.5709 H         1 RES1    0.0000
     88 C36        3.5601    1.8502   12.2750 C.3       1 RES1    0.0000
     89 H45        3.0569    2.6289   12.5267 H         1 RES1    0.0000
     90 H46        3.4188    1.1560   12.9218 H         1 RES1    0.0000
     91 H47        3.2702    1.5465   11.4116 H         1 RES1    0.0000
     92 C37        3.3299    5.0295   11.7815 C.3       1 RES1    0.0000
     93 H48        2.9140    4.4995   11.0968 H         1 RES1    0.0000
     94 H49        3.1216    5.9567   11.6403 H         1 RES1    0.0000
     95 H50        3.0026    4.7552   12.6410 H         1 RES1    0.0000
     96 C38        4.2534    7.0854   14.0712 C.3       1 RES1    0.0000
     97 H51        4.3819    7.9797   14.3979 H         1 RES1    0.0000
     98 H52        3.8923    6.5382   14.7730 H         1 RES1    0.0000
     99 H53        3.6437    7.1004   13.3310 H         1 RES1    0.0000
@<TRIPOS>BOND
     1    1    2 2
     2    2    3 2
     3    4    5 1
     4    6    4 ar
     5    7    6 1
     6    8    2 1
     7    9    8 ar
     8   10    9 1
     9   11    9 ar
    10   12   11 1
    11   13    4 ar
    12   14   13 1
    13   15   14 1
    14   16   14 1
    15   17   14 1
    16   18   17 1
    17   19   18 1
    18   20   18 1
    19   21   18 1
    20   22   16 1
    21   23   22 1
    22   24   22 1
    23   25   24 1
    24   26   24 1
    25   27   26 1
    26   28   24 1
    27   29   28 1
    28   30   28 1
    29   31   28 1
    30   32   21 1
    31   33   32 1
    32   34   32 1
    33   35   34 1
    34   36   34 1
    35   37   34 1
    36   38   37 1
    37   39   37 1
    38   40   37 1
    39   41   31 1
    40   42   41 1
    41   43   41 1
    42   44   43 1
    43   45   43 1
    44   46   43 1
    45   47   46 1
    46   48   46 2
    47   49   40 1
    48   50   49 1
    49   51   50 1
    50   52   50 1
    51   53   50 1
    52   54   53 1
    53   55   53 1
    54   56   53 1
    55   57   48 1
    56   58   57 1
    57   59   57 1
    58   60   59 1
    59   61   59 1
    60   62   59 1
    61   63   62 1
    62   64   63 1
    63   65   63 1
    64   66   56 1
    65   67   66 1
    66   68   66 1
    67   69   56 1
    68   70   69 2
    69   71   69 1
    70   72   71 1
    71   73   72 1
    72   74   72 1
    73   75   72 1
    74   76   62 1
    75   77   76 1
    76   78   76 1
    77   79   76 1
    78   80   62 1
    79   81   80 1
    80   82   80 1
    81   83   80 1
    82   84   49 1
    83   85   84 1
    84   86   84 1
    85   87   84 1
    86   88   40 1
    87   89   88 1
    88   90   88 1
    89   91   88 1
    90   92   31 1
    91   93   92 1
    92   94   92 1
    93   95   92 1
    94   96   21 1
    95   97   96 1
    96   98   96 1
    97   99   96 1
    98    6    8 ar
    99   11   13 ar
   100   21   22 1
   101   31   32 1
   102   40   41 1
   103   48   49 1
   104   56   57 1
   105   63   66 1
@<TRIPOS>SUBSTRUCTURE
     1 RES1 1

@<TRIPOS>CRYSIN
   9.5259   17.5146   20.0556  90.0000  90.0000  90.0000  19 1

