# MOL2 file generated by ConQuest
# Please check atom types

@<TRIPOS>MOLECULE
OVOLES
    37    38     1
SMALL
NO_CHARGES
****
Generated from CSD

@<TRIPOS>ATOM
      1 O1         3.4440    7.8990    7.1849 O.2       1 RES1    0.0000
      2 O2         4.0555    6.1033    8.9639 O.3       1 RES1    0.0000
      3 H1         3.4721    6.6769    8.9067 H         1 RES1    0.0000
      4 O3         6.1740    0.1203   11.0878 O.2       1 RES1    0.0000
      5 O4         7.7217   -0.0921    9.7124 O.2       1 RES1    0.0000
      6 N1         6.7255    0.4481   10.0685 N.pl3     1 RES1    0.0000
      7 C1         4.9652    8.8589    5.0580 C.ar      1 RES1    0.0000
      8 H2         4.1006    9.1885    5.1478 H         1 RES1    0.0000
      9 C2         5.8048    9.3882    4.1032 C.ar      1 RES1    0.0000
     10 H3         5.4975   10.0611    3.5387 H         1 RES1    0.0000
     11 C3         7.0832    8.9316    3.9808 C.ar      1 RES1    0.0000
     12 H4         7.6505    9.3106    3.3487 H         1 RES1    0.0000
     13 C4         7.5422    7.9127    4.7865 C.ar      1 RES1    0.0000
     14 H5         8.4123    7.5983    4.6923 H         1 RES1    0.0000
     15 C5         6.7065    7.3639    5.7331 C.ar      1 RES1    0.0000
     16 H6         7.0173    6.6734    6.2724 H         1 RES1    0.0000
     17 C6         5.4095    7.8250    5.8941 C.ar      1 RES1    0.0000
     18 C7         4.5001    7.3395    6.9505 C.2       1 RES1    0.0000
     19 C8         4.8487    6.1182    7.7932 C.3       1 RES1    0.0000
     20 H7         5.7914    6.1770    8.0544 H         1 RES1    0.0000
     21 C9         4.6386    4.8105    6.9742 C.3       1 RES1    0.0000
     22 H8         5.1891    4.8787    6.1663 H         1 RES1    0.0000
     23 C10        3.2107    4.6626    6.5335 C.2       1 RES1    0.0000
     24 H9         2.5515    4.7000    7.1879 H         1 RES1    0.0000
     25 C11        2.8289    4.4862    5.3065 C.2       1 RES1    0.0000
     26 H10        3.4601    4.4427    4.6247 H         1 RES1    0.0000
     27 H11        1.9245    4.4021    5.1084 H         1 RES1    0.0000
     28 C12        5.1494    3.6273    7.7724 C.ar      1 RES1    0.0000
     29 C13        6.3974    3.0910    7.4831 C.ar      1 RES1    0.0000
     30 H12        6.8903    3.4453    6.7784 H         1 RES1    0.0000
     31 C14        6.9230    2.0503    8.2116 C.ar      1 RES1    0.0000
     32 H13        7.7595    1.7003    8.0054 H         1 RES1    0.0000
     33 C15        6.1817    1.5394    9.2525 C.ar      1 RES1    0.0000
     34 C16        4.9289    2.0183    9.5588 C.ar      1 RES1    0.0000
     35 H14        4.4362    1.6476   10.2554 H         1 RES1    0.0000
     36 C17        4.4195    3.0579    8.8118 C.ar      1 RES1    0.0000
     37 H15        3.5710    3.3854    9.0062 H         1 RES1    0.0000
@<TRIPOS>BOND
     1    1   18 2
     2    2    3 1
     3    4    6 2
     4    5    6 2
     5    6   33 1
     6    7    8 1
     7    9    7 ar
     8   10    9 1
     9   11    9 ar
    10   12   11 1
    11   13   11 ar
    12   14   13 1
    13   15   13 ar
    14   16   15 1
    15   17    7 ar
    16   18   17 1
    17   19    2 1
    18   20   19 1
    19   21   19 1
    20   22   21 1
    21   23   21 1
    22   24   23 1
    23   25   23 2
    24   26   25 1
    25   27   25 1
    26   28   21 1
    27   29   28 ar
    28   30   29 1
    29   31   29 ar
    30   32   31 1
    31   33   31 ar
    32   34   33 ar
    33   35   34 1
    34   36   28 ar
    35   37   36 1
    36   15   17 ar
    37   18   19 1
    38   34   36 ar
@<TRIPOS>SUBSTRUCTURE
     1 RES1 1

@<TRIPOS>CRYSIN
   6.4718    7.7276    7.9956  68.4260  85.6380  87.8990   1 1

