# MOL2 file generated by ConQuest
# Please check atom types

@<TRIPOS>MOLECULE
OVUVUY
   106   116     2
SMALL
NO_CHARGES
****
Generated from CSD

@<TRIPOS>ATOM
      1 C1         4.1679    6.0900    5.7888 C.3       1 RES1    0.0000
      2 H1         4.1174    6.4316    4.8703 H         1 RES1    0.0000
      3 C2         5.5264    5.6179    6.3258 C.3       1 RES1    0.0000
      4 C3         6.6586    5.8060    5.3735 C.2       1 RES1    0.0000
      5 H2         7.1553    5.0565    5.1371 H         1 RES1    0.0000
      6 C4         7.0032    6.9706    4.8437 C.2       1 RES1    0.0000
      7 H3         7.7237    6.9977    4.2546 H         1 RES1    0.0000
      8 C5         6.2783    8.2459    5.1532 C.3       1 RES1    0.0000
      9 H4         5.5954    8.3975    4.4818 H         1 RES1    0.0000
     10 H5         6.9036    8.9868    5.1140 H         1 RES1    0.0000
     11 C6         5.6263    8.2057    6.5359 C.3       1 RES1    0.0000
     12 H6         6.3108    8.3465    7.2084 H         1 RES1    0.0000
     13 H7         4.9922    8.9374    6.6025 H         1 RES1    0.0000
     14 C7         4.9103    6.9137    6.8369 C.3       1 RES1    0.0000
     15 C8         4.1468    6.8312    8.1643 C.3       1 RES1    0.0000
     16 H8         4.6964    6.4130    8.8450 H         1 RES1    0.0000
     17 H9         3.8981    7.7185    8.4663 H         1 RES1    0.0000
     18 C9         2.9041    5.9932    7.8946 C.3       1 RES1    0.0000
     19 C10        2.9199    5.6080    6.4424 C.3       1 RES1    0.0000
     20 C11        1.9336    6.6281    6.9084 C.3       1 RES1    0.0000
     21 H10        1.0017    6.3666    6.9581 H         1 RES1    0.0000
     22 H11        2.0862    7.5530    6.6551 H         1 RES1    0.0000
     23 C12        2.3953    5.0630    8.9543 C.3       1 RES1    0.0000
     24 H12        3.0971    4.4640    9.2171 H         1 RES1    0.0000
     25 H13        1.6560    4.5568    8.6079 H         1 RES1    0.0000
     26 H14        2.1057    5.5715    9.7143 H         1 RES1    0.0000
     27 C13        5.6877    4.4302    7.2318 C.ar      1 RES1    0.0000
     28 C14        6.4607    4.5564    8.3889 C.ar      1 RES1    0.0000
     29 H15        6.8375    5.3797    8.6013 H         1 RES1    0.0000
     30 C15        6.6718    3.4763    9.2250 C.ar      1 RES1    0.0000
     31 H16        7.1862    3.5762    9.9942 H         1 RES1    0.0000
     32 C16        6.1185    2.2442    8.9181 C.ar      1 RES1    0.0000
     33 H17        6.2358    1.5236    9.4937 H         1 RES1    0.0000
     34 C17        5.3874    2.0910    7.7474 C.ar      1 RES1    0.0000
     35 H18        5.0374    1.2575    7.5245 H         1 RES1    0.0000
     36 C18        5.1758    3.1735    6.9067 C.ar      1 RES1    0.0000
     37 H19        4.6896    3.0611    6.1217 H         1 RES1    0.0000
     38 C19        1.6725    4.2282    4.9853 C.2       1 RES1    0.0000
     39 C20        0.9499    2.9213    4.9013 C.ar      1 RES1    0.0000
     40 C21        0.3013    2.6048    3.7066 C.ar      1 RES1    0.0000
     41 H20        0.3544    3.1864    2.9835 H         1 RES1    0.0000
     42 C22       -0.4192    1.4317    3.5953 C.ar      1 RES1    0.0000
     43 H21       -0.8435    1.2065    2.7990 H         1 RES1    0.0000
     44 C23       -0.4924    0.6015    4.6935 C.ar      1 RES1    0.0000
     45 C24        0.1387    0.8857    5.8931 C.ar      1 RES1    0.0000
     46 H22        0.0735    0.3032    6.6156 H         1 RES1    0.0000
     47 C25        0.8675    2.0555    5.9933 C.ar      1 RES1    0.0000
     48 H23        1.3026    2.2660    6.7869 H         1 RES1    0.0000
     49 N1        -1.2414   -0.6592    4.5727 N.pl3     1 RES1    0.0000
     50 O1         2.3947    4.3135    6.1210 O.3       1 RES1    0.0000
     51 O2         1.5995    5.0951    4.1548 O.2       1 RES1    0.0000
     52 O3        -1.1882   -1.4591    5.5023 O.2       1 RES1    0.0000
     53 O4        -1.8733   -0.8586    3.5426 O.2       1 RES1    0.0000
     54 C26        5.8453   11.4040   -0.4590 C.3       2 RES2    0.0000
     55 H24        5.8779   12.0619   -1.1855 H         2 RES2    0.0000
     56 C27        4.5093   11.1952    0.2773 C.3       2 RES2    0.0000
     57 C28        3.4190   12.0435   -0.2901 C.2       2 RES2    0.0000
     58 H25        2.9929   12.6419    0.2799 H         2 RES2    0.0000
     59 C29        3.0177   12.0017   -1.5530 C.2       2 RES2    0.0000
     60 H26        2.3432   12.5816   -1.8210 H         2 RES2    0.0000
     61 C30        3.5984   11.0636   -2.5685 C.3       2 RES2    0.0000
     62 H27        4.2706   11.5329   -3.0888 H         2 RES2    0.0000
     63 H28        2.8987   10.7796   -3.1777 H         2 RES2    0.0000
     64 C31        4.2300    9.8370   -1.9244 C.3       2 RES2    0.0000
     65 H29        3.5270    9.2080   -1.6992 H         2 RES2    0.0000
     66 H30        4.8100    9.4091   -2.5718 H         2 RES2    0.0000
     67 C32        5.0341   10.1318   -0.6751 C.3       2 RES2    0.0000
     68 C33        5.7938    8.9717   -0.0356 C.3       2 RES2    0.0000
     69 H31        5.2769    8.5924    0.6915 H         2 RES2    0.0000
     70 H32        5.9590    8.2769   -0.6915 H         2 RES2    0.0000
     71 C34        7.1114    9.5287    0.4870 C.3       2 RES2    0.0000
     72 C35        7.1244   11.0014    0.1847 C.3       2 RES2    0.0000
     73 C36        8.0246   10.0968   -0.5950 C.3       2 RES2    0.0000
     74 H33        8.9760   10.1361   -0.4083 H         2 RES2    0.0000
     75 H34        7.7952    9.9180   -1.5214 H         2 RES2    0.0000
     76 C37        7.6960    8.9705    1.7459 C.3       2 RES2    0.0000
     77 H35        8.4805    9.4694    1.9824 H         2 RES2    0.0000
     78 H36        7.9323    8.0495    1.6070 H         2 RES2    0.0000
     79 H37        7.0499    9.0333    2.4533 H         2 RES2    0.0000
     80 C38        4.3408   10.9292    1.7380 C.ar      2 RES2    0.0000
     81 C39        4.9627   11.6784    2.7319 C.ar      2 RES2    0.0000
     82 H38        5.6041   12.3094    2.4961 H         2 RES2    0.0000
     83 C40        4.6391   11.4962    4.0672 C.ar      2 RES2    0.0000
     84 H39        5.0669   12.0046    4.7189 H         2 RES2    0.0000
     85 C41        3.6868   10.5657    4.4409 C.ar      2 RES2    0.0000
     86 H40        3.4610   10.4594    5.3379 H         2 RES2    0.0000
     87 C42        3.0705    9.7923    3.4659 C.ar      2 RES2    0.0000
     88 H41        2.4417    9.1508    3.7079 H         2 RES2    0.0000
     89 C43        3.3946    9.9796    2.1339 C.ar      2 RES2    0.0000
     90 H42        2.9739    9.4617    1.4851 H         2 RES2    0.0000
     91 C44        8.2966   12.9899    0.6579 C.2       2 RES2    0.0000
     92 C45        9.1201   13.7160    1.6745 C.ar      2 RES2    0.0000
     93 C46        9.7231   14.9063    1.2675 C.ar      2 RES2    0.0000
     94 H43        9.5589   15.2374    0.4149 H         2 RES2    0.0000
     95 C47       10.5650   15.5986    2.1240 C.ar      2 RES2    0.0000
     96 H44       10.9713   16.3913    1.8605 H         2 RES2    0.0000
     97 C48       10.7812   15.0725    3.3836 C.ar      2 RES2    0.0000
     98 C49       10.1977   13.8998    3.8172 C.ar      2 RES2    0.0000
     99 H45       10.3632   13.5746    4.6728 H         2 RES2    0.0000
    100 C50        9.3600   13.2178    2.9495 C.ar      2 RES2    0.0000
    101 H46        8.9571   12.4254    3.2206 H         2 RES2    0.0000
    102 N2        11.6637   15.8148    4.3030 N.pl3     2 RES2    0.0000
    103 O5         7.7581   11.8571    1.1529 O.3       2 RES2    0.0000
    104 O6         8.1568   13.3596   -0.4798 O.2       2 RES2    0.0000
    105 O7        11.8958   15.3247    5.4015 O.2       2 RES2    0.0000
    106 O8        12.1171   16.8906    3.9302 O.2       2 RES2    0.0000
@<TRIPOS>BOND
     1    1    2 1
     2    3    1 1
     3    4    3 1
     4    5    4 1
     5    6    4 2
     6    7    6 1
     7    8    6 1
     8    9    8 1
     9   10    8 1
    10   11    8 1
    11   12   11 1
    12   13   11 1
    13   14    1 1
    14   15   14 1
    15   16   15 1
    16   17   15 1
    17   18   15 1
    18   19    1 1
    19   20   18 1
    20   21   20 1
    21   22   20 1
    22   23   18 1
    23   24   23 1
    24   25   23 1
    25   26   23 1
    26   27    3 1
    27   28   27 ar
    28   29   28 1
    29   30   28 ar
    30   31   30 1
    31   32   30 ar
    32   33   32 1
    33   34   32 ar
    34   35   34 1
    35   36   27 ar
    36   37   36 1
    37   38   39 1
    38   39   40 ar
    39   40   41 1
    40   42   40 ar
    41   43   42 1
    42   44   42 ar
    43   45   44 ar
    44   46   45 1
    45   47   39 ar
    46   48   47 1
    47   49   44 1
    48   50   19 1
    49   51   38 2
    50   52   49 2
    51   53   49 2
    52   54   55 1
    53   56   54 1
    54   57   56 1
    55   58   57 1
    56   59   57 2
    57   60   59 1
    58   61   59 1
    59   62   61 1
    60   63   61 1
    61   64   61 1
    62   65   64 1
    63   66   64 1
    64   67   54 1
    65   68   67 1
    66   69   68 1
    67   70   68 1
    68   71   68 1
    69   72   54 1
    70   73   71 1
    71   74   73 1
    72   75   73 1
    73   76   71 1
    74   77   76 1
    75   78   76 1
    76   79   76 1
    77   80   56 1
    78   81   80 ar
    79   82   81 1
    80   83   81 ar
    81   84   83 1
    82   85   83 ar
    83   86   85 1
    84   87   85 ar
    85   88   87 1
    86   89   80 ar
    87   90   89 1
    88   91   92 1
    89   92   93 ar
    90   93   94 1
    91   95   93 ar
    92   96   95 1
    93   97   95 ar
    94   98   97 ar
    95   99   98 1
    96  100   92 ar
    97  101  100 1
    98  102   97 1
    99  103   72 1
   100  104   91 2
   101  105  102 2
   102  106  102 2
   103    3   14 1
   104   11   14 1
   105   18   19 1
   106   19   20 1
   107   34   36 ar
   108   38   50 1
   109   45   47 ar
   110   56   67 1
   111   64   67 1
   112   71   72 1
   113   72   73 1
   114   87   89 ar
   115   91  103 1
   116   98  100 ar
@<TRIPOS>SUBSTRUCTURE
     1 RES1 1
     2 RES2 54

@<TRIPOS>CRYSIN
   8.1296   15.4679   33.0511  90.0000  94.9069  90.0000  14 1

