# MOL2 file generated by ConQuest
# Please check atom types

@<TRIPOS>MOLECULE
OWADOH
   116   120     2
SMALL
NO_CHARGES
****
Generated from CSD

@<TRIPOS>ATOM
      1 O1         2.5735    6.2582   14.8823 O.2       1 RES1    0.0000
      2 O2         1.2087    5.4860   17.2871 O.3       1 RES1    0.0000
      3 O3         3.5184    9.4234   18.1142 O.3       1 RES1    0.0000
      4 H1         4.1957    9.9202   18.1043 H         1 RES1    0.0000
      5 N1         2.3302    8.3725   15.7266 N.am      1 RES1    0.0000
      6 N2        -0.0579    4.7848   17.5390 N.3       1 RES1    0.0000
      7 C1         2.0590    7.0527   15.6678 C.2       1 RES1    0.0000
      8 C2         0.9800    6.7571   16.6823 C.3       1 RES1    0.0000
      9 H2         0.0920    6.7476   16.2238 H         1 RES1    0.0000
     10 C3         1.0464    7.9594   17.6243 C.3       1 RES1    0.0000
     11 H3         0.1487    8.1766   17.9822 H         1 RES1    0.0000
     12 H4         1.6583    7.7804   18.3814 H         1 RES1    0.0000
     13 C4         1.5764    9.0982   16.7533 C.3       1 RES1    0.0000
     14 H5         0.8085    9.5759   16.3277 H         1 RES1    0.0000
     15 C5         2.4329   10.0928   17.5088 C.3       1 RES1    0.0000
     16 H6         2.7714   10.7835   16.8852 H         1 RES1    0.0000
     17 H7         1.8882   10.5430   18.2033 H         1 RES1    0.0000
     18 C6         3.2427    9.0463   14.8018 C.3       1 RES1    0.0000
     19 H8         3.5933    8.3853   14.1535 H         1 RES1    0.0000
     20 H9         4.0114    9.4085   15.3115 H         1 RES1    0.0000
     21 C7         2.5711   10.1733   14.0496 C.ar      1 RES1    0.0000
     22 C8         3.2201   11.3947   13.9028 C.ar      1 RES1    0.0000
     23 H10        4.0826   11.5165   14.2805 H         1 RES1    0.0000
     24 C9         2.6217   12.4402   13.2100 C.ar      1 RES1    0.0000
     25 H11        3.0691   13.2728   13.1143 H         1 RES1    0.0000
     26 C10        1.3644   12.2527   12.6590 C.ar      1 RES1    0.0000
     27 H12        0.9512   12.9614   12.1790 H         1 RES1    0.0000
     28 C11        0.7069   11.0504   12.7992 C.ar      1 RES1    0.0000
     29 H13       -0.1581   10.9328   12.4231 H         1 RES1    0.0000
     30 C12        1.3125   10.0144   13.4904 C.ar      1 RES1    0.0000
     31 H14        0.8596    9.1850   13.5828 H         1 RES1    0.0000
     32 C13       -0.1057    3.6312   16.5768 C.3       1 RES1    0.0000
     33 C14       -1.3678    2.8240   16.9314 C.3       1 RES1    0.0000
     34 H15       -2.1659    3.3696   16.7203 H         1 RES1    0.0000
     35 H16       -1.3981    2.0126   16.3640 H         1 RES1    0.0000
     36 C15       -1.4316    2.4035   18.3963 C.3       1 RES1    0.0000
     37 H17       -2.2729    1.9131   18.5744 H         1 RES1    0.0000
     38 H18       -0.6702    1.8093   18.6140 H         1 RES1    0.0000
     39 C16       -1.3704    3.6662   19.2409 C.3       1 RES1    0.0000
     40 H19       -1.4053    3.4119   20.1976 H         1 RES1    0.0000
     41 H20       -2.1694    4.2181   19.0479 H         1 RES1    0.0000
     42 C17       -0.1167    4.5104   19.0000 C.3       1 RES1    0.0000
     43 C18        1.1402    2.7351   16.5669 C.3       1 RES1    0.0000
     44 H21        1.9386    3.2859   16.4300 H         1 RES1    0.0000
     45 H22        1.0664    2.0804   15.8427 H         1 RES1    0.0000
     46 H23        1.2104    2.2658   17.4247 H         1 RES1    0.0000
     47 C19       -0.2968    4.2075   15.1746 C.3       1 RES1    0.0000
     48 H24       -1.0479    4.8367   15.1812 H         1 RES1    0.0000
     49 H25       -0.4846    3.4797   14.5461 H         1 RES1    0.0000
     50 H26        0.5195    4.6746   14.9008 H         1 RES1    0.0000
     51 C20        1.1232    3.8399   19.6120 C.3       1 RES1    0.0000
     52 H27        1.1402    2.8918   19.3613 H         1 RES1    0.0000
     53 H28        1.0895    3.9183   20.5886 H         1 RES1    0.0000
     54 H29        1.9326    4.2806   19.2772 H         1 RES1    0.0000
     55 C21       -0.3131    5.8440   19.7176 C.3       1 RES1    0.0000
     56 H30        0.5385    6.3292   19.7440 H         1 RES1    0.0000
     57 H31       -0.6257    5.6809   20.6315 H         1 RES1    0.0000
     58 H32       -0.9785    6.3790   19.2359 H         1 RES1    0.0000
     59 O4         9.2474   10.0769    9.9695 O.2       2 RES2    0.0000
     60 O5         7.9490   10.8491    7.5132 O.3       2 RES2    0.0000
     61 O6        10.3301    6.9436    6.6969 O.3       2 RES2    0.0000
     62 H33       10.9717    6.4108    6.5951 H         2 RES2    0.0000
     63 N3         9.0849    7.9743    9.0784 N.am      2 RES2    0.0000
     64 N4         6.6868   11.5525    7.2590 N.3       2 RES2    0.0000
     65 C22        8.7820    9.2814    9.1552 C.2       2 RES2    0.0000
     66 C23        7.7048    9.5717    8.1012 C.3       2 RES2    0.0000
     67 H34        6.8002    9.5632    8.5301 H         2 RES2    0.0000
     68 C24        7.8368    8.3810    7.1460 C.3       2 RES2    0.0000
     69 H35        6.9600    8.1459    6.7518 H         2 RES2    0.0000
     70 H36        8.4736    8.5844    6.4153 H         2 RES2    0.0000
     71 C25        8.3621    7.2476    8.0236 C.3       2 RES2    0.0000
     72 H37        7.5873    6.7624    8.4311 H         2 RES2    0.0000
     73 C26        9.2376    6.2603    7.2912 C.3       2 RES2    0.0000
     74 H38        9.5732    5.5771    7.9230 H         2 RES2    0.0000
     75 H39        8.7096    5.8006    6.5901 H         2 RES2    0.0000
     76 C27        9.9896    7.2974    9.9998 C.3       2 RES2    0.0000
     77 H40       10.3431    7.9563   10.6481 H         2 RES2    0.0000
     78 H41       10.7562    6.9319    9.4918 H         2 RES2    0.0000
     79 C28        9.3178    6.1756   10.7537 C.ar      2 RES2    0.0000
     80 C29        9.9631    4.9595   10.9335 C.ar      2 RES2    0.0000
     81 H42       10.8390    4.8388   10.5838 H         2 RES2    0.0000
     82 C30        9.3542    3.9236   11.6131 C.ar      2 RES2    0.0000
     83 H43        9.8087    3.0973   11.7303 H         2 RES2    0.0000
     84 C31        8.0714    4.0931   12.1295 C.ar      2 RES2    0.0000
     85 H44        7.6494    3.3855   12.6013 H         2 RES2    0.0000
     86 C32        7.4156    5.2964   11.9497 C.ar      2 RES2    0.0000
     87 H45        6.5370    5.4129   12.2928 H         2 RES2    0.0000
     88 C33        8.0364    6.3356   11.2684 C.ar      2 RES2    0.0000
     89 H46        7.5817    7.1618   11.1529 H         2 RES2    0.0000
     90 C34        6.6508   12.7177    8.2051 C.3       2 RES2    0.0000
     91 C35        5.4076   13.5482    7.8455 C.3       2 RES2    0.0000
     92 H47        4.5979   13.0217    8.0616 H         2 RES2    0.0000
     93 H48        5.3948   14.3638    8.4047 H         2 RES2    0.0000
     94 C36        5.3539   13.9550    6.3757 C.3       2 RES2    0.0000
     95 H49        4.5258   14.4666    6.1942 H         2 RES2    0.0000
     96 H50        6.1308   14.5259    6.1530 H         2 RES2    0.0000
     97 C37        5.3797   12.6849    5.5393 C.3       2 RES2    0.0000
     98 H51        5.3465   12.9306    4.5809 H         2 RES2    0.0000
     99 H52        4.5704   12.1510    5.7422 H         2 RES2    0.0000
    100 C38        6.6249   11.8163    5.7901 C.3       2 RES2    0.0000
    101 C39        7.9105   13.6096    8.2166 C.3       2 RES2    0.0000
    102 H53        8.6968   13.0609    8.4195 H         2 RES2    0.0000
    103 H54        7.8130   14.3056    8.8996 H         2 RES2    0.0000
    104 H55        8.0223   14.0280    7.3374 H         2 RES2    0.0000
    105 C40        6.4547   12.1627    9.6105 C.3       2 RES2    0.0000
    106 H56        5.6897   11.5514    9.6171 H         2 RES2    0.0000
    107 H57        6.2878   12.9020   10.2324 H         2 RES2    0.0000
    108 H58        7.2615   11.6807    9.8877 H         2 RES2    0.0000
    109 C41        7.8609   12.4635    5.1566 C.3       2 RES2    0.0000
    110 H59        7.8915   13.4137    5.3958 H         2 RES2    0.0000
    111 H60        7.8133   12.3734    4.1817 H         2 RES2    0.0000
    112 H61        8.6684   12.0175    5.4882 H         2 RES2    0.0000
    113 C42        6.4022   10.4784    5.0824 C.3       2 RES2    0.0000
    114 H62        7.2352    9.9636    5.0890 H         2 RES2    0.0000
    115 H63        6.1232   10.6405    4.1570 H         2 RES2    0.0000
    116 H64        5.7027    9.9752    5.5509 H         2 RES2    0.0000
@<TRIPOS>BOND
     1    1    7 2
     2    2    6 1
     3    3    4 1
     4    5    7 1
     5    6   32 1
     6    7    8 1
     7    8    2 1
     8    9    8 1
     9   10    8 1
    10   11   10 1
    11   12   10 1
    12   13    5 1
    13   14   13 1
    14   15    3 1
    15   16   15 1
    16   17   15 1
    17   18    5 1
    18   19   18 1
    19   20   18 1
    20   21   18 1
    21   22   21 ar
    22   23   22 1
    23   24   22 ar
    24   25   24 1
    25   26   24 ar
    26   27   26 1
    27   28   26 ar
    28   29   28 1
    29   30   21 ar
    30   31   30 1
    31   32   33 1
    32   33   34 1
    33   35   33 1
    34   36   33 1
    35   37   36 1
    36   38   36 1
    37   39   36 1
    38   40   39 1
    39   41   39 1
    40   42    6 1
    41   43   32 1
    42   44   43 1
    43   45   43 1
    44   46   43 1
    45   47   32 1
    46   48   47 1
    47   49   47 1
    48   50   47 1
    49   51   42 1
    50   52   51 1
    51   53   51 1
    52   54   51 1
    53   55   42 1
    54   56   55 1
    55   57   55 1
    56   58   55 1
    57   59   65 2
    58   60   64 1
    59   61   62 1
    60   63   65 1
    61   64   90 1
    62   65   66 1
    63   66   60 1
    64   67   66 1
    65   68   66 1
    66   69   68 1
    67   70   68 1
    68   71   63 1
    69   72   71 1
    70   73   61 1
    71   74   73 1
    72   75   73 1
    73   76   63 1
    74   77   76 1
    75   78   76 1
    76   79   76 1
    77   80   79 ar
    78   81   80 1
    79   82   80 ar
    80   83   82 1
    81   84   82 ar
    82   85   84 1
    83   86   84 ar
    84   87   86 1
    85   88   79 ar
    86   89   88 1
    87   90   91 1
    88   91   92 1
    89   93   91 1
    90   94   91 1
    91   95   94 1
    92   96   94 1
    93   97   94 1
    94   98   97 1
    95   99   97 1
    96  100   64 1
    97  101   90 1
    98  102  101 1
    99  103  101 1
   100  104  101 1
   101  105   90 1
   102  106  105 1
   103  107  105 1
   104  108  105 1
   105  109  100 1
   106  110  109 1
   107  111  109 1
   108  112  109 1
   109  113  100 1
   110  114  113 1
   111  115  113 1
   112  116  113 1
   113   10   13 1
   114   13   15 1
   115   28   30 ar
   116   39   42 1
   117   68   71 1
   118   71   73 1
   119   86   88 ar
   120   97  100 1
@<TRIPOS>SUBSTRUCTURE
     1 RES1 1
     2 RES2 59

@<TRIPOS>CRYSIN
  11.5796   10.5928   16.6027  90.0000  96.5010  90.0000   4 1

