# MOL2 file generated by ConQuest
# Please check atom types

@<TRIPOS>MOLECULE
OWEJEG
   214   220     2
SMALL
USER_CHARGES
****
Generated from CSD

@<TRIPOS>ATOM
      1 O1         7.7265    5.8283    9.2403 O.2       1 RES1    0.0000
      2 O2         8.0502    6.5927   13.2351 O.2       1 RES1   -1.0000
      3 O3         6.8155   11.7949    9.7353 O.2       2 RES2    0.0000
      4 O4         7.3654   11.3352    5.7160 O.2       2 RES2   -1.0000
      5 N1         6.5347    5.7743   11.1871 N.am      1 RES1    0.0000
      6 H1         6.6021    5.6735   12.0590 H         1 RES1    0.0000
      7 N2         9.1074    6.6234   12.3420 N.4       1 RES1    1.0000
      8 N3         5.6679   11.6514    7.7686 N.am      2 RES2    0.0000
      9 H2         5.7673   11.7515    6.9005 H         2 RES2    0.0000
     10 N4         8.3947   11.5633    6.6203 N.4       2 RES2    1.0000
     11 C1         5.2237    5.9501   10.6250 C.ar      1 RES1    0.0000
     12 C2         4.4815    7.0612   11.0283 C.ar      1 RES1    0.0000
     13 C3         3.2146    7.2276   10.4659 C.ar      1 RES1    0.0000
     14 H3         2.6782    7.9637   10.7357 H         1 RES1    0.0000
     15 C4         2.7251    6.3439    9.5281 C.ar      1 RES1    0.0000
     16 H4         1.8805    6.4955    9.1222 H         1 RES1    0.0000
     17 C5         3.4671    5.2471    9.1884 C.ar      1 RES1    0.0000
     18 H5         3.1095    4.6281    8.5649 H         1 RES1    0.0000
     19 C6         4.7244    5.0062    9.7228 C.ar      1 RES1    0.0000
     20 C7         5.0057    8.0710   12.0501 C.3       1 RES1    0.0000
     21 H6         5.8747    7.7166   12.3962 H         1 RES1    0.0000
     22 C8         4.0460    8.1779   13.2526 C.3       1 RES1    0.0000
     23 H7         3.2390    8.6667   12.9841 H         1 RES1    0.0000
     24 H8         4.4884    8.6557   13.9830 H         1 RES1    0.0000
     25 H9         3.7962    7.2790   13.5529 H         1 RES1    0.0000
     26 C9         5.2676    9.3459   11.4788 C.3       1 RES1    0.0000
     27 H10        5.8599    9.2434   10.7038 H         1 RES1    0.0000
     28 H11        5.7007    9.9208   12.1455 H         1 RES1    0.0000
     29 H12        4.4255    9.7560   11.1937 H         1 RES1    0.0000
     30 C10        5.4695    3.7170    9.3830 C.3       1 RES1    0.0000
     31 H13        6.3948    3.8061    9.7533 H         1 RES1    0.0000
     32 C11        5.6045    3.5040    7.9159 C.3       1 RES1    0.0000
     33 H14        6.1875    2.7333    7.7505 H         1 RES1    0.0000
     34 H15        5.9969    4.3041    7.5049 H         1 RES1    0.0000
     35 H16        4.7216    3.3374    7.5265 H         1 RES1    0.0000
     36 C12        4.8197    2.5374   10.0893 C.3       1 RES1    0.0000
     37 H17        3.8905    2.4514    9.7902 H         1 RES1    0.0000
     38 H18        4.8382    2.6857   11.0576 H         1 RES1    0.0000
     39 H19        5.3102    1.7172    9.8729 H         1 RES1    0.0000
     40 C13        7.6641    5.7562   10.4583 C.2       1 RES1    0.0000
     41 C14        8.9351    5.5391   11.2765 C.3       1 RES1    0.0000
     42 H20        9.7153    5.5947   10.6530 H         1 RES1    0.0000
     43 C15        8.9497    4.1561   11.9267 C.3       1 RES1    0.0000
     44 H21        8.1864    4.0771   12.5514 H         1 RES1    0.0000
     45 H22        8.8472    3.4619   11.2268 H         1 RES1    0.0000
     46 C16       10.2520    3.9227   12.6838 C.3       1 RES1    0.0000
     47 H23       10.2187    3.0464   13.1419 H         1 RES1    0.0000
     48 H24       11.0109    3.9105   12.0476 H         1 RES1    0.0000
     49 C17       10.4593    5.0243   13.7056 C.3       1 RES1    0.0000
     50 H25        9.7486    4.9741   14.3927 H         1 RES1    0.0000
     51 H26       11.3311    4.8954   14.1560 H         1 RES1    0.0000
     52 C18       10.4292    6.3772   13.0541 C.3       1 RES1    0.0000
     53 H27       11.1701    6.4424   12.4026 H         1 RES1    0.0000
     54 H28       10.5648    7.0758   13.7437 H         1 RES1    0.0000
     55 C19        9.1730    7.9390   11.6276 C.3       1 RES1    0.0000
     56 H29        8.3697    8.0260   11.0550 H         1 RES1    0.0000
     57 H30        9.9651    7.9344   11.0334 H         1 RES1    0.0000
     58 C20        9.2544    9.1537   12.5273 C.3       1 RES1    0.0000
     59 H31        8.5140    9.1500   13.0808 H         1 RES1    0.0000
     60 C21        4.3733   11.2303    8.2086 C.ar      2 RES2    0.0000
     61 C22        3.6581   12.0203    9.1184 C.ar      2 RES2    0.0000
     62 C23        2.3660   11.6014    9.4479 C.ar      2 RES2    0.0000
     63 H32        1.8583   12.1103   10.0676 H         2 RES2    0.0000
     64 C24        1.8100   10.4737    8.8995 C.ar      2 RES2    0.0000
     65 H33        0.9273   10.2137    9.1362 H         2 RES2    0.0000
     66 C25        2.5346    9.7245    8.0063 C.ar      2 RES2    0.0000
     67 H34        2.1378    8.9523    7.6220 H         2 RES2    0.0000
     68 C26        3.8402   10.0661    7.6474 C.ar      2 RES2    0.0000
     69 C27        4.1671   13.3265    9.6872 C.3       2 RES2    0.0000
     70 H35        5.0936   13.4541    9.3321 H         2 RES2    0.0000
     71 C28        4.2774   13.3058   11.2116 C.3       2 RES2    0.0000
     72 H36        3.3816   13.3223   11.6047 H         2 RES2    0.0000
     73 H37        4.7808   14.0912   11.5119 H         2 RES2    0.0000
     74 H38        4.7438   12.4930   11.4940 H         2 RES2    0.0000
     75 C29        3.3316   14.5251    9.1935 C.3       2 RES2    0.0000
     76 H39        3.2261   14.4702    8.2213 H         2 RES2    0.0000
     77 H40        3.7906   15.3599    9.4263 H         2 RES2    0.0000
     78 H41        2.4506   14.5068    9.6197 H         2 RES2    0.0000
     79 C30        4.6626    9.1976    6.7096 C.3       2 RES2    0.0000
     80 H42        5.2565    9.8054    6.1816 H         2 RES2    0.0000
     81 C31        5.5747    8.2700    7.5456 C.3       2 RES2    0.0000
     82 H43        5.0214    7.6525    8.0686 H         2 RES2    0.0000
     83 H44        6.1227    8.8114    8.1526 H         2 RES2    0.0000
     84 H45        6.1579    7.7587    6.9463 H         2 RES2    0.0000
     85 C32        3.8443    8.3958    5.7260 C.3       2 RES2    0.0000
     86 H46        4.4440    7.9308    5.1063 H         2 RES2    0.0000
     87 H47        3.2575    8.9981    5.2221 H         2 RES2    0.0000
     88 H48        3.3020    7.7385    6.2108 H         2 RES2    0.0000
     89 C33        6.7472   11.9113    8.5191 C.2       2 RES2    0.0000
     90 C34        7.9247   12.4999    7.7263 C.3       2 RES2    0.0000
     91 H49        8.6862   12.6284    8.3613 H         2 RES2    0.0000
     92 C35        7.5557   13.8739    7.1550 C.3       2 RES2    0.0000
     93 H50        6.7927   13.7781    6.5302 H         2 RES2    0.0000
     94 H51        7.2758   14.4738    7.8905 H         2 RES2    0.0000
     95 C36        8.7399   14.4883    6.4195 C.3       2 RES2    0.0000
     96 H52        8.4659   15.3471    6.0098 H         2 RES2    0.0000
     97 H53        9.4710   14.6716    7.0608 H         2 RES2    0.0000
     98 C37        9.2364   13.5434    5.3392 C.3       2 RES2    0.0000
     99 H54        8.5344   13.4321    4.6495 H         2 RES2    0.0000
    100 H55       10.0373   13.9301    4.9040 H         2 RES2    0.0000
    101 C38        9.5827   12.1980    5.9271 C.3       2 RES2    0.0000
    102 H56       10.3205   12.3062    6.5773 H         2 RES2    0.0000
    103 H57        9.8985   11.5977    5.2056 H         2 RES2    0.0000
    104 C39        8.8354   10.2877    7.2860 C.3       2 RES2    0.0000
    105 H58        8.0939    9.9647    7.8574 H         2 RES2    0.0000
    106 H59        9.5968   10.4975    7.8841 H         2 RES2    0.0000
    107 C40        9.2544    9.1537    6.3673 C.3       2 RES2    0.0000
    108 H60        8.4030    8.8718    5.7769 H         2 RES2    0.0000
    109 O1A       10.7823   12.4791    9.2403 O.2       1 RES1    0.0000
    110 O2A       10.4586   11.7147   13.2351 O.2       1 RES1   -1.0000
    111 O3A       11.6933    6.5125    9.7353 O.2       2 RES2    0.0000
    112 O4A       11.1434    6.9722    5.7160 O.2       2 RES2   -1.0000
    113 N1A       11.9741   12.5331   11.1871 N.am      1 RES1    0.0000
    114 H1A       11.9067   12.6339   12.0590 H         1 RES1    0.0000
    115 N2A        9.4014   11.6840   12.3420 N.4       1 RES1    1.0000
    116 N3A       12.8409    6.6560    7.7686 N.am      2 RES2    0.0000
    117 H2A       12.7415    6.5559    6.9005 H         2 RES2    0.0000
    118 N4A       10.1141    6.7441    6.6203 N.4       2 RES2    1.0000
    119 C1A       13.2851   12.3573   10.6250 C.ar      1 RES1    0.0000
    120 C2A       14.0273   11.2462   11.0283 C.ar      1 RES1    0.0000
    121 C3A       15.2942   11.0798   10.4659 C.ar      1 RES1    0.0000
    122 H3A       15.8306   10.3437   10.7357 H         1 RES1    0.0000
    123 C4A       15.7837   11.9635    9.5281 C.ar      1 RES1    0.0000
    124 H4A       16.6283   11.8119    9.1222 H         1 RES1    0.0000
    125 C5A       15.0417   13.0603    9.1884 C.ar      1 RES1    0.0000
    126 H5A       15.3993   13.6793    8.5649 H         1 RES1    0.0000
    127 C6A       13.7844   13.3012    9.7228 C.ar      1 RES1    0.0000
    128 C7A       13.5031   10.2364   12.0501 C.3       1 RES1    0.0000
    129 H6A       12.6341   10.5908   12.3962 H         1 RES1    0.0000
    130 C8A       14.4628   10.1295   13.2526 C.3       1 RES1    0.0000
    131 H7A       15.2698    9.6407   12.9841 H         1 RES1    0.0000
    132 H8A       14.0204    9.6517   13.9830 H         1 RES1    0.0000
    133 H9A       14.7126   11.0284   13.5529 H         1 RES1    0.0000
    134 C9A       13.2412    8.9615   11.4788 C.3       1 RES1    0.0000
    135 H10A      12.6489    9.0640   10.7038 H         1 RES1    0.0000
    136 H11A      12.8081    8.3866   12.1455 H         1 RES1    0.0000
    137 H12A      14.0833    8.5514   11.1937 H         1 RES1    0.0000
    138 C10A      13.0393   14.5904    9.3830 C.3       1 RES1    0.0000
    139 H13A      12.1140   14.5013    9.7533 H         1 RES1    0.0000
    140 C11A      12.9043   14.8034    7.9159 C.3       1 RES1    0.0000
    141 H14A      12.3213   15.5741    7.7505 H         1 RES1    0.0000
    142 H15A      12.5119   14.0033    7.5049 H         1 RES1    0.0000
    143 H16A      13.7872   14.9700    7.5265 H         1 RES1    0.0000
    144 C12A      13.6891   15.7700   10.0893 C.3       1 RES1    0.0000
    145 H17A      14.6183   15.8560    9.7902 H         1 RES1    0.0000
    146 H18A      13.6706   15.6217   11.0576 H         1 RES1    0.0000
    147 H19A      13.1986   16.5902    9.8729 H         1 RES1    0.0000
    148 C13A      10.8447   12.5512   10.4583 C.2       1 RES1    0.0000
    149 C14A       9.5737   12.7683   11.2765 C.3       1 RES1    0.0000
    150 H20A       8.7935   12.7127   10.6530 H         1 RES1    0.0000
    151 C15A       9.5591   14.1513   11.9267 C.3       1 RES1    0.0000
    152 H21A      10.3224   14.2303   12.5514 H         1 RES1    0.0000
    153 H22A       9.6616   14.8455   11.2268 H         1 RES1    0.0000
    154 C16A       8.2568   14.3847   12.6838 C.3       1 RES1    0.0000
    155 H23A       8.2901   15.2610   13.1419 H         1 RES1    0.0000
    156 H24A       7.4979   14.3969   12.0476 H         1 RES1    0.0000
    157 C17A       8.0495   13.2831   13.7056 C.3       1 RES1    0.0000
    158 H25A       8.7602   13.3333   14.3927 H         1 RES1    0.0000
    159 H26A       7.1777   13.4120   14.1560 H         1 RES1    0.0000
    160 C18A       8.0796   11.9302   13.0541 C.3       1 RES1    0.0000
    161 H27A       7.3387   11.8650   12.4026 H         1 RES1    0.0000
    162 H28A       7.9440   11.2316   13.7437 H         1 RES1    0.0000
    163 C19A       9.3358   10.3684   11.6276 C.3       1 RES1    0.0000
    164 H29A      10.1391   10.2814   11.0550 H         1 RES1    0.0000
    165 H30A       8.5437   10.3730   11.0334 H         1 RES1    0.0000
    166 H31A       9.9948    9.1574   13.0808 H         1 RES1    0.0000
    167 C21A      14.1355    7.0771    8.2086 C.ar      2 RES2    0.0000
    168 C22A      14.8507    6.2871    9.1184 C.ar      2 RES2    0.0000
    169 C23A      16.1428    6.7060    9.4479 C.ar      2 RES2    0.0000
    170 H32A      16.6505    6.1971   10.0676 H         2 RES2    0.0000
    171 C24A      16.6988    7.8337    8.8995 C.ar      2 RES2    0.0000
    172 H33A      17.5815    8.0937    9.1362 H         2 RES2    0.0000
    173 C25A      15.9742    8.5829    8.0063 C.ar      2 RES2    0.0000
    174 H34A      16.3710    9.3551    7.6220 H         2 RES2    0.0000
    175 C26A      14.6686    8.2413    7.6474 C.ar      2 RES2    0.0000
    176 C27A      14.3417    4.9809    9.6872 C.3       2 RES2    0.0000
    177 H35A      13.4152    4.8533    9.3321 H         2 RES2    0.0000
    178 C28A      14.2314    5.0016   11.2116 C.3       2 RES2    0.0000
    179 H36A      15.1272    4.9851   11.6047 H         2 RES2    0.0000
    180 H37A      13.7280    4.2162   11.5119 H         2 RES2    0.0000
    181 H38A      13.7650    5.8144   11.4940 H         2 RES2    0.0000
    182 C29A      15.1772    3.7823    9.1935 C.3       2 RES2    0.0000
    183 H39A      15.2827    3.8372    8.2213 H         2 RES2    0.0000
    184 H40A      14.7182    2.9475    9.4263 H         2 RES2    0.0000
    185 H41A      16.0582    3.8006    9.6197 H         2 RES2    0.0000
    186 C30A      13.8462    9.1098    6.7096 C.3       2 RES2    0.0000
    187 H42A      13.2523    8.5020    6.1816 H         2 RES2    0.0000
    188 C31A      12.9341   10.0374    7.5456 C.3       2 RES2    0.0000
    189 H43A      13.4874   10.6549    8.0686 H         2 RES2    0.0000
    190 H44A      12.3861    9.4960    8.1526 H         2 RES2    0.0000
    191 H45A      12.3509   10.5487    6.9463 H         2 RES2    0.0000
    192 C32A      14.6645    9.9116    5.7260 C.3       2 RES2    0.0000
    193 H46A      14.0648   10.3766    5.1063 H         2 RES2    0.0000
    194 H47A      15.2513    9.3093    5.2221 H         2 RES2    0.0000
    195 H48A      15.2068   10.5689    6.2108 H         2 RES2    0.0000
    196 C33A      11.7616    6.3961    8.5191 C.2       2 RES2    0.0000
    197 C34A      10.5841    5.8075    7.7263 C.3       2 RES2    0.0000
    198 H49A       9.8226    5.6790    8.3613 H         2 RES2    0.0000
    199 C35A      10.9531    4.4335    7.1550 C.3       2 RES2    0.0000
    200 H50A      11.7161    4.5293    6.5302 H         2 RES2    0.0000
    201 H51A      11.2330    3.8336    7.8905 H         2 RES2    0.0000
    202 C36A       9.7689    3.8191    6.4195 C.3       2 RES2    0.0000
    203 H52A      10.0429    2.9603    6.0098 H         2 RES2    0.0000
    204 H53A       9.0378    3.6358    7.0608 H         2 RES2    0.0000
    205 C37A       9.2724    4.7640    5.3392 C.3       2 RES2    0.0000
    206 H54A       9.9744    4.8753    4.6495 H         2 RES2    0.0000
    207 H55A       8.4715    4.3773    4.9040 H         2 RES2    0.0000
    208 C38A       8.9261    6.1094    5.9271 C.3       2 RES2    0.0000
    209 H56A       8.1883    6.0012    6.5773 H         2 RES2    0.0000
    210 H57A       8.6103    6.7097    5.2056 H         2 RES2    0.0000
    211 C39A       9.6734    8.0197    7.2860 C.3       2 RES2    0.0000
    212 H58A      10.4149    8.3427    7.8574 H         2 RES2    0.0000
    213 H59A       8.9120    7.8099    7.8841 H         2 RES2    0.0000
    214 H60A      10.1058    9.4356    5.7769 H         2 RES2    0.0000
@<TRIPOS>BOND
     1    1   40 2
     2    2    7 1
     3    3   89 2
     4    4   10 1
     5    5    6 1
     6    7   41 1
     7    8    9 1
     8   10   90 1
     9   11    5 1
    10   12   11 ar
    11   13   12 ar
    12   14   13 1
    13   15   13 ar
    14   16   15 1
    15   17   15 ar
    16   18   17 1
    17   19   11 ar
    18   20   12 1
    19   21   20 1
    20   22   20 1
    21   23   22 1
    22   24   22 1
    23   25   22 1
    24   26   20 1
    25   27   26 1
    26   28   26 1
    27   29   26 1
    28   30   19 1
    29   31   30 1
    30   32   30 1
    31   33   32 1
    32   34   32 1
    33   35   32 1
    34   36   30 1
    35   37   36 1
    36   38   36 1
    37   39   36 1
    38   40    5 1
    39   41   40 1
    40   42   41 1
    41   43   41 1
    42   44   43 1
    43   45   43 1
    44   46   43 1
    45   47   46 1
    46   48   46 1
    47   49   46 1
    48   50   49 1
    49   51   49 1
    50   52    7 1
    51   53   52 1
    52   54   52 1
    53   55    7 1
    54   56   55 1
    55   57   55 1
    56   58   55 1
    57   59   58 1
    58   60    8 1
    59   61   60 ar
    60   62   61 ar
    61   63   62 1
    62   64   62 ar
    63   65   64 1
    64   66   64 ar
    65   67   66 1
    66   68   60 ar
    67   69   61 1
    68   70   69 1
    69   71   69 1
    70   72   71 1
    71   73   71 1
    72   74   71 1
    73   75   69 1
    74   76   75 1
    75   77   75 1
    76   78   75 1
    77   79   68 1
    78   80   79 1
    79   81   79 1
    80   82   81 1
    81   83   81 1
    82   84   81 1
    83   85   79 1
    84   86   85 1
    85   87   85 1
    86   88   85 1
    87   89    8 1
    88   90   89 1
    89   91   90 1
    90   92   90 1
    91   93   92 1
    92   94   92 1
    93   95   92 1
    94   96   95 1
    95   97   95 1
    96   98   95 1
    97   99   98 1
    98  100   98 1
    99  101   10 1
   100  102  101 1
   101  103  101 1
   102  104   10 1
   103  105  104 1
   104  106  104 1
   105  107  104 1
   106  108  107 1
   107  109  148 2
   108  110  115 1
   109  111  196 2
   110  112  118 1
   111  113  114 1
   112  115  149 1
   113  116  117 1
   114  118  197 1
   115  119  113 1
   116  120  119 ar
   117  121  120 ar
   118  122  121 1
   119  123  121 ar
   120  124  123 1
   121  125  123 ar
   122  126  125 1
   123  127  119 ar
   124  128  120 1
   125  129  128 1
   126  130  128 1
   127  131  130 1
   128  132  130 1
   129  133  130 1
   130  134  128 1
   131  135  134 1
   132  136  134 1
   133  137  134 1
   134  138  127 1
   135  139  138 1
   136  140  138 1
   137  141  140 1
   138  142  140 1
   139  143  140 1
   140  144  138 1
   141  145  144 1
   142  146  144 1
   143  147  144 1
   144  148  113 1
   145  149  148 1
   146  150  149 1
   147  151  149 1
   148  152  151 1
   149  153  151 1
   150  154  151 1
   151  155  154 1
   152  156  154 1
   153  157  154 1
   154  158  157 1
   155  159  157 1
   156  160  115 1
   157  161  160 1
   158  162  160 1
   159  163   58 1
   160  164  163 1
   161  165  163 1
   162  166   58 1
   163  167  116 1
   164  168  167 ar
   165  169  168 ar
   166  170  169 1
   167  171  169 ar
   168  172  171 1
   169  173  171 ar
   170  174  173 1
   171  175  167 ar
   172  176  168 1
   173  177  176 1
   174  178  176 1
   175  179  178 1
   176  180  178 1
   177  181  178 1
   178  182  176 1
   179  183  182 1
   180  184  182 1
   181  185  182 1
   182  186  175 1
   183  187  186 1
   184  188  186 1
   185  189  188 1
   186  190  188 1
   187  191  188 1
   188  192  186 1
   189  193  192 1
   190  194  192 1
   191  195  192 1
   192  196  116 1
   193  197  196 1
   194  198  197 1
   195  199  197 1
   196  200  199 1
   197  201  199 1
   198  202  199 1
   199  203  202 1
   200  204  202 1
   201  205  202 1
   202  206  205 1
   203  207  205 1
   204  208  118 1
   205  209  208 1
   206  210  208 1
   207  211  107 1
   208  212  211 1
   209  213  211 1
   210  214  107 1
   211   17   19 ar
   212   49   52 1
   213   66   68 ar
   214   98  101 1
   215  115  163 1
   216  118  211 1
   217  125  127 ar
   218  157  160 1
   219  173  175 ar
   220  205  208 1
@<TRIPOS>SUBSTRUCTURE
     1 RES1 1
     2 RES2 3

@<TRIPOS>CRYSIN
  18.5088   18.3074   12.7245  90.0000  90.0000  90.0000  18 1

