# MOL2 file generated by ConQuest
# Please check atom types

@<TRIPOS>MOLECULE
OWOFIR
   128   132     1
SMALL
NO_CHARGES
****
Generated from CSD

@<TRIPOS>ATOM
      1 C1         4.3194    3.9281   -5.1620 C.3       1 RES1    0.0000
      2 H1         5.2200    3.7422   -5.4364 H         1 RES1    0.0000
      3 H2         3.7081    3.4348   -5.7143 H         1 RES1    0.0000
      4 H3         4.2031    3.6690   -4.2450 H         1 RES1    0.0000
      5 N1         4.0563    5.3435   -5.2981 N.am      1 RES1    0.0000
      6 O1         6.1282    5.8721   -5.9043 O.2       1 RES1    0.0000
      7 O2         5.0029    8.1929   -3.5144 O.3       1 RES1    0.0000
      8 O3         2.1216    6.4336   -2.7159 O.3       1 RES1    0.0000
      9 H4         1.4600    6.2960   -2.2515 H         1 RES1    0.0000
     10 O4         3.3109    3.9243   -2.0029 O.2       1 RES1    0.0000
     11 O5         0.2922    4.2439   -0.0352 O.3       1 RES1    0.0000
     12 O6        -1.8241    4.9416   -0.5488 O.3       1 RES1    0.0000
     13 O7        -1.6645    8.3033   -1.9888 O.3       1 RES1    0.0000
     14 H5        -1.5595    7.9437   -2.7182 H         1 RES1    0.0000
     15 O8        -0.6800    5.8105   -2.4063 O.3       1 RES1    0.0000
     16 O9        -1.4529    7.0866   -4.7176 O.3       1 RES1    0.0000
     17 O10       -2.4951    7.3093   -7.4241 O.3       1 RES1    0.0000
     18 H6        -2.8432    6.8840   -6.8143 H         1 RES1    0.0000
     19 O11        2.7074    5.6973   -5.2300 O.3       1 RES1    0.0000
     20 H7         2.5036    5.8492   -4.4514 H         1 RES1    0.0000
     21 C2         4.9678    6.2353   -5.6862 C.2       1 RES1    0.0000
     22 C3         4.5611    7.6864   -5.8703 C.3       1 RES1    0.0000
     23 H8         3.6083    7.7811   -5.6627 H         1 RES1    0.0000
     24 C4         5.3866    8.5228   -4.8630 C.3       1 RES1    0.0000
     25 H9         6.3174    8.2333   -4.9627 H         1 RES1    0.0000
     26 C5         5.3862   10.0257   -5.0647 C.3       1 RES1    0.0000
     27 H10        5.5025   10.2205   -6.0075 H         1 RES1    0.0000
     28 H11        6.1351   10.4118   -4.5851 H         1 RES1    0.0000
     29 C6         4.0948   10.6637   -4.5769 C.3       1 RES1    0.0000
     30 H12        3.3573   10.3689   -5.1339 H         1 RES1    0.0000
     31 H13        4.1625   11.6288   -4.6531 H         1 RES1    0.0000
     32 C7         3.8175   10.2884   -3.1251 C.3       1 RES1    0.0000
     33 H14        2.9320   10.6352   -2.8894 H         1 RES1    0.0000
     34 C8         3.7576    8.7658   -3.0571 C.3       1 RES1    0.0000
     35 H15        3.0485    8.4674   -3.6634 H         1 RES1    0.0000
     36 C9         3.4939    8.1385   -1.6828 C.3       1 RES1    0.0000
     37 H16        4.2975    8.2583   -1.1351 H         1 RES1    0.0000
     38 C10        3.2664    6.6374   -1.8704 C.3       1 RES1    0.0000
     39 H17        4.0448    6.2871   -2.3512 H         1 RES1    0.0000
     40 C11        3.1224    5.8117   -0.5898 C.3       1 RES1    0.0000
     41 H18        2.3114    6.1048   -0.1231 H         1 RES1    0.0000
     42 C12        2.9788    4.3373   -0.9182 C.2       1 RES1    0.0000
     43 C13        2.4853    3.3598    0.1442 C.3       1 RES1    0.0000
     44 H19        3.2219    3.2472    0.7810 H         1 RES1    0.0000
     45 C14        1.3164    3.9531    0.9370 C.3       1 RES1    0.0000
     46 H20        1.6172    4.8056    1.3157 H         1 RES1    0.0000
     47 C15        0.7594    3.1114    2.0803 C.3       1 RES1    0.0000
     48 H21        0.4234    2.2661    1.7144 H         1 RES1    0.0000
     49 C16       -0.4057    3.8798    2.6854 C.3       1 RES1    0.0000
     50 H22       -0.8220    3.3348    3.3702 H         1 RES1    0.0000
     51 H23       -0.0675    4.6840    3.1099 H         1 RES1    0.0000
     52 C17       -1.4541    4.2676    1.6593 C.3       1 RES1    0.0000
     53 H24       -1.8405    3.4348    1.3169 H         1 RES1    0.0000
     54 C18       -0.8399    4.9950    0.4632 C.3       1 RES1    0.0000
     55 C19       -0.4188    6.4015    0.7704 C.2       1 RES1    0.0000
     56 H25        0.1922    6.5444    1.4576 H         1 RES1    0.0000
     57 C20       -0.8783    7.4416    0.1044 C.2       1 RES1    0.0000
     58 H26       -0.5730    8.2904    0.3342 H         1 RES1    0.0000
     59 C21       -1.8674    7.3129   -0.9979 C.3       1 RES1    0.0000
     60 H27       -2.7584    7.4523   -0.6156 H         1 RES1    0.0000
     61 C22       -1.8332    5.9100   -1.5878 C.3       1 RES1    0.0000
     62 C23       -3.0080    5.5830   -2.4884 C.3       1 RES1    0.0000
     63 H28       -3.7196    5.1523   -1.9900 H         1 RES1    0.0000
     64 H29       -3.3562    6.3854   -2.9094 H         1 RES1    0.0000
     65 C24       -2.4167    4.6429   -3.5156 C.3       1 RES1    0.0000
     66 H30       -2.8560    4.7520   -4.3728 H         1 RES1    0.0000
     67 H31       -2.5114    3.7208   -3.2307 H         1 RES1    0.0000
     68 C25       -0.9459    5.0272   -3.6118 C.3       1 RES1    0.0000
     69 C26       -0.5908    5.9404   -4.7762 C.3       1 RES1    0.0000
     70 H32        0.3268    6.2531   -4.6367 H         1 RES1    0.0000
     71 C27       -0.6572    5.3292   -6.1506 C.3       1 RES1    0.0000
     72 H33       -1.5549    5.0004   -6.3159 H         1 RES1    0.0000
     73 H34       -0.0474    4.5768   -6.1998 H         1 RES1    0.0000
     74 C28       -0.2872    6.3532   -7.2095 C.3       1 RES1    0.0000
     75 H35       -0.4159    5.9672   -8.0890 H         1 RES1    0.0000
     76 H36        0.6498    6.5855   -7.1180 H         1 RES1    0.0000
     77 C29       -1.1339    7.6096   -7.0817 C.3       1 RES1    0.0000
     78 C30       -1.0927    8.1296   -5.6416 C.3       1 RES1    0.0000
     79 H37       -1.7881    8.8159   -5.5725 H         1 RES1    0.0000
     80 C31        0.2181    8.7962   -5.2312 C.3       1 RES1    0.0000
     81 H38        0.2380    8.9016   -4.2778 H         1 RES1    0.0000
     82 H39        0.2842    9.6576   -5.6499 H         1 RES1    0.0000
     83 H40        0.9563    8.2476   -5.5091 H         1 RES1    0.0000
     84 C32       -0.7024    8.6586   -8.1066 C.3       1 RES1    0.0000
     85 H41        0.2211    8.8945   -7.9260 H         1 RES1    0.0000
     86 H42       -0.7291    8.2493   -8.9861 H         1 RES1    0.0000
     87 C33       -1.5100    9.9221   -8.1535 C.3       1 RES1    0.0000
     88 H43       -2.4167    9.7130   -8.3880 H         1 RES1    0.0000
     89 H44       -1.1378   10.5154   -8.8102 H         1 RES1    0.0000
     90 H45       -1.4913   10.3456   -7.2916 H         1 RES1    0.0000
     91 C34       -0.0389    3.7923   -3.5825 C.3       1 RES1    0.0000
     92 H46        0.8751    4.0657   -3.6868 H         1 RES1    0.0000
     93 H47       -0.2819    3.2007   -4.2978 H         1 RES1    0.0000
     94 H48       -0.1438    3.3383   -2.7428 H         1 RES1    0.0000
     95 C35       -2.6023    5.0665    2.2855 C.3       1 RES1    0.0000
     96 H49       -3.0212    4.5411    2.9715 H         1 RES1    0.0000
     97 H50       -3.2485    5.2827    1.6089 H         1 RES1    0.0000
     98 H51       -2.2563    5.8761    2.6690 H         1 RES1    0.0000
     99 C36        1.8251    2.8040    3.1263 C.3       1 RES1    0.0000
    100 H52        2.4565    2.1767    2.7651 H         1 RES1    0.0000
    101 H53        1.4100    2.4251    3.9049 H         1 RES1    0.0000
    102 H54        2.2808    3.6136    3.3679 H         1 RES1    0.0000
    103 C37        2.2099    1.9766   -0.4468 C.3       1 RES1    0.0000
    104 H55        1.6879    1.4672    0.1923 H         1 RES1    0.0000
    105 H56        1.6693    2.0856   -1.2442 H         1 RES1    0.0000
    106 C38        3.4343    1.1831   -0.8033 C.3       1 RES1    0.0000
    107 H57        3.9658    1.6781   -1.4306 H         1 RES1    0.0000
    108 H58        3.1698    0.3485   -1.1973 H         1 RES1    0.0000
    109 H59        3.9487    1.0133   -0.0106 H         1 RES1    0.0000
    110 C39        4.3189    6.0047    0.3518 C.3       1 RES1    0.0000
    111 H60        4.2155    5.4382    1.1199 H         1 RES1    0.0000
    112 H61        4.3603    6.9215    0.6332 H         1 RES1    0.0000
    113 H62        5.1293    5.7742   -0.1091 H         1 RES1    0.0000
    114 C40        2.3311    8.8034   -0.9651 C.3       1 RES1    0.0000
    115 H63        2.5290    9.7327   -0.8267 H         1 RES1    0.0000
    116 H64        2.1937    8.3762   -0.1161 H         1 RES1    0.0000
    117 H65        1.5364    8.7211   -1.4975 H         1 RES1    0.0000
    118 C41        4.8274   10.8853   -2.1518 C.3       1 RES1    0.0000
    119 H66        5.6537   10.4010   -2.2105 H         1 RES1    0.0000
    120 H67        4.4834   10.8246   -1.2571 H         1 RES1    0.0000
    121 H68        4.9790   11.8075   -2.3735 H         1 RES1    0.0000
    122 C42        4.7974    8.0581   -7.3502 C.3       1 RES1    0.0000
    123 H69        5.6747    8.4656   -7.4311 H         1 RES1    0.0000
    124 H70        4.8055    7.2414   -7.8767 H         1 RES1    0.0000
    125 C43        3.7812    8.9928   -7.9354 C.3       1 RES1    0.0000
    126 H71        2.9243    8.5621   -7.9541 H         1 RES1    0.0000
    127 H72        4.0406    9.2287   -8.8289 H         1 RES1    0.0000
    128 H73        3.7301    9.7845   -7.3971 H         1 RES1    0.0000
@<TRIPOS>BOND
     1    1    2 1
     2    3    1 1
     3    4    1 1
     4    5    1 1
     5    6   21 2
     6    7   24 1
     7    8    9 1
     8   10   42 2
     9   11   45 1
    10   12   54 1
    11   13   14 1
    12   15   61 1
    13   16   69 1
    14   17   18 1
    15   19    5 1
    16   20   19 1
    17   21    5 1
    18   22   21 1
    19   23   22 1
    20   24   22 1
    21   25   24 1
    22   26   24 1
    23   27   26 1
    24   28   26 1
    25   29   26 1
    26   30   29 1
    27   31   29 1
    28   32   29 1
    29   33   32 1
    30   34    7 1
    31   35   34 1
    32   36   34 1
    33   37   36 1
    34   38    8 1
    35   39   38 1
    36   40   38 1
    37   41   40 1
    38   42   40 1
    39   43   42 1
    40   44   43 1
    41   45   43 1
    42   46   45 1
    43   47   45 1
    44   48   47 1
    45   49   47 1
    46   50   49 1
    47   51   49 1
    48   52   49 1
    49   53   52 1
    50   54   11 1
    51   55   54 1
    52   56   55 1
    53   57   55 2
    54   58   57 1
    55   59   13 1
    56   60   59 1
    57   61   12 1
    58   62   61 1
    59   63   62 1
    60   64   62 1
    61   65   62 1
    62   66   65 1
    63   67   65 1
    64   68   15 1
    65   69   68 1
    66   70   69 1
    67   71   69 1
    68   72   71 1
    69   73   71 1
    70   74   71 1
    71   75   74 1
    72   76   74 1
    73   77   17 1
    74   78   16 1
    75   79   78 1
    76   80   78 1
    77   81   80 1
    78   82   80 1
    79   83   80 1
    80   84   77 1
    81   85   84 1
    82   86   84 1
    83   87   84 1
    84   88   87 1
    85   89   87 1
    86   90   87 1
    87   91   68 1
    88   92   91 1
    89   93   91 1
    90   94   91 1
    91   95   52 1
    92   96   95 1
    93   97   95 1
    94   98   95 1
    95   99   47 1
    96  100   99 1
    97  101   99 1
    98  102   99 1
    99  103   43 1
   100  104  103 1
   101  105  103 1
   102  106  103 1
   103  107  106 1
   104  108  106 1
   105  109  106 1
   106  110   40 1
   107  111  110 1
   108  112  110 1
   109  113  110 1
   110  114   36 1
   111  115  114 1
   112  116  114 1
   113  117  114 1
   114  118   32 1
   115  119  118 1
   116  120  118 1
   117  121  118 1
   118  122   22 1
   119  123  122 1
   120  124  122 1
   121  125  122 1
   122  126  125 1
   123  127  125 1
   124  128  125 1
   125   32   34 1
   126   36   38 1
   127   52   54 1
   128   57   59 1
   129   59   61 1
   130   65   68 1
   131   74   77 1
   132   77   78 1
@<TRIPOS>SUBSTRUCTURE
     1 RES1 1

@<TRIPOS>CRYSIN
  10.5145   17.8712   12.8433  90.0000 114.0700  90.0000   4 1

