# MOL2 file generated by ConQuest
# Please check atom types

@<TRIPOS>MOLECULE
OWOFEN
   256   264     2
SMALL
NO_CHARGES
****
Generated from CSD

@<TRIPOS>ATOM
      1 C1        -5.1981   15.4076    3.4210 C.2       1 RES1    0.0000
      2 C2        -4.9525   16.8955    3.4960 C.3       1 RES1    0.0000
      3 H1        -4.2549   17.0450    4.1678 H         1 RES1    0.0000
      4 C3        -4.4160   17.3903    2.1613 C.3       1 RES1    0.0000
      5 H2        -4.9543   16.9657    1.4609 H         1 RES1    0.0000
      6 C4        -4.4784   18.8782    1.9236 C.3       1 RES1    0.0000
      7 H3        -5.3745   19.1976    2.1185 H         1 RES1    0.0000
      8 H4        -4.2923   19.0628    0.9891 H         1 RES1    0.0000
      9 C5        -3.4824   19.6204    2.7889 C.3       1 RES1    0.0000
     10 H5        -3.7280   19.5225    3.7234 H         1 RES1    0.0000
     11 H6        -3.5030   20.5656    2.5703 H         1 RES1    0.0000
     12 C6        -2.0630   19.0739    2.5714 C.3       1 RES1    0.0000
     13 H7        -1.4793   19.4764    3.2479 H         1 RES1    0.0000
     14 C7        -2.0808   17.5767    2.8102 C.3       1 RES1    0.0000
     15 H8        -2.3244   17.4253    3.7470 H         1 RES1    0.0000
     16 C8        -0.7744   16.8420    2.5444 C.3       1 RES1    0.0000
     17 H9        -0.5755   16.9343    1.5903 H         1 RES1    0.0000
     18 C9        -0.9276   15.3466    2.8370 C.3       1 RES1    0.0000
     19 H10       -1.6668   15.0217    2.2807 H         1 RES1    0.0000
     20 C10        0.2855   14.4937    2.5074 C.3       1 RES1    0.0000
     21 H11        0.9910   14.7060    3.1532 H         1 RES1    0.0000
     22 C11       -0.0343   13.0113    2.6253 C.2       1 RES1    0.0000
     23 C12        1.0864   11.9793    2.4603 C.3       1 RES1    0.0000
     24 H12        1.3191   11.9701    1.5083 H         1 RES1    0.0000
     25 C13        2.3366   12.4536    3.2120 C.3       1 RES1    0.0000
     26 H13        2.5912   13.3307    2.8581 H         1 RES1    0.0000
     27 C14        3.5608   11.5387    3.1470 C.3       1 RES1    0.0000
     28 H14        3.3230   10.6557    3.4993 H         1 RES1    0.0000
     29 C15        4.6386   12.1603    4.0334 C.3       1 RES1    0.0000
     30 H15        5.3955   11.5547    4.0822 H         1 RES1    0.0000
     31 H16        4.9448   12.9855    3.6268 H         1 RES1    0.0000
     32 C16        4.1431   12.4519    5.4397 C.3       1 RES1    0.0000
     33 H17        3.9343   11.5917    5.8601 H         1 RES1    0.0000
     34 C17        2.8623   13.2753    5.4291 C.3       1 RES1    0.0000
     35 C18        3.0610   14.7027    5.0269 C.2       1 RES1    0.0000
     36 H18        3.4764   14.8814    4.2152 H         1 RES1    0.0000
     37 C19        2.6723   15.7140    5.7712 C.2       1 RES1    0.0000
     38 H19        2.8344   16.5798    5.4721 H         1 RES1    0.0000
     39 C20        1.9776   15.5220    7.0864 C.3       1 RES1    0.0000
     40 H20        2.6502   15.6125    7.7928 H         1 RES1    0.0000
     41 C21        1.3933   14.1337    7.1895 C.3       1 RES1    0.0000
     42 C22        1.0024   13.7184    8.6051 C.3       1 RES1    0.0000
     43 H21        1.7233   13.2273    9.0297 H         1 RES1    0.0000
     44 H22        0.7939   14.4974    9.1463 H         1 RES1    0.0000
     45 C23       -0.2170   12.8433    8.4324 C.3       1 RES1    0.0000
     46 H23       -0.8246   12.9467    9.1809 H         1 RES1    0.0000
     47 H24        0.0374   11.9092    8.3612 H         1 RES1    0.0000
     48 C24       -0.8723   13.3362    7.1225 C.3       1 RES1    0.0000
     49 C25       -2.0346   14.2870    7.3291 C.3       1 RES1    0.0000
     50 H25       -2.2346   14.7023    6.4649 H         1 RES1    0.0000
     51 C26       -3.3134   13.6704    7.8475 C.3       1 RES1    0.0000
     52 H26       -3.1369   13.1996    8.6781 H         1 RES1    0.0000
     53 H27       -3.6527   13.0298    7.2026 H         1 RES1    0.0000
     54 C27       -4.3527   14.7614    8.0843 C.3       1 RES1    0.0000
     55 H28       -4.6143   15.1417    7.2300 H         1 RES1    0.0000
     56 H29       -5.1413   14.3664    8.4887 H         1 RES1    0.0000
     57 C28       -3.8367   15.8728    8.9842 C.3       1 RES1    0.0000
     58 C29       -2.5175   16.4026    8.4053 C.3       1 RES1    0.0000
     59 H30       -2.1306   16.9878    9.0898 H         1 RES1    0.0000
     60 C30       -2.6681   17.2481    7.1498 C.3       1 RES1    0.0000
     61 H31       -1.8027   17.5453    6.8584 H         1 RES1    0.0000
     62 H32       -3.2212   18.0106    7.3411 H         1 RES1    0.0000
     63 H33       -3.0758   16.7238    6.4558 H         1 RES1    0.0000
     64 C31       -4.8846   16.9638    9.1463 C.3       1 RES1    0.0000
     65 H34       -5.1109   17.3053    8.2683 H         1 RES1    0.0000
     66 H35       -5.6871   16.5669    9.5197 H         1 RES1    0.0000
     67 C32       -4.4779   18.1287   10.0225 C.3       1 RES1    0.0000
     68 H36       -5.1945   18.7656   10.0607 H         1 RES1    0.0000
     69 H37       -3.6955   18.5478    9.6545 H         1 RES1    0.0000
     70 H38       -4.2835   17.8112   10.9078 H         1 RES1    0.0000
     71 C33       -1.2440   12.1843    6.2117 C.3       1 RES1    0.0000
     72 H39       -0.4888   11.5990    6.1097 H         1 RES1    0.0000
     73 H40       -1.5019   12.5258    5.3519 H         1 RES1    0.0000
     74 H41       -1.9761   11.6969    6.5942 H         1 RES1    0.0000
     75 C34        5.2370   13.1110    6.2733 C.3       1 RES1    0.0000
     76 H42        4.9089   13.2753    7.1589 H         1 RES1    0.0000
     77 H43        5.4926   13.9417    5.8656 H         1 RES1    0.0000
     78 H44        5.9999   12.5295    6.3173 H         1 RES1    0.0000
     79 C35        4.0614   11.3867    1.7041 C.3       1 RES1    0.0000
     80 H45        3.3726   10.9880    1.1677 H         1 RES1    0.0000
     81 H46        4.8410   10.8274    1.6923 H         1 RES1    0.0000
     82 H47        4.2831   12.2507    1.3498 H         1 RES1    0.0000
     83 C36        0.6483   10.5763    2.8126 C.3       1 RES1    0.0000
     84 H48        0.2762   10.5911    3.7088 H         1 RES1    0.0000
     85 H49        1.4349   10.0096    2.8344 H         1 RES1    0.0000
     86 C37       -0.3756    9.9376    1.8799 C.3       1 RES1    0.0000
     87 H50       -0.5843    9.0533    2.1896 H         1 RES1    0.0000
     88 H51       -0.0130    9.8896    0.9928 H         1 RES1    0.0000
     89 H52       -1.1746   10.4711    1.8690 H         1 RES1    0.0000
     90 C38        0.8249   14.7836    1.1037 C.3       1 RES1    0.0000
     91 H53        1.0287   15.7177    1.0256 H         1 RES1    0.0000
     92 H54        0.1612   14.5454    0.4518 H         1 RES1    0.0000
     93 H55        1.6202   14.2685    0.9545 H         1 RES1    0.0000
     94 C39        0.3844   17.4604    3.3153 C.3       1 RES1    0.0000
     95 H56        1.1940   16.9878    3.1095 H         1 RES1    0.0000
     96 H57        0.2108   17.4013    4.2571 H         1 RES1    0.0000
     97 H58        0.4795   18.3816    3.0639 H         1 RES1    0.0000
     98 C40       -1.5263   19.4634    1.1988 C.3       1 RES1    0.0000
     99 H59       -0.6424   19.1053    1.0875 H         1 RES1    0.0000
    100 H60       -1.4938   20.4216    1.1276 H         1 RES1    0.0000
    101 H61       -2.1040   19.1127    0.5173 H         1 RES1    0.0000
    102 C41       -6.2345   17.5952    3.9930 C.3       1 RES1    0.0000
    103 H62       -6.1049   18.5570    3.9547 H         1 RES1    0.0000
    104 H63       -6.9672   17.3718    3.3991 H         1 RES1    0.0000
    105 C42       -6.6013   17.2093    5.3901 C.3       1 RES1    0.0000
    106 H64       -7.4064   17.6653    5.6470 H         1 RES1    0.0000
    107 H65       -5.8909   17.4530    5.9876 H         1 RES1    0.0000
    108 H66       -6.7444   16.2604    5.4320 H         1 RES1    0.0000
    109 C43       -4.3076   12.5886    3.0148 C.3       1 RES1    0.0000
    110 H67       -4.4556   11.6489    3.1477 H         1 RES1    0.0000
    111 H68       -3.4087   12.7289    2.7087 H         1 RES1    0.0000
    112 H69       -4.9244   12.9172    2.3572 H         1 RES1    0.0000
    113 N1        -4.3207   14.6521    4.1059 N.am      1 RES1    0.0000
    114 H70       -3.6324   15.0236    4.4611 H         1 RES1    0.0000
    115 O1        -4.5077   13.2849    4.2498 O.3       1 RES1    0.0000
    116 O2        -6.1598   14.9383    2.8250 O.2       1 RES1    0.0000
    117 O3        -3.0647   16.9293    1.9901 O.3       1 RES1    0.0000
    118 O4        -1.3348   15.1869    4.2112 O.3       1 RES1    0.0000
    119 H71       -0.6994   14.9202    4.6542 H         1 RES1    0.0000
    120 O5        -1.1605   12.6377    2.8353 O.2       1 RES1    0.0000
    121 O6         1.8890   12.6301    4.5604 O.3       1 RES1    0.0000
    122 O7         2.3126   13.1516    6.7287 O.3       1 RES1    0.0000
    123 O8         0.1743   14.1197    6.4623 O.3       1 RES1    0.0000
    124 O9        -1.5773   15.3212    8.2162 O.3       1 RES1    0.0000
    125 O10       -3.6183   15.3263   10.2884 O.3       1 RES1    0.0000
    126 H72       -2.8138   15.2248   10.4105 H         1 RES1    0.0000
    127 O11        1.0103   16.5405    7.2819 O.3       1 RES1    0.0000
    128 H73        0.2733   16.1995    7.3939 H         1 RES1    0.0000
    129 C44        9.1597    6.2712    6.0095 C.2       2 RES2    0.0000
    130 C45        8.8675    7.7130    6.2263 C.3       2 RES2    0.0000
    131 H74        8.1922    7.9955    5.5759 H         2 RES2    0.0000
    132 C46        8.2825    7.8607    7.6304 C.3       2 RES2    0.0000
    133 H75        8.8513    7.3364    8.2318 H         2 RES2    0.0000
    134 C47        8.2266    9.2803    8.1936 C.3       2 RES2    0.0000
    135 H76        8.0215    9.2434    9.1408 H         2 RES2    0.0000
    136 H77        9.0950    9.7013    8.0898 H         2 RES2    0.0000
    137 C48        7.1765   10.1111    7.4795 C.3       2 RES2    0.0000
    138 H78        7.4436   10.2495    6.5578 H         2 RES2    0.0000
    139 H79        7.1072   10.9806    7.9058 H         2 RES2    0.0000
    140 C49        5.8188    9.4188    7.5160 C.3       2 RES2    0.0000
    141 H80        5.2236    9.9117    6.9130 H         2 RES2    0.0000
    142 C50        5.9607    8.0047    6.9596 C.3       2 RES2    0.0000
    143 H81        6.2407    8.0748    6.0241 H         2 RES2    0.0000
    144 C51        4.7047    7.1536    7.0066 C.3       2 RES2    0.0000
    145 H82        4.4145    7.1056    7.9422 H         2 RES2    0.0000
    146 C52        4.9718    5.7118    6.5252 C.3       2 RES2    0.0000
    147 H83        5.7652    5.3980    7.0096 H         2 RES2    0.0000
    148 C53        3.8368    4.7574    6.8875 C.3       2 RES2    0.0000
    149 H84        2.9829    5.1580    6.6215 H         2 RES2    0.0000
    150 C54        3.9412    3.3581    6.2918 C.2       2 RES2    0.0000
    151 C55        2.6490    2.5378    6.2141 C.3       2 RES2    0.0000
    152 H85        2.3586    2.4387    7.1443 H         2 RES2    0.0000
    153 C56        1.5280    3.3119    5.5361 C.3       2 RES2    0.0000
    154 H86        1.3437    4.1094    6.0769 H         2 RES2    0.0000
    155 C57        0.2136    2.5532    5.3630 C.3       2 RES2    0.0000
    156 H87        0.3754    1.7501    4.8273 H         2 RES2    0.0000
    157 C58       -0.7479    3.4696    4.6129 C.3       2 RES2    0.0000
    158 H88       -1.5764    2.9944    4.4447 H         2 RES2    0.0000
    159 H89       -0.9525    4.2405    5.1661 H         2 RES2    0.0000
    160 C59       -0.1631    3.9433    3.2896 C.3       2 RES2    0.0000
    161 H90       -0.0197    3.1494    2.7324 H         2 RES2    0.0000
    162 C60        1.2059    4.6071    3.4988 C.3       2 RES2    0.0000
    163 C61        1.1187    5.9611    4.1216 C.2       2 RES2    0.0000
    164 H91        0.7509    6.0312    4.9730 H         2 RES2    0.0000
    165 C62        1.5354    7.0558    3.5303 C.2       2 RES2    0.0000
    166 H92        1.4364    7.8681    3.9711 H         2 RES2    0.0000
    167 C63        2.1658    7.0392    2.1641 C.3       2 RES2    0.0000
    168 H93        1.4557    7.2109    1.5101 H         2 RES2    0.0000
    169 C64        2.7263    5.6620    1.8761 C.3       2 RES2    0.0000
    170 C65        3.1028    5.4478    0.4199 C.3       2 RES2    0.0000
    171 H94        3.2926    6.2934   -0.0128 H         2 RES2    0.0000
    172 H95        2.3829    5.0066   -0.0583 H         2 RES2    0.0000
    173 C66        4.3482    4.5654    0.4545 C.3       2 RES2    0.0000
    174 H96        4.9560    4.7999   -0.2641 H         2 RES2    0.0000
    175 H97        4.1097    3.6294    0.3698 H         2 RES2    0.0000
    176 C67        4.9841    4.8405    1.8154 C.3       2 RES2    0.0000
    177 C68        6.1691    5.7801    1.7804 C.3       2 RES2    0.0000
    178 H98        6.3793    6.0441    2.6996 H         2 RES2    0.0000
    179 C69        7.4314    5.2208    1.1403 C.3       2 RES2    0.0000
    180 H99        7.7493    4.4639    1.6558 H         2 RES2    0.0000
    181 H100       7.2333    4.9143    0.2423 H         2 RES2    0.0000
    182 C70        8.5022    6.2804    1.0875 C.3       2 RES2    0.0000
    183 H101       9.2678    5.9315    0.6048 H         2 RES2    0.0000
    184 H102       8.7904    6.4835    1.9910 H         2 RES2    0.0000
    185 C71        8.0400    7.5653    0.4179 C.3       2 RES2    0.0000
    186 C72        6.7207    8.0250    1.0766 C.3       2 RES2    0.0000
    187 H103       6.3587    8.7339    0.5046 H         2 RES2    0.0000
    188 C73        6.8583    8.6287    2.4683 C.3       2 RES2    0.0000
    189 H104       5.9928    8.8908    2.7907 H         2 RES2    0.0000
    190 H105       7.4308    9.3985    2.4282 H         2 RES2    0.0000
    191 H106       7.2369    7.9788    3.0639 H         2 RES2    0.0000
    192 C74        9.1231    8.6287    0.4773 C.3       2 RES2    0.0000
    193 H107       9.3283    8.8041    1.4081 H         2 RES2    0.0000
    194 H108       9.9247    8.2705    0.0656 H         2 RES2    0.0000
    195 C75        8.7913    9.9376   -0.1913 C.3       2 RES2    0.0000
    196 H109       9.5382   10.5357   -0.1129 H         2 RES2    0.0000
    197 H110       8.0225   10.3271    0.2332 H         2 RES2    0.0000
    198 H111       8.6009    9.7825   -1.1203 H         2 RES2    0.0000
    199 C76        5.3282    3.5445    2.5411 C.3       2 RES2    0.0000
    200 H112       4.5641    2.9648    2.5393 H         2 RES2    0.0000
    201 H113       5.5793    3.7420    3.4465 H         2 RES2    0.0000
    202 H114       6.0587    3.1107    2.0930 H         2 RES2    0.0000
    203 C77       -1.1361    4.8405    2.5521 C.3       2 RES2    0.0000
    204 H115      -0.7502    5.1137    1.7178 H         2 RES2    0.0000
    205 H116      -1.3256    5.6140    3.0876 H         2 RES2    0.0000
    206 H117      -1.9511    4.3586    2.3863 H         2 RES2    0.0000
    207 C78       -0.3749    2.1470    6.7106 C.3       2 RES2    0.0000
    208 H118       0.2351    1.5618    7.1626 H         2 RES2    0.0000
    209 H119      -1.2105    1.6947    6.5705 H         2 RES2    0.0000
    210 H120      -0.5211    2.9316    7.2445 H         2 RES2    0.0000
    211 C79        2.8786    1.1123    5.7239 C.3       2 RES2    0.0000
    212 H121       2.0633    0.6074    5.8710 H         2 RES2    0.0000
    213 H122       3.5697    0.7107    6.2736 H         2 RES2    0.0000
    214 C80        3.2848    0.9470    4.2529 C.3       2 RES2    0.0000
    215 H123       3.3994    0.0148    4.0549 H         2 RES2    0.0000
    216 H124       4.1099    1.4104    4.0950 H         2 RES2    0.0000
    217 H125       2.5979    1.3107    3.6888 H         2 RES2    0.0000
    218 C81        3.8409    4.5340    8.4160 C.3       2 RES2    0.0000
    219 H126       3.7671    5.3795    8.8639 H         2 RES2    0.0000
    220 H127       4.6596    4.1039    8.6745 H         2 RES2    0.0000
    221 H128       3.0968    3.9765    8.6599 H         2 RES2    0.0000
    222 C82        3.5910    7.8238    6.2137 C.3       2 RES2    0.0000
    223 H129       2.7981    7.2847    6.2590 H         2 RES2    0.0000
    224 H130       3.8633    7.9179    5.2972 H         2 RES2    0.0000
    225 H131       3.4114    8.6896    6.5851 H         2 RES2    0.0000
    226 C83        5.1909    9.4705    8.9186 C.3       2 RES2    0.0000
    227 H132       4.3416    9.0219    8.9058 H         2 RES2    0.0000
    228 H133       5.0668   10.3843    9.1809 H         2 RES2    0.0000
    229 H134       5.7723    9.0330    9.5452 H         2 RES2    0.0000
    230 C84       10.1199    8.5382    6.0131 C.3       2 RES2    0.0000
    231 H135       9.9130    9.4686    6.1916 H         2 RES2    0.0000
    232 H136      10.7905    8.2576    6.6562 H         2 RES2    0.0000
    233 C85       10.6973    8.4367    4.6524 C.3       2 RES2    0.0000
    234 H137      11.4892    8.9757    4.5996 H         2 RES2    0.0000
    235 H138      10.0559    8.7450    4.0094 H         2 RES2    0.0000
    236 H139      10.9205    7.5210    4.4684 H         2 RES2    0.0000
    237 C86        8.2002    3.4356    5.8984 C.3       2 RES2    0.0000
    238 H140       8.3854    2.5273    5.6470 H         2 RES2    0.0000
    239 H141       7.2647    3.5279    6.0933 H         2 RES2    0.0000
    240 H142       8.7147    3.6627    6.6762 H         2 RES2    0.0000
    241 N2         8.3339    5.6288    5.1428 N.am      2 RES2    0.0000
    242 H143       7.6658    6.0478    4.7999 H         2 RES2    0.0000
    243 O12        8.5563    4.3208    4.8096 O.3       2 RES2    0.0000
    244 O13       10.1146    5.6917    6.5219 O.2       2 RES2    0.0000
    245 O14        6.9800    7.2716    7.6741 O.3       2 RES2    0.0000
    246 O15        5.3169    5.7098    5.1298 O.3       2 RES2    0.0000
    247 H144       4.6485    5.8743    4.6834 H         2 RES2    0.0000
    248 O16        5.0149    2.8727    6.0355 O.2       2 RES2    0.0000
    249 O17        2.0664    3.7516    4.2733 O.3       2 RES2    0.0000
    250 O18        1.7935    4.6476    2.2036 O.3       2 RES2    0.0000
    251 O19        3.9425    5.5252    2.5949 O.3       2 RES2    0.0000
    252 O20        5.7541    6.9532    1.0534 O.3       2 RES2    0.0000
    253 O21        7.8201    7.3534   -0.9806 O.3       2 RES2    0.0000
    254 H145       7.3449    6.6940   -1.0857 H         2 RES2    0.0000
    255 O22        3.1214    8.0569    2.0251 O.3       2 RES2    0.0000
    256 H146       3.8723    7.7259    2.0111 H         2 RES2    0.0000
@<TRIPOS>BOND
     1    1    2 1
     2    2    3 1
     3    4    2 1
     4    5    4 1
     5    6    4 1
     6    7    6 1
     7    8    6 1
     8    9    6 1
     9   10    9 1
    10   11    9 1
    11   12    9 1
    12   13   12 1
    13   14   12 1
    14   15   14 1
    15   16   14 1
    16   17   16 1
    17   18   16 1
    18   19   18 1
    19   20   18 1
    20   21   20 1
    21   22   20 1
    22   23   22 1
    23   24   23 1
    24   25   23 1
    25   26   25 1
    26   27   25 1
    27   28   27 1
    28   29   27 1
    29   30   29 1
    30   31   29 1
    31   32   29 1
    32   33   32 1
    33   34   32 1
    34   35   34 1
    35   36   35 1
    36   37   35 2
    37   38   37 1
    38   39   37 1
    39   40   39 1
    40   41   39 1
    41   42   41 1
    42   43   42 1
    43   44   42 1
    44   45   42 1
    45   46   45 1
    46   47   45 1
    47   48   45 1
    48   49   48 1
    49   50   49 1
    50   51   49 1
    51   52   51 1
    52   53   51 1
    53   54   51 1
    54   55   54 1
    55   56   54 1
    56   57   54 1
    57   58   57 1
    58   59   58 1
    59   60   58 1
    60   61   60 1
    61   62   60 1
    62   63   60 1
    63   64   57 1
    64   65   64 1
    65   66   64 1
    66   67   64 1
    67   68   67 1
    68   69   67 1
    69   70   67 1
    70   71   48 1
    71   72   71 1
    72   73   71 1
    73   74   71 1
    74   75   32 1
    75   76   75 1
    76   77   75 1
    77   78   75 1
    78   79   27 1
    79   80   79 1
    80   81   79 1
    81   82   79 1
    82   83   23 1
    83   84   83 1
    84   85   83 1
    85   86   83 1
    86   87   86 1
    87   88   86 1
    88   89   86 1
    89   90   20 1
    90   91   90 1
    91   92   90 1
    92   93   90 1
    93   94   16 1
    94   95   94 1
    95   96   94 1
    96   97   94 1
    97   98   12 1
    98   99   98 1
    99  100   98 1
   100  101   98 1
   101  102    2 1
   102  103  102 1
   103  104  102 1
   104  105  102 1
   105  106  105 1
   106  107  105 1
   107  108  105 1
   108  109  110 1
   109  111  109 1
   110  112  109 1
   111  113    1 1
   112  114  113 1
   113  115  109 1
   114  116    1 2
   115  117    4 1
   116  118   18 1
   117  119  118 1
   118  120   22 2
   119  121   25 1
   120  122   34 1
   121  123   41 1
   122  124   49 1
   123  125   57 1
   124  126  125 1
   125  127   39 1
   126  128  127 1
   127  129  130 1
   128  130  131 1
   129  132  130 1
   130  133  132 1
   131  134  132 1
   132  135  134 1
   133  136  134 1
   134  137  134 1
   135  138  137 1
   136  139  137 1
   137  140  137 1
   138  141  140 1
   139  142  140 1
   140  143  142 1
   141  144  142 1
   142  145  144 1
   143  146  144 1
   144  147  146 1
   145  148  146 1
   146  149  148 1
   147  150  148 1
   148  151  150 1
   149  152  151 1
   150  153  151 1
   151  154  153 1
   152  155  153 1
   153  156  155 1
   154  157  155 1
   155  158  157 1
   156  159  157 1
   157  160  157 1
   158  161  160 1
   159  162  160 1
   160  163  162 1
   161  164  163 1
   162  165  163 2
   163  166  165 1
   164  167  165 1
   165  168  167 1
   166  169  167 1
   167  170  169 1
   168  171  170 1
   169  172  170 1
   170  173  170 1
   171  174  173 1
   172  175  173 1
   173  176  173 1
   174  177  176 1
   175  178  177 1
   176  179  177 1
   177  180  179 1
   178  181  179 1
   179  182  179 1
   180  183  182 1
   181  184  182 1
   182  185  182 1
   183  186  185 1
   184  187  186 1
   185  188  186 1
   186  189  188 1
   187  190  188 1
   188  191  188 1
   189  192  185 1
   190  193  192 1
   191  194  192 1
   192  195  192 1
   193  196  195 1
   194  197  195 1
   195  198  195 1
   196  199  176 1
   197  200  199 1
   198  201  199 1
   199  202  199 1
   200  203  160 1
   201  204  203 1
   202  205  203 1
   203  206  203 1
   204  207  155 1
   205  208  207 1
   206  209  207 1
   207  210  207 1
   208  211  151 1
   209  212  211 1
   210  213  211 1
   211  214  211 1
   212  215  214 1
   213  216  214 1
   214  217  214 1
   215  218  148 1
   216  219  218 1
   217  220  218 1
   218  221  218 1
   219  222  144 1
   220  223  222 1
   221  224  222 1
   222  225  222 1
   223  226  140 1
   224  227  226 1
   225  228  226 1
   226  229  226 1
   227  230  130 1
   228  231  230 1
   229  232  230 1
   230  233  230 1
   231  234  233 1
   232  235  233 1
   233  236  233 1
   234  237  238 1
   235  239  237 1
   236  240  237 1
   237  241  129 1
   238  242  241 1
   239  243  237 1
   240  244  129 2
   241  245  132 1
   242  246  146 1
   243  247  246 1
   244  248  150 2
   245  249  153 1
   246  250  162 1
   247  251  169 1
   248  252  177 1
   249  253  185 1
   250  254  253 1
   251  255  167 1
   252  256  255 1
   253   14  117 1
   254   34  121 1
   255   41  122 1
   256   48  123 1
   257   58  124 1
   258  113  115 1
   259  142  245 1
   260  162  249 1
   261  169  250 1
   262  176  251 1
   263  186  252 1
   264  241  243 1
@<TRIPOS>SUBSTRUCTURE
     1 RES1 1
     2 RES2 129

@<TRIPOS>CRYSIN
  12.6780   18.4610   18.6030  90.0000 101.7060  90.0000   4 1

