# MOL2 file generated by ConQuest
# Please check atom types

@<TRIPOS>MOLECULE
OWUQEE
    28    29     1
SMALL
NO_CHARGES
****
Generated from CSD

@<TRIPOS>ATOM
      1 C1         2.6203    0.6870   -2.5654 C.ar      1 RES1    0.0000
      2 C2         2.0830    1.4016   -3.6189 C.ar      1 RES1    0.0000
      3 H1         2.0974    1.0503   -4.4799 H         1 RES1    0.0000
      4 C3         1.5348    2.6228   -3.3861 C.ar      1 RES1    0.0000
      5 H2         1.1789    3.1078   -4.0957 H         1 RES1    0.0000
      6 C4         1.4960    3.1565   -2.1090 C.ar      1 RES1    0.0000
      7 C5         2.0681    2.4327   -1.0396 C.ar      1 RES1    0.0000
      8 C6         2.6232    1.1903   -1.2920 C.ar      1 RES1    0.0000
      9 H3         2.9987    0.6983   -0.5978 H         1 RES1    0.0000
     10 C7         2.1085    2.9887    0.2880 C.2       1 RES1    0.0000
     11 H4         2.4694    2.4818    0.9791 H         1 RES1    0.0000
     12 C8         1.7506    4.7403    1.8279 C.ar      1 RES1    0.0000
     13 C9         2.4289    4.1764    2.8943 C.ar      1 RES1    0.0000
     14 H5         2.8549    3.3555    2.7945 H         1 RES1    0.0000
     15 C10        2.4725    4.8318    4.0997 C.ar      1 RES1    0.0000
     16 H6         2.9329    4.4550    4.8143 H         1 RES1    0.0000
     17 C11        1.8416    6.0372    4.2565 C.ar      1 RES1    0.0000
     18 H7         1.8664    6.4719    5.0784 H         1 RES1    0.0000
     19 C12        1.1755    6.6018    3.2057 C.ar      1 RES1    0.0000
     20 H8         0.7476    7.4210    3.3111 H         1 RES1    0.0000
     21 C13        1.1387    5.9596    1.9984 C.ar      1 RES1    0.0000
     22 H9         0.6941    6.3536    1.2829 H         1 RES1    0.0000
     23 N1         3.2529   -0.5935   -2.8176 N.pl3     1 RES1    0.0000
     24 N2         1.6628    4.1566    0.5438 N.2       1 RES1    0.0000
     25 O1         3.1992   -1.0587   -3.9470 O.2       1 RES1    0.0000
     26 O2         3.8128   -1.1594   -1.8929 O.2       1 RES1    0.0000
     27 O3         0.9378    4.3422   -1.9081 O.3       1 RES1    0.0000
     28 H10        1.0244    4.5554   -1.1210 H         1 RES1    0.0000
@<TRIPOS>BOND
     1    1    2 ar
     2    2    3 1
     3    4    2 ar
     4    5    4 1
     5    6    4 ar
     6    7    6 ar
     7    8    1 ar
     8    9    8 1
     9   10    7 1
    10   11   10 1
    11   12   13 ar
    12   13   14 1
    13   15   13 ar
    14   16   15 1
    15   17   15 ar
    16   18   17 1
    17   19   17 ar
    18   20   19 1
    19   21   12 ar
    20   22   21 1
    21   23    1 1
    22   24   10 2
    23   25   23 2
    24   26   23 2
    25   27    6 1
    26   28   27 1
    27    7    8 ar
    28   12   24 1
    29   19   21 ar
@<TRIPOS>SUBSTRUCTURE
     1 RES1 1

@<TRIPOS>CRYSIN
   8.0774    6.5801   21.6680  90.0000  98.2400  90.0000 231 1

