# MOL2 file generated by ConQuest
# Please check atom types

@<TRIPOS>MOLECULE
OWUXEK
    39    40     1
SMALL
NO_CHARGES
****
Generated from CSD

@<TRIPOS>ATOM
      1 N1        -5.5078    9.3749   10.6450 N.pl3     1 RES1    0.0000
      2 O1         0.8342   11.0832    5.9984 O.2       1 RES1    0.0000
      3 O2         0.5715    8.3094    3.9962 O.2       1 RES1    0.0000
      4 O3        -0.7876    6.9494    5.1433 O.3       1 RES1    0.0000
      5 O4        -5.4183   10.0528   11.6526 O.2       1 RES1    0.0000
      6 O5        -6.5794    9.0461   10.1675 O.2       1 RES1    0.0000
      7 C1        -0.0455    5.7526    4.7555 C.3       1 RES1    0.0000
      8 H1         0.8091    6.0008    4.3700 H         1 RES1    0.0000
      9 H2        -0.5462    5.2515    4.0926 H         1 RES1    0.0000
     10 C2         0.1674    4.9129    5.9874 C.3       1 RES1    0.0000
     11 H3         0.8091    4.2150    5.7838 H         1 RES1    0.0000
     12 H4        -0.6706    4.4827    6.2221 H         1 RES1    0.0000
     13 C3         0.6693    5.7078    7.1957 C.3       1 RES1    0.0000
     14 H5         1.1308    5.1075    7.8014 H         1 RES1    0.0000
     15 H6         1.3062    6.3747    6.8946 H         1 RES1    0.0000
     16 C4        -0.4444    6.3907    7.9342 C.2       1 RES1    0.0000
     17 H7        -1.0021    5.8329    8.4259 H         1 RES1    0.0000
     18 C5        -0.7414    7.6854    7.9808 C.2       1 RES1    0.0000
     19 C6         0.0279    8.7748    7.2837 C.3       1 RES1    0.0000
     20 H8         0.9418    8.4782    7.1505 H         1 RES1    0.0000
     21 H9         0.0516    9.5589    7.8550 H         1 RES1    0.0000
     22 C7        -0.5792    9.1689    5.9126 C.3       1 RES1    0.0000
     23 H10       -1.5550    9.2073    5.9935 H         1 RES1    0.0000
     24 C8        -0.2100    8.1254    4.8878 C.2       1 RES1    0.0000
     25 C9        -0.0644   10.5246    5.4335 C.2       1 RES1    0.0000
     26 C10       -0.7317   11.1235    4.2346 C.3       1 RES1    0.0000
     27 H11       -0.3237   11.9688    4.0305 H         1 RES1    0.0000
     28 H12       -1.6646   11.2541    4.4190 H         1 RES1    0.0000
     29 H13       -0.6332   10.5314    3.4849 H         1 RES1    0.0000
     30 C11       -4.2802    8.9370    9.9827 C.ar      1 RES1    0.0000
     31 C12       -4.3761    8.0522    8.9331 C.ar      1 RES1    0.0000
     32 H14       -5.2039    7.7354    8.6526 H         1 RES1    0.0000
     33 C13       -3.2170    7.6466    8.3063 C.ar      1 RES1    0.0000
     34 H15       -3.2683    7.0385    7.6048 H         1 RES1    0.0000
     35 C14       -1.9745    8.1259    8.6992 C.ar      1 RES1    0.0000
     36 C15       -1.9216    9.0305    9.7611 C.ar      1 RES1    0.0000
     37 H16       -1.0999    9.3725   10.0306 H         1 RES1    0.0000
     38 C16       -3.0655    9.4245   10.4164 C.ar      1 RES1    0.0000
     39 H17       -3.0202   10.0089   11.1386 H         1 RES1    0.0000
@<TRIPOS>BOND
     1    1    5 2
     2    2   25 2
     3    3   24 2
     4    4    7 1
     5    6    1 2
     6    7    8 1
     7    9    7 1
     8   10    7 1
     9   11   10 1
    10   12   10 1
    11   13   10 1
    12   14   13 1
    13   15   13 1
    14   16   13 1
    15   17   16 1
    16   18   16 2
    17   19   18 1
    18   20   19 1
    19   21   19 1
    20   22   19 1
    21   23   22 1
    22   24    4 1
    23   25   22 1
    24   26   25 1
    25   27   26 1
    26   28   26 1
    27   29   26 1
    28   30    1 1
    29   31   30 ar
    30   32   31 1
    31   33   31 ar
    32   34   33 1
    33   35   18 1
    34   36   35 ar
    35   37   36 1
    36   38   30 ar
    37   39   38 1
    38   22   24 1
    39   33   35 ar
    40   36   38 ar
@<TRIPOS>SUBSTRUCTURE
     1 RES1 1

@<TRIPOS>CRYSIN
   8.1581    9.5889   10.4998 108.7800 106.2280  94.6130   2 1

