# MOL2 file generated by ConQuest
# Please check atom types

@<TRIPOS>MOLECULE
OWUXOU
    39    40     1
SMALL
NO_CHARGES
****
Generated from CSD

@<TRIPOS>ATOM
      1 O1         3.9757    7.2669    7.9306 O.3       1 RES1    0.0000
      2 O2         3.0365    5.5347    6.8457 O.2       1 RES1    0.0000
      3 O3         6.3356    8.2994    5.4471 O.2       1 RES1    0.0000
      4 O4         8.0376   -1.0802    7.0463 O.2       1 RES1    0.0000
      5 O5         8.2858   -0.2717    5.0878 O.2       1 RES1    0.0000
      6 N1         7.9609   -0.1632    6.2573 N.pl3     1 RES1    0.0000
      7 C1         3.9329    6.3112    6.9779 C.2       1 RES1    0.0000
      8 C2         5.2170    6.3309    6.1779 C.3       1 RES1    0.0000
      9 H1         5.2075    5.5631    5.5686 H         1 RES1    0.0000
     10 C3         6.3711    6.1307    7.1807 C.3       1 RES1    0.0000
     11 H2         7.1987    5.9885    6.6946 H         1 RES1    0.0000
     12 H3         6.4728    6.9321    7.7184 H         1 RES1    0.0000
     13 C4         6.1120    4.9423    8.0920 C.2       1 RES1    0.0000
     14 C5         5.4321    5.0547    9.2395 C.2       1 RES1    0.0000
     15 H4         5.2575    4.2533    9.6779 H         1 RES1    0.0000
     16 C6         4.9075    6.2942    9.9249 C.3       1 RES1    0.0000
     17 H5         5.5980    6.9871    9.8717 H         1 RES1    0.0000
     18 C7         3.6462    6.8326    9.2727 C.3       1 RES1    0.0000
     19 H6         2.9672    6.1408    9.2407 H         1 RES1    0.0000
     20 H7         3.2983    7.5782    9.7872 H         1 RES1    0.0000
     21 C8         4.6350    6.0057   11.4038 C.3       1 RES1    0.0000
     22 H8         5.4324    5.6649   11.8153 H         1 RES1    0.0000
     23 H9         3.9334    5.3545   11.4784 H         1 RES1    0.0000
     24 H10        4.3688    6.8160   11.8446 H         1 RES1    0.0000
     25 C9         5.3663    7.5959    5.3405 C.2       1 RES1    0.0000
     26 C10        4.2716    7.8762    4.3720 C.3       1 RES1    0.0000
     27 H11        4.4639    8.6886    3.8978 H         1 RES1    0.0000
     28 H12        3.4420    7.9705    4.8452 H         1 RES1    0.0000
     29 H13        4.2034    7.1500    3.7476 H         1 RES1    0.0000
     30 C11        6.5832    3.6131    7.6209 C.ar      1 RES1    0.0000
     31 C12        6.9098    3.3905    6.2788 C.ar      1 RES1    0.0000
     32 H14        6.8217    4.0894    5.6717 H         1 RES1    0.0000
     33 C13        7.3572    2.1714    5.8300 C.ar      1 RES1    0.0000
     34 H15        7.5764    2.0484    4.9341 H         1 RES1    0.0000
     35 C14        7.4755    1.1363    6.7276 C.ar      1 RES1    0.0000
     36 C15        7.1715    1.3007    8.0585 C.ar      1 RES1    0.0000
     37 H16        7.2546    0.5906    8.6533 H         1 RES1    0.0000
     38 C16        6.7423    2.5332    8.4961 C.ar      1 RES1    0.0000
     39 H17        6.5526    2.6511    9.3989 H         1 RES1    0.0000
@<TRIPOS>BOND
     1    1    7 1
     2    2    7 2
     3    3   25 2
     4    4    6 2
     5    5    6 2
     6    6   35 1
     7    7    8 1
     8    8    9 1
     9   10    8 1
    10   11   10 1
    11   12   10 1
    12   13   10 1
    13   14   13 2
    14   15   14 1
    15   16   14 1
    16   17   16 1
    17   18    1 1
    18   19   18 1
    19   20   18 1
    20   21   16 1
    21   22   21 1
    22   23   21 1
    23   24   21 1
    24   25    8 1
    25   26   25 1
    26   27   26 1
    27   28   26 1
    28   29   26 1
    29   30   13 1
    30   31   30 ar
    31   32   31 1
    32   33   31 ar
    33   34   33 1
    34   35   33 ar
    35   36   35 ar
    36   37   36 1
    37   38   30 ar
    38   39   38 1
    39   16   18 1
    40   36   38 ar
@<TRIPOS>SUBSTRUCTURE
     1 RES1 1

@<TRIPOS>CRYSIN
   8.8711    9.5519   10.3514  64.6310  69.8450  81.1060   2 1

