# MOL2 file generated by ConQuest
# Please check atom types

@<TRIPOS>MOLECULE
OXAJOO
    78    80     2
SMALL
NO_CHARGES
****
Generated from CSD

@<TRIPOS>ATOM
      1 C1         1.9447    4.6683    3.2551 C.ar      1 RES1    0.0000
      2 H1         1.8168    4.2342    4.0900 H         1 RES1    0.0000
      3 C2         0.9538    5.4799    2.7276 C.ar      1 RES1    0.0000
      4 H2         0.1428    5.5946    3.2085 H         1 RES1    0.0000
      5 C3         1.1181    6.1254    1.5198 C.ar      1 RES1    0.0000
      6 H3         0.4309    6.6808    1.1728 H         1 RES1    0.0000
      7 C4         2.2902    5.9526    0.8283 C.ar      1 RES1    0.0000
      8 H4         2.4129    6.3956   -0.0025 H         1 RES1    0.0000
      9 C5         3.3009    5.1389    1.3254 C.ar      1 RES1    0.0000
     10 H5         4.1047    5.0216    0.8331 H         1 RES1    0.0000
     11 C6         3.1285    4.4971    2.5473 C.ar      1 RES1    0.0000
     12 C7         5.2890    3.2153    2.4779 C.2       1 RES1    0.0000
     13 C8         5.9170    2.2315    3.4627 C.3       1 RES1    0.0000
     14 C9         4.8207    2.1418    4.5008 C.2       1 RES1    0.0000
     15 C10        7.1796    2.8825    4.0397 C.3       1 RES1    0.0000
     16 H6         7.5727    2.2909    4.7148 H         1 RES1    0.0000
     17 H7         6.9456    3.7397    4.4532 H         1 RES1    0.0000
     18 H8         7.8277    3.0325    3.3201 H         1 RES1    0.0000
     19 C11        4.8210    1.2094    5.6545 C.3       1 RES1    0.0000
     20 H9         3.9814    1.3035    6.1517 H         1 RES1    0.0000
     21 H10        5.5747    1.4193    6.2447 H         1 RES1    0.0000
     22 H11        4.9070    0.2887    5.3298 H         1 RES1    0.0000
     23 C12        5.1943    0.3151    2.1695 C.2       1 RES1    0.0000
     24 C13        4.2977   -1.6477    1.1087 C.3       1 RES1    0.0000
     25 H12        3.4648   -1.2752    1.4666 H         1 RES1    0.0000
     26 H13        4.3846   -2.5834    1.3885 H         1 RES1    0.0000
     27 H14        4.2823   -1.5994    0.1302 H         1 RES1    0.0000
     28 C14        6.7504   -1.4190    1.3130 C.3       1 RES1    0.0000
     29 H15        7.4075   -0.6915    1.3216 H         1 RES1    0.0000
     30 H16        6.7389   -1.8385    0.4277 H         1 RES1    0.0000
     31 H17        6.9939   -2.0872    1.9873 H         1 RES1    0.0000
     32 N1         4.1454    3.6689    3.0912 N.am      1 RES1    0.0000
     33 N2         3.8734    2.9802    4.3005 N.2       1 RES1    0.0000
     34 N3         6.2770    0.9825    2.7750 N.am      1 RES1    0.0000
     35 N4         5.4285   -0.8828    1.6150 N.am      1 RES1    0.0000
     36 O1         5.7684    3.5865    1.4219 O.2       1 RES1    0.0000
     37 O2         7.0034    0.1332    3.6569 O.3       1 RES1    0.0000
     38 H18        7.8681    0.1453    3.3412 H         1 RES1    0.0000
     39 O3         4.0959    0.8890    2.1140 O.2       1 RES1    0.0000
     40 C15        3.3859   -2.3748    7.5835 C.ar      2 RES2    0.0000
     41 H19        3.3487   -3.1139    6.9873 H         2 RES2    0.0000
     42 C16        4.5885   -1.7196    7.8093 C.ar      2 RES2    0.0000
     43 H20        5.3740   -2.0127    7.3630 H         2 RES2    0.0000
     44 C17        4.6564   -0.6493    8.6733 C.ar      2 RES2    0.0000
     45 H21        5.4877   -0.2199    8.8395 H         2 RES2    0.0000
     46 C18        3.5029   -0.2036    9.2981 C.ar      2 RES2    0.0000
     47 H22        3.5465    0.5440    9.8834 H         2 RES2    0.0000
     48 C19        2.2795   -0.8354    9.0819 C.ar      2 RES2    0.0000
     49 H23        1.4905   -0.5156    9.5040 H         2 RES2    0.0000
     50 C20        2.2308   -1.9425    8.2371 C.ar      2 RES2    0.0000
     51 C21        0.0520   -2.8665    9.0379 C.2       2 RES2    0.0000
     52 C22       -0.8411   -3.9784    8.4871 C.3       2 RES2    0.0000
     53 C23       -0.0353   -4.4057    7.2834 C.2       2 RES2    0.0000
     54 C24       -2.1735   -3.3388    8.0755 C.3       2 RES2    0.0000
     55 H24       -2.7600   -4.0240    7.6915 H         2 RES2    0.0000
     56 H25       -2.0087   -2.6399    7.4088 H         2 RES2    0.0000
     57 H26       -2.6037   -2.9444    8.8631 H         2 RES2    0.0000
     58 C25       -0.3737   -5.5340    6.3783 C.3       2 RES2    0.0000
     59 H27        0.3061   -5.6048    5.6757 H         2 RES2    0.0000
     60 H28       -1.2496   -5.3733    5.9695 H         2 RES2    0.0000
     61 H29       -0.3997   -6.3681    6.8919 H         2 RES2    0.0000
     62 C26        0.0767   -5.5392   10.1114 C.2       2 RES2    0.0000
     63 C27       -1.3921   -6.7897   11.6705 C.3       2 RES2    0.0000
     64 H30       -2.0111   -6.0394   11.5472 H         2 RES2    0.0000
     65 H31       -1.2656   -6.9541   12.6283 H         2 RES2    0.0000
     66 H32       -1.7624   -7.5922   11.2472 H         2 RES2    0.0000
     67 C28        1.0501   -7.1663   11.6061 C.3       2 RES2    0.0000
     68 H33        1.8641   -6.8632   11.1505 H         2 RES2    0.0000
     69 H34        0.9404   -8.1301   11.4716 H         2 RES2    0.0000
     70 H35        1.1219   -6.9755   12.5650 H         2 RES2    0.0000
     71 N5         1.0267   -2.6688    8.0762 N.am      2 RES2    0.0000
     72 N6         0.9752   -3.6500    7.0615 N.2       2 RES2    0.0000
     73 N7        -1.0913   -4.9977    9.5214 N.am      2 RES2    0.0000
     74 N8        -0.1026   -6.4648   11.0566 N.am      2 RES2    0.0000
     75 O4        -0.1044   -2.2387   10.0598 O.2       2 RES2    0.0000
     76 O5        -1.9085   -6.0341    8.9760 O.3       2 RES2    0.0000
     77 H36       -2.7597   -5.9397    9.4098 H         2 RES2    0.0000
     78 O6         1.1813   -5.0862    9.7906 O.2       2 RES2    0.0000
@<TRIPOS>BOND
     1    1    2 1
     2    3    1 ar
     3    4    3 1
     4    5    3 ar
     5    6    5 1
     6    7    5 ar
     7    8    7 1
     8    9    7 ar
     9   10    9 1
    10   11    1 ar
    11   12   13 1
    12   13   14 1
    13   14   19 1
    14   15   13 1
    15   16   15 1
    16   17   15 1
    17   18   15 1
    18   19   20 1
    19   21   19 1
    20   22   19 1
    21   23   34 1
    22   24   25 1
    23   26   24 1
    24   27   24 1
    25   28   29 1
    26   30   28 1
    27   31   28 1
    28   32   11 1
    29   33   14 2
    30   34   13 1
    31   35   23 1
    32   36   12 2
    33   37   34 1
    34   38   37 1
    35   39   23 2
    36   40   41 1
    37   42   40 ar
    38   43   42 1
    39   44   42 ar
    40   45   44 1
    41   46   44 ar
    42   47   46 1
    43   48   46 ar
    44   49   48 1
    45   50   40 ar
    46   51   52 1
    47   52   53 1
    48   53   58 1
    49   54   52 1
    50   55   54 1
    51   56   54 1
    52   57   54 1
    53   58   59 1
    54   60   58 1
    55   61   58 1
    56   62   73 1
    57   63   64 1
    58   65   63 1
    59   66   63 1
    60   67   68 1
    61   69   67 1
    62   70   67 1
    63   71   50 1
    64   72   53 2
    65   73   52 1
    66   74   62 1
    67   75   51 2
    68   76   73 1
    69   77   76 1
    70   78   62 2
    71    9   11 ar
    72   12   32 1
    73   24   35 1
    74   28   35 1
    75   32   33 1
    76   48   50 ar
    77   51   71 1
    78   63   74 1
    79   67   74 1
    80   71   72 1
@<TRIPOS>SUBSTRUCTURE
     1 RES1 1
     2 RES2 40

@<TRIPOS>CRYSIN
  10.8050   11.4659   13.3709 111.8850  90.6950  93.7500   2 1

