# MOL2 file generated by ConQuest
# Please check atom types

@<TRIPOS>MOLECULE
OXAJII
    35    35     1
SMALL
NO_CHARGES
****
Generated from CSD

@<TRIPOS>ATOM
      1 C1         1.6440    3.8969    7.6866 C.3       1 RES1    0.0000
      2 H1         1.2562    3.0432    7.4021 H         1 RES1    0.0000
      3 H2         1.3430    4.1053    8.5962 H         1 RES1    0.0000
      4 H3         2.6220    3.8324    7.6734 H         1 RES1    0.0000
      5 C2         1.3546    5.4699    4.6360 C.2       1 RES1    0.0000
      6 C3         0.4718    6.6558    4.8536 C.3       1 RES1    0.0000
      7 H4        -0.2978    6.3936    5.4002 H         1 RES1    0.0000
      8 H5         0.1595    6.9932    3.9883 H         1 RES1    0.0000
      9 H6         0.9764    7.3576    5.3149 H         1 RES1    0.0000
     10 C4         1.8289    5.1016    3.2358 C.3       1 RES1    0.0000
     11 C5         2.7809    3.9218    3.2473 C.2       1 RES1    0.0000
     12 C6         0.6276    4.4744    2.4732 C.2       1 RES1    0.0000
     13 C7         4.1814    3.9621    3.7521 C.3       1 RES1    0.0000
     14 H7         4.1748    4.0468    4.7282 H         1 RES1    0.0000
     15 H8         4.6478    4.7305    3.3614 H         1 RES1    0.0000
     16 H9         4.6435    3.1360    3.4991 H         1 RES1    0.0000
     17 C8         0.2768    2.2513    1.4253 C.3       1 RES1    0.0000
     18 H10       -0.6509    2.5350    1.2866 H         1 RES1    0.0000
     19 H11        0.2887    1.3398    1.7850 H         1 RES1    0.0000
     20 H12        0.7565    2.2721    0.5714 H         1 RES1    0.0000
     21 C9         2.6896    6.0971    1.1999 C.2       1 RES1    0.0000
     22 C10        3.7207    7.0941   -0.6536 C.3       1 RES1    0.0000
     23 H13        4.1580    6.2457   -0.8776 H         1 RES1    0.0000
     24 H14        4.3186    7.8375   -0.8786 H         1 RES1    0.0000
     25 H15        2.8883    7.1774   -1.1643 H         1 RES1    0.0000
     26 N1         1.7270    4.6270    5.5189 N.2       1 RES1    0.0000
     27 N2         2.2490    2.8677    2.7561 N.2       1 RES1    0.0000
     28 N3         0.9226    3.1507    2.3659 N.am      1 RES1    0.0000
     29 N4         2.3127    6.2726    2.5205 N.am      1 RES1    0.0000
     30 O1         1.2197    4.9382    6.7907 O.3       1 RES1    0.0000
     31 H16        2.8834    7.9256    3.1240 H         1 RES1    0.0000
     32 O2        -0.3887    5.0316    2.1117 O.2       1 RES1    0.0000
     33 O3         3.1586    7.0801    3.3108 O.3       1 RES1    0.0000
     34 O4         2.3195    5.1540    0.5393 O.2       1 RES1    0.0000
     35 O5         3.4231    7.1243    0.7660 O.3       1 RES1    0.0000
@<TRIPOS>BOND
     1    1    2 1
     2    3    1 1
     3    4    1 1
     4    5    6 1
     5    6    7 1
     6    8    6 1
     7    9    6 1
     8   10    5 1
     9   11   10 1
    10   12   10 1
    11   13   11 1
    12   14   13 1
    13   15   13 1
    14   16   13 1
    15   17   18 1
    16   19   17 1
    17   20   17 1
    18   21   29 1
    19   22   23 1
    20   24   22 1
    21   25   22 1
    22   26    5 2
    23   27   11 2
    24   28   12 1
    25   29   10 1
    26   30    1 1
    27   31   33 1
    28   32   12 2
    29   33   29 1
    30   34   21 2
    31   35   21 1
    32   17   28 1
    33   22   35 1
    34   26   30 1
    35   27   28 1
@<TRIPOS>SUBSTRUCTURE
     1 RES1 1

@<TRIPOS>CRYSIN
   9.4438    6.7223   10.3428  90.0000  96.4986  90.0000   4 1

