# MOL2 file generated by ConQuest
# Please check atom types

@<TRIPOS>MOLECULE
OXAKEF
    51    54     1
SMALL
NO_CHARGES
****
Generated from CSD

@<TRIPOS>ATOM
      1 N1         0.4635    6.1325    9.6991 N.3       1 RES1    0.0000
      2 C1         0.3876    7.4036    7.6175 C.1       1 RES1    0.0000
      3 O1        -2.4754    8.0470   -4.8919 O.2       1 RES1    0.0000
      4 C2         0.6155    7.3244    9.0162 C.2       1 RES1    0.0000
      5 C3         0.1573    7.4375    6.4087 C.1       1 RES1    0.0000
      6 C4         0.9718    8.3076    9.9607 C.2       1 RES1    0.0000
      7 H1         1.1319    9.2249    9.7739 H         1 RES1    0.0000
      8 C5         0.7327    6.3651   11.0400 C.2       1 RES1    0.0000
      9 C6        -0.1765    7.5018    5.0650 C.1       1 RES1    0.0000
     10 O2        -3.0551   10.0646   -4.3936 O.2       1 RES1    0.0000
     11 N2        -2.6505    8.9329   -4.0808 N.pl3     1 RES1    0.0000
     12 C7         1.0494    7.6993   11.2309 C.2       1 RES1    0.0000
     13 C8        -0.9214    7.7170    2.5530 C.1       1 RES1    0.0000
     14 C9        -0.5112    7.5848    3.8832 C.1       1 RES1    0.0000
     15 C10       -2.0948    9.3848   -0.4040 C.ar      1 RES1    0.0000
     16 H2        -2.1398   10.0832    0.2388 H         1 RES1    0.0000
     17 C11        0.1375    4.8285    9.0809 C.3       1 RES1    0.0000
     18 H3        -0.2143    4.9726    8.1671 H         1 RES1    0.0000
     19 H4        -0.5625    4.3735    9.6126 H         1 RES1    0.0000
     20 C12        1.3682    3.9652    9.0207 C.ar      1 RES1    0.0000
     21 C13       -1.6803    7.0662   -0.9439 C.ar      1 RES1    0.0000
     22 H5        -1.4487    6.1838   -0.6809 H         1 RES1    0.0000
     23 C14       -1.7036    8.0947    0.0070 C.ar      1 RES1    0.0000
     24 C15        1.5892    2.8593    9.8626 C.ar      1 RES1    0.0000
     25 H6         0.9146    2.6243   10.4888 H         1 RES1    0.0000
     26 C16        2.3070    4.2625    8.1147 C.ar      1 RES1    0.0000
     27 H7         2.1877    4.9869    7.5111 H         1 RES1    0.0000
     28 C17        1.6560    7.1425   13.6274 C.3       1 RES1    0.0000
     29 H8         2.5575    6.7569   13.4867 H         1 RES1    0.0000
     30 H9         1.6142    7.5057   14.5476 H         1 RES1    0.0000
     31 C18       -1.9995    7.3373   -2.2856 C.ar      1 RES1    0.0000
     32 H10       -1.9762    6.6435   -2.9343 H         1 RES1    0.0000
     33 C19        2.7448    2.0984    9.8187 C.ar      1 RES1    0.0000
     34 H11        2.8616    1.3584   10.4020 H         1 RES1    0.0000
     35 C20        1.4017    8.2732   12.6019 C.3       1 RES1    0.0000
     36 H12        0.6591    8.8459   12.9207 H         1 RES1    0.0000
     37 H13        2.2127    8.8368   12.5252 H         1 RES1    0.0000
     38 C21       -2.3488    8.6328   -2.6556 C.ar      1 RES1    0.0000
     39 C22       -1.2987    7.8526    1.3867 C.1       1 RES1    0.0000
     40 C23        0.6630    5.3380   12.1102 C.3       1 RES1    0.0000
     41 H14        1.4663    4.7603   12.0801 H         1 RES1    0.0000
     42 H15       -0.1375    4.7694   11.9839 H         1 RES1    0.0000
     43 C24       -2.4203    9.6609   -1.7398 C.ar      1 RES1    0.0000
     44 H16       -2.6840   10.5338   -2.0069 H         1 RES1    0.0000
     45 C25        0.5868    6.0532   13.4460 C.3       1 RES1    0.0000
     46 H17        0.6853    5.3867   14.1707 H         1 RES1    0.0000
     47 H18       -0.3085    6.4664   13.5364 H         1 RES1    0.0000
     48 C26        3.4565    3.4925    8.0751 C.ar      1 RES1    0.0000
     49 H19        4.1198    3.7001    7.4258 H         1 RES1    0.0000
     50 C27        3.6876    2.4260    8.9433 C.ar      1 RES1    0.0000
     51 H20        4.5052    1.9432    8.9084 H         1 RES1    0.0000
@<TRIPOS>BOND
     1    1    4 1
     2    2    4 1
     3    3   11 2
     4    4    6 2
     5    5    2 3
     6    6    7 1
     7    8    1 1
     8    9    5 1
     9   10   11 2
    10   11   38 1
    11   12    6 1
    12   13   14 1
    13   14    9 3
    14   15   16 1
    15   17    1 1
    16   18   17 1
    17   19   17 1
    18   20   17 1
    19   21   22 1
    20   23   15 ar
    21   24   20 ar
    22   25   24 1
    23   26   20 ar
    24   27   26 1
    25   28   29 1
    26   30   28 1
    27   31   21 ar
    28   32   31 1
    29   33   24 ar
    30   34   33 1
    31   35   12 1
    32   36   35 1
    33   37   35 1
    34   38   31 ar
    35   39   13 3
    36   40    8 1
    37   41   40 1
    38   42   40 1
    39   43   15 ar
    40   44   43 1
    41   45   28 1
    42   46   45 1
    43   47   45 1
    44   48   26 ar
    45   49   48 1
    46   50   33 ar
    47   51   50 1
    48    8   12 2
    49   21   23 ar
    50   23   39 1
    51   28   35 1
    52   38   43 ar
    53   40   45 1
    54   48   50 ar
@<TRIPOS>SUBSTRUCTURE
     1 RES1 1

@<TRIPOS>CRYSIN
  19.9460   13.0240   18.0840  90.0000 120.9500  90.0000  15 1

