# MOL2 file generated by ConQuest
# Please check atom types

@<TRIPOS>MOLECULE
OXAKUV
    44    46     1
SMALL
NO_CHARGES
****
Generated from CSD

@<TRIPOS>ATOM
      1 O1         0.4280    0.8291   13.9393 O.2       1 RES1    0.0000
      2 N1        -4.4616    0.7393   -2.7062 N.pl3     1 RES1    0.0000
      3 C1        -2.8231    0.8180   -6.0037 C.3       1 RES1    0.0000
      4 H1        -2.0685    0.1995   -6.1705 H         1 RES1    0.0000
      5 H2        -2.5406    1.7285   -6.2708 H         1 RES1    0.0000
      6 C2        -1.2799    0.9002    3.9973 C.1       1 RES1    0.0000
      7 C3         1.8396    0.7649   10.6861 C.ar      1 RES1    0.0000
      8 H3         2.7606    0.7248   10.9175 H         1 RES1    0.0000
      9 C4         0.0705    0.8456    9.0370 C.ar      1 RES1    0.0000
     10 C5        -0.6348    0.9077    6.4946 C.1       1 RES1    0.0000
     11 C6        -2.7357    0.8118   -0.9195 C.1       1 RES1    0.0000
     12 C7        -1.9638    0.8622    1.5199 C.1       1 RES1    0.0000
     13 C8        -3.1703    0.8070   -4.5490 C.2       1 RES1    0.0000
     14 C9        -1.6344    0.8801    2.6940 C.1       1 RES1    0.0000
     15 C10       -0.9705    0.9146    5.1759 C.1       1 RES1    0.0000
     16 N2         1.2914    0.8077   13.0754 N.pl3     1 RES1    0.0000
     17 C11       -2.3492    0.8429    0.2168 C.1       1 RES1    0.0000
     18 C12       -0.3301    0.8794    7.6671 C.1       1 RES1    0.0000
     19 C13       -0.4807    0.8691   11.3909 C.ar      1 RES1    0.0000
     20 H4        -1.1150    0.9008   12.0961 H         1 RES1    0.0000
     21 C14       -2.3290    0.8187   -3.3974 C.2       1 RES1    0.0000
     22 H5        -1.3804    0.8525   -3.3976 H         1 RES1    0.0000
     23 O2         2.5031    0.7973   13.2996 O.2       1 RES1    0.0000
     24 C15       -5.6887    0.7414   -4.9453 C.3       1 RES1    0.0000
     25 H6        -6.3458    1.3979   -4.6040 H         1 RES1    0.0000
     26 H7        -6.1010   -0.1588   -4.9131 H         1 RES1    0.0000
     27 C16        0.8663    0.8083   11.6490 C.ar      1 RES1    0.0000
     28 C17       -3.1364    0.7711   -2.2915 C.2       1 RES1    0.0000
     29 C18       -4.4662    0.7683   -4.1129 C.2       1 RES1    0.0000
     30 C19        1.4241    0.7800    9.3480 C.ar      1 RES1    0.0000
     31 H8         2.0690    0.7462    8.6509 H         1 RES1    0.0000
     32 C20       -5.3012    1.0893   -6.3899 C.3       1 RES1    0.0000
     33 H9        -6.0441    0.8353   -6.9940 H         1 RES1    0.0000
     34 H10       -5.1732    2.0681   -6.4631 H         1 RES1    0.0000
     35 C21       -0.8862    0.8843   10.0460 C.ar      1 RES1    0.0000
     36 H11       -1.8089    0.9202    9.8261 H         1 RES1    0.0000
     37 C22       -5.6559    0.6068   -1.9494 C.2       1 RES1    0.0000
     38 H12       -6.4696    0.8173   -2.3949 H         1 RES1    0.0000
     39 C23       -4.0358    0.3886   -6.8395 C.3       1 RES1    0.0000
     40 H13       -3.8666    0.5985   -7.7928 H         1 RES1    0.0000
     41 H14       -4.1579   -0.5902   -6.7589 H         1 RES1    0.0000
     42 C24       -5.7541    0.2195   -0.6838 C.2       1 RES1    0.0000
     43 H15       -4.9712   -0.0021   -0.1923 H         1 RES1    0.0000
     44 H16       -6.6052    0.1643   -0.2679 H         1 RES1    0.0000
@<TRIPOS>BOND
     1    1   16 2
     2    2   28 1
     3    3    4 1
     4    5    3 1
     5    6   14 1
     6    7    8 1
     7    9   18 1
     8   10   15 1
     9   11   17 3
    10   12   14 3
    11   13    3 1
    12   15    6 3
    13   16   23 2
    14   17   12 1
    15   18   10 3
    16   19   20 1
    17   21   13 1
    18   22   21 1
    19   24   25 1
    20   26   24 1
    21   27    7 ar
    22   28   11 1
    23   29    2 1
    24   30    7 ar
    25   31   30 1
    26   32   24 1
    27   33   32 1
    28   34   32 1
    29   35    9 ar
    30   36   35 1
    31   37    2 1
    32   38   37 1
    33   39    3 1
    34   40   39 1
    35   41   39 1
    36   42   37 2
    37   43   42 1
    38   44   42 1
    39    9   30 ar
    40   13   29 2
    41   16   27 1
    42   19   27 ar
    43   19   35 ar
    44   21   28 2
    45   24   29 1
    46   32   39 1
@<TRIPOS>SUBSTRUCTURE
     1 RES1 1

@<TRIPOS>CRYSIN
  15.9960    6.9030   17.0910  90.0000 105.9000  90.0000  14 1

