# MOL2 file generated by ConQuest
# Please check atom types

@<TRIPOS>MOLECULE
OXALIN01
    58    62     1
SMALL
NO_CHARGES
****
Generated from CSD

@<TRIPOS>ATOM
      1 C1         3.5281    3.6986   12.5191 C.3       1 RES1    0.0000
      2 C2         2.8101    4.9779   11.9908 C.3       1 RES1    0.0000
      3 C3         3.5907    5.1865   10.6910 C.ar      1 RES1    0.0000
      4 C4         3.3192    5.8988    9.5387 C.ar      1 RES1    0.0000
      5 C5         4.2637    5.9082    8.5092 C.ar      1 RES1    0.0000
      6 C6         5.4738    5.2419    8.6456 C.ar      1 RES1    0.0000
      7 C7         5.7803    4.5655    9.8190 C.ar      1 RES1    0.0000
      8 C8         4.8256    4.5373   10.8104 C.ar      1 RES1    0.0000
      9 C9         3.2269    6.1030   12.9287 C.2       1 RES1    0.0000
     10 C10        3.6793    5.8890   14.1668 C.2       1 RES1    0.0000
     11 C11        3.6201    4.5508   14.8283 C.2       1 RES1    0.0000
     12 C12        3.0955    2.1669   14.2759 C.2       1 RES1    0.0000
     13 C13        2.8503    1.5211   12.9557 C.2       1 RES1    0.0000
     14 C14        2.9977    1.6585   15.5231 C.2       1 RES1    0.0000
     15 C15        2.5976    0.3412   15.9430 C.2       1 RES1    0.0000
     16 C16        1.9642   -1.7688   15.9554 C.2       1 RES1    0.0000
     17 C17        2.6235   -0.1706   17.2250 C.2       1 RES1    0.0000
     18 C18        1.2324    4.8783   11.8754 C.3       1 RES1    0.0000
     19 C19        0.8222    4.0170   10.6882 C.2       1 RES1    0.0000
     20 C20       -0.1931    3.1693   10.6459 C.2       1 RES1    0.0000
     21 H1        -0.7488    3.0545   11.4089 H         1 RES1    0.0000
     22 H2        -0.3679    2.6756    9.8539 H         1 RES1    0.0000
     23 C21        0.6553    6.2979   11.6493 C.3       1 RES1    0.0000
     24 C22        0.6141    4.3512   13.1732 C.3       1 RES1    0.0000
     25 H3        -0.3561    4.4863   13.1516 H         1 RES1    0.0000
     26 H4         0.9937    4.8347   13.9353 H         1 RES1    0.0000
     27 H5         0.8092    3.3949   13.2626 H         1 RES1    0.0000
     28 C23        4.1261    8.1632   14.5465 C.3       1 RES1    0.0000
     29 C24        6.7403    2.9129   13.0985 C.3       1 RES1    0.0000
     30 N1         4.9308    3.9583   12.1019 N.3       1 RES1    0.0000
     31 N2         3.4564    3.4963   13.9603 N.am      1 RES1    0.0000
     32 N3         3.0296    2.4538   12.0155 N.am      1 RES1    0.0000
     33 N4         2.1520   -0.6969   15.1563 N.3       1 RES1    0.0000
     34 N5         2.2286   -1.4883   17.2152 N.2       1 RES1    0.0000
     35 O1         5.7112    2.7681   12.1161 O.3       1 RES1    0.0000
     36 O2         4.1396    6.8222   15.0341 O.3       1 RES1    0.0000
     37 O3         3.6603    4.4208   16.0406 O.2       1 RES1    0.0000
     38 O4         2.5276    0.3461   12.7425 O.2       1 RES1    0.0000
     39 H6         2.4816    6.3791    9.4315 H         1 RES1    0.0000
     40 H7         4.0774    6.4056    7.6654 H         1 RES1    0.0000
     41 H8         6.0832    5.2016    7.9110 H         1 RES1    0.0000
     42 H9         6.6141    4.1221    9.9712 H         1 RES1    0.0000
     43 H10        3.2143    6.9341   12.5305 H         1 RES1    0.0000
     44 H11        3.0643    2.2094   11.2196 H         1 RES1    0.0000
     45 H12        3.2466    2.1816   16.2709 H         1 RES1    0.0000
     46 H13        2.1364   -0.6080   14.2748 H         1 RES1    0.0000
     47 H14        1.6120   -2.6187   15.6076 H         1 RES1    0.0000
     48 H15        2.9024    0.2437   18.0903 H         1 RES1    0.0000
     49 H16        1.2732    4.2121    9.8930 H         1 RES1    0.0000
     50 H17        1.0250    6.7050   10.8535 H         1 RES1    0.0000
     51 H18        0.8632    6.9143   12.3647 H         1 RES1    0.0000
     52 H19       -0.3021    6.1884   11.4683 H         1 RES1    0.0000
     53 H20        4.7194    8.2600   13.7570 H         1 RES1    0.0000
     54 H21        4.4454    8.7210   15.3026 H         1 RES1    0.0000
     55 H22        3.1722    8.4667   14.3014 H         1 RES1    0.0000
     56 H23        7.2938    3.6638   12.9294 H         1 RES1    0.0000
     57 H24        7.2075    2.1352   13.0608 H         1 RES1    0.0000
     58 H25        6.3659    3.0664   13.9682 H         1 RES1    0.0000
@<TRIPOS>BOND
     1    1    2 1
     2    2    3 1
     3    3    4 ar
     4    4    5 ar
     5    5    6 ar
     6    6    7 ar
     7    7    8 ar
     8    8    3 ar
     9    9    2 1
    10   10    9 2
    11   11   10 1
    12   12   13 1
    13   13   32 1
    14   14   12 2
    15   15   14 1
    16   16   33 1
    17   17   15 2
    18   18    2 1
    19   19   18 1
    20   20   19 2
    21   21   20 1
    22   22   20 1
    23   23   18 1
    24   24   18 1
    25   25   24 1
    26   26   24 1
    27   27   24 1
    28   28   36 1
    29   29   35 1
    30   30    1 1
    31   31    1 1
    32   32    1 1
    33   33   15 1
    34   34   16 2
    35   35   30 1
    36   36   10 1
    37   37   11 2
    38   38   13 2
    39   39    4 1
    40   40    5 1
    41   41    6 1
    42   42    7 1
    43   43    9 1
    44   44   32 1
    45   45   14 1
    46   46   33 1
    47   47   16 1
    48   48   17 1
    49   49   19 1
    50   50   23 1
    51   51   23 1
    52   52   23 1
    53   53   28 1
    54   54   28 1
    55   55   28 1
    56   56   29 1
    57   57   29 1
    58   58   29 1
    59    8   30 1
    60   11   31 1
    61   12   31 1
    62   17   34 1
@<TRIPOS>SUBSTRUCTURE
     1 RES1 1

@<TRIPOS>CRYSIN
  10.7897   13.2457   15.6436  90.0000  90.0000  90.0000  19 1

