# MOL2 file generated by ConQuest
# Please check atom types

@<TRIPOS>MOLECULE
OXAMEH
    82    86     2
SMALL
NO_CHARGES
****
Generated from CSD

@<TRIPOS>ATOM
      1 O1         1.1999   -4.8612    8.1449 O.3       1 RES1    0.0000
      2 O2         2.7349   -0.0250    8.3526 O.2       1 RES1    0.0000
      3 O3         3.0395    0.4649    6.2745 O.2       1 RES1    0.0000
      4 N1         2.7508   -0.3380    7.1609 N.pl3     1 RES1    0.0000
      5 N2         0.6468   -7.0842    7.9369 N.3       1 RES1    0.0000
      6 C1         2.4195   -1.7059    6.7937 C.ar      1 RES1    0.0000
      7 C2         1.6622   -3.8312    7.3501 C.ar      1 RES1    0.0000
      8 C3         1.0375   -5.9524    7.3106 C.2       1 RES1    0.0000
      9 C4         1.7877   -4.2764    6.0294 C.ar      1 RES1    0.0000
     10 C5         2.2610   -3.3681    5.0660 C.ar      1 RES1    0.0000
     11 H1         2.3654   -3.6341    4.1597 H         1 RES1    0.0000
     12 C6         1.9531   -2.5667    7.7835 C.ar      1 RES1    0.0000
     13 H2         1.8443   -2.2957    8.6883 H         1 RES1    0.0000
     14 C7         1.3485   -5.6362    5.9958 C.2       1 RES1    0.0000
     15 C8         2.5693   -2.0862    5.4628 C.ar      1 RES1    0.0000
     16 H3         2.8859   -1.4576    4.8244 H         1 RES1    0.0000
     17 C9        -0.0208   -7.0370    4.4335 C.ar      1 RES1    0.0000
     18 H4        -0.7346   -7.0081    5.0587 H         1 RES1    0.0000
     19 C10        1.1782   -6.4208    4.7468 C.ar      1 RES1    0.0000
     20 C11        0.2311   -7.0425    9.3502 C.3       1 RES1    0.0000
     21 H5        -0.2299   -6.1826    9.5185 H         1 RES1    0.0000
     22 H6        -0.4236   -7.7684    9.5068 H         1 RES1    0.0000
     23 C12        2.2130   -6.4697    3.8068 C.ar      1 RES1    0.0000
     24 H7         3.0487   -6.0624    4.0016 H         1 RES1    0.0000
     25 C13        1.0242   -8.3906    7.3852 C.3       1 RES1    0.0000
     26 H8         1.4769   -8.2530    6.5155 H         1 RES1    0.0000
     27 H9         1.6712   -8.8225    7.9987 H         1 RES1    0.0000
     28 C14       -0.2061   -7.6951    3.2299 C.ar      1 RES1    0.0000
     29 H10       -1.0339   -8.1213    3.0411 H         1 RES1    0.0000
     30 C15        0.8157   -7.7313    2.3031 C.ar      1 RES1    0.0000
     31 H11        0.6908   -8.1779    1.4744 H         1 RES1    0.0000
     32 C16        2.0206   -7.1194    2.5857 C.ar      1 RES1    0.0000
     33 H12        2.7220   -7.1392    1.9444 H         1 RES1    0.0000
     34 C17        1.3610   -7.1887   10.3487 C.3       1 RES1    0.0000
     35 H13        1.8238   -8.0387   10.1964 H         1 RES1    0.0000
     36 H14        1.9922   -6.4477   10.2374 H         1 RES1    0.0000
     37 H15        0.9964   -7.1735   11.2580 H         1 RES1    0.0000
     38 C18       -0.1402   -9.3091    7.1861 C.3       1 RES1    0.0000
     39 H16       -0.7747   -8.9010    6.5609 H         1 RES1    0.0000
     40 H17        0.1753  -10.1620    6.8215 H         1 RES1    0.0000
     41 H18       -0.5836   -9.4653    8.0456 H         1 RES1    0.0000
     42 O4         3.3039    6.3136   15.5273 O.3       2 RES2    0.0000
     43 O5         1.8607   11.1838   15.4567 O.2       2 RES2    0.0000
     44 O6         1.5218   11.5321   13.3495 O.2       2 RES2    0.0000
     45 N3         3.9999    4.1467   15.4405 N.3       2 RES2    0.0000
     46 N4         1.7866   10.7796   14.2880 N.pl3     2 RES2    0.0000
     47 C19        2.8175    7.2957   14.6914 C.ar      2 RES2    0.0000
     48 C20        3.5226    5.2003   14.7485 C.2       2 RES2    0.0000
     49 C21        2.7185    6.7892   13.3854 C.ar      2 RES2    0.0000
     50 C22        2.5090    8.5747   15.0575 C.ar      2 RES2    0.0000
     51 H19        2.5974    8.8902   15.9491 H         2 RES2    0.0000
     52 C23        2.0527    9.3879   14.0106 C.ar      2 RES2    0.0000
     53 C24        3.1991    5.4397   13.4132 C.2       2 RES2    0.0000
     54 C25        3.2666    4.5980   12.2009 C.ar      2 RES2    0.0000
     55 C26        1.9036    8.9269   12.7046 C.ar      2 RES2    0.0000
     56 H20        1.5748    9.5129   12.0325 H         2 RES2    0.0000
     57 C27        2.2299    7.6276   12.3810 C.ar      2 RES2    0.0000
     58 H21        2.1245    7.3093   11.4922 H         2 RES2    0.0000
     59 C28        4.2532    4.2445   16.8847 C.3       2 RES2    0.0000
     60 H22        4.9471    3.5830   17.1307 H         2 RES2    0.0000
     61 H23        4.6157    5.1448   17.0824 H         2 RES2    0.0000
     62 C29        4.4618    4.0752   11.7133 C.ar      2 RES2    0.0000
     63 H24        5.2710    4.2361   12.1848 H         2 RES2    0.0000
     64 C30        2.1117    4.3822   11.4571 C.ar      2 RES2    0.0000
     65 H25        1.2894    4.7546   11.7558 H         2 RES2    0.0000
     66 C31        4.4865    3.3183   10.5478 C.ar      2 RES2    0.0000
     67 H26        5.3090    2.9602   10.2345 H         2 RES2    0.0000
     68 C32        4.0940    2.8262   14.8056 C.3       2 RES2    0.0000
     69 H27        4.5178    2.9303   13.9169 H         2 RES2    0.0000
     70 H28        4.6838    2.2505   15.3547 H         2 RES2    0.0000
     71 C33        3.0346    4.0138   17.7530 C.3       2 RES2    0.0000
     72 H29        2.3252    4.6450   17.4997 H         2 RES2    0.0000
     73 H30        2.7121    3.0962   17.6256 H         2 RES2    0.0000
     74 H31        3.2725    4.1493   18.6930 H         2 RES2    0.0000
     75 C34        2.7726    2.1349   14.6314 C.3       2 RES2    0.0000
     76 H32        2.1940    2.6777   14.0560 H         2 RES2    0.0000
     77 H33        2.9145    1.2581   14.2185 H         2 RES2    0.0000
     78 H34        2.3462    2.0194   15.5070 H         2 RES2    0.0000
     79 C35        3.3304    3.0881    9.8465 C.ar      2 RES2    0.0000
     80 H35        3.3481    2.5529    9.0617 H         2 RES2    0.0000
     81 C36        2.1363    3.6355   10.2887 C.ar      2 RES2    0.0000
     82 H36        1.3370    3.4997    9.7923 H         2 RES2    0.0000
@<TRIPOS>BOND
     1    1    7 1
     2    2    4 2
     3    3    4 2
     4    4    6 1
     5    5    8 1
     6    6   12 ar
     7    7    9 ar
     8    8    1 1
     9    9   10 ar
    10   10   11 1
    11   12    7 ar
    12   13   12 1
    13   14    8 2
    14   15    6 ar
    15   16   15 1
    16   17   18 1
    17   19   14 1
    18   20    5 1
    19   21   20 1
    20   22   20 1
    21   23   19 ar
    22   24   23 1
    23   25    5 1
    24   26   25 1
    25   27   25 1
    26   28   17 ar
    27   29   28 1
    28   30   28 ar
    29   31   30 1
    30   32   23 ar
    31   33   32 1
    32   34   20 1
    33   35   34 1
    34   36   34 1
    35   37   34 1
    36   38   25 1
    37   39   38 1
    38   40   38 1
    39   41   38 1
    40   42   47 1
    41   43   46 2
    42   44   46 2
    43   45   48 1
    44   46   52 1
    45   47   49 ar
    46   48   42 1
    47   49   53 1
    48   50   47 ar
    49   51   50 1
    50   52   50 ar
    51   53   48 2
    52   54   53 1
    53   55   52 ar
    54   56   55 1
    55   57   49 ar
    56   58   57 1
    57   59   45 1
    58   60   59 1
    59   61   59 1
    60   62   54 ar
    61   63   62 1
    62   64   54 ar
    63   65   64 1
    64   66   62 ar
    65   67   66 1
    66   68   45 1
    67   69   68 1
    68   70   68 1
    69   71   59 1
    70   72   71 1
    71   73   71 1
    72   74   71 1
    73   75   68 1
    74   76   75 1
    75   77   75 1
    76   78   75 1
    77   79   66 ar
    78   80   79 1
    79   81   64 ar
    80   82   81 1
    81    9   14 1
    82   10   15 ar
    83   17   19 ar
    84   30   32 ar
    85   55   57 ar
    86   79   81 ar
@<TRIPOS>SUBSTRUCTURE
     1 RES1 1
     2 RES2 42

@<TRIPOS>CRYSIN
   7.2107   14.9108   16.2218 115.0060  90.2400 100.3570   2 1

