# MOL2 file generated by ConQuest
# Please check atom types

@<TRIPOS>MOLECULE
OXAPAG
    57    62     1
SMALL
NO_CHARGES
****
Generated from CSD

@<TRIPOS>ATOM
      1 O1         5.5343    3.6112    1.9272 O.2       1 RES1    0.0000
      2 O2         4.0432    3.4874    3.7961 O.2       1 RES1    0.0000
      3 N1         4.9085    2.7214    1.2361 N.3       1 RES1    0.0000
      4 N2         3.3311    2.5718    3.2446 N.3       1 RES1    0.0000
      5 C1         4.1108    3.1468    0.1671 C.ar      1 RES1    0.0000
      6 C2         3.9309    4.5238   -0.0154 C.ar      1 RES1    0.0000
      7 C3         3.1633    4.9726   -1.0720 C.ar      1 RES1    0.0000
      8 C4         2.5554    4.0617   -1.9217 C.ar      1 RES1    0.0000
      9 C5         2.7350    2.7046   -1.7403 C.ar      1 RES1    0.0000
     10 C6         3.5239    2.2029   -0.6932 C.ar      1 RES1    0.0000
     11 C7         5.3678    1.3112    1.4403 C.3       1 RES1    0.0000
     12 C8         4.6452    0.3440    0.5152 C.ar      1 RES1    0.0000
     13 C9         4.9403   -1.0159    0.6451 C.ar      1 RES1    0.0000
     14 C10        4.3732   -1.9534   -0.2036 C.ar      1 RES1    0.0000
     15 C11        3.4907   -1.5386   -1.1931 C.ar      1 RES1    0.0000
     16 C12        3.2031   -0.2038   -1.3329 C.ar      1 RES1    0.0000
     17 C13        3.7808    0.7678   -0.5013 C.ar      1 RES1    0.0000
     18 C14        2.1465    2.9376    2.5855 C.ar      1 RES1    0.0000
     19 C15        1.8445    4.2988    2.4836 C.ar      1 RES1    0.0000
     20 C16        0.7255    4.6894    1.7778 C.ar      1 RES1    0.0000
     21 C17       -0.0872    3.7463    1.1710 C.ar      1 RES1    0.0000
     22 C18        0.2046    2.3997    1.3026 C.ar      1 RES1    0.0000
     23 C19        1.3143    1.9564    2.0231 C.ar      1 RES1    0.0000
     24 C20        3.7626    1.1649    3.5134 C.3       1 RES1    0.0000
     25 C21        2.7559    0.1620    2.9656 C.ar      1 RES1    0.0000
     26 C22        2.9854   -1.1912    3.2323 C.ar      1 RES1    0.0000
     27 C23        2.1042   -2.1668    2.8102 C.ar      1 RES1    0.0000
     28 C24        0.9675   -1.8053    2.1005 C.ar      1 RES1    0.0000
     29 C25        0.7273   -0.4799    1.8299 C.ar      1 RES1    0.0000
     30 C26        1.6051    0.5324    2.2571 C.ar      1 RES1    0.0000
     31 C27        5.1882    1.0021    2.9338 C.3       1 RES1    0.0000
     32 C28        6.8764    1.2795    1.1095 C.3       1 RES1    0.0000
     33 C29        3.8635    1.0087    5.0405 C.3       1 RES1    0.0000
     34 H1         4.3838    5.1483    0.6331 H         1 RES1    0.0000
     35 H2         3.0825    5.9412   -1.2284 H         1 RES1    0.0000
     36 H3         2.0290    4.3919   -2.6797 H         1 RES1    0.0000
     37 H4         2.3281    2.0765   -2.3631 H         1 RES1    0.0000
     38 H5         5.5682   -1.3179    1.3548 H         1 RES1    0.0000
     39 H6         4.5755   -2.8929   -0.1238 H         1 RES1    0.0000
     40 H7         3.0719   -2.2211   -1.8042 H         1 RES1    0.0000
     41 H8         2.6174    0.0943   -2.0504 H         1 RES1    0.0000
     42 H9         2.4727    4.9437    2.9337 H         1 RES1    0.0000
     43 H10        0.5261    5.6230    1.6961 H         1 RES1    0.0000
     44 H11       -0.8653    4.0169    0.6474 H         1 RES1    0.0000
     45 H12       -0.4101    1.7690    0.8923 H         1 RES1    0.0000
     46 H13        3.8099   -1.4497    3.7023 H         1 RES1    0.0000
     47 H14        2.2911   -3.1008    2.9832 H         1 RES1    0.0000
     48 H15        0.3389   -2.4933    1.7730 H         1 RES1    0.0000
     49 H16       -0.1008   -0.2464    1.3248 H         1 RES1    0.0000
     50 H17        5.5216    0.0996    3.1395 H         1 RES1    0.0000
     51 H18        5.8049    1.6072    3.4860 H         1 RES1    0.0000
     52 H19        7.3752    1.9768    1.6245 H         1 RES1    0.0000
     53 H20        7.2895    0.3536    1.3613 H         1 RES1    0.0000
     54 H21        7.0181    1.5011    0.1329 H         1 RES1    0.0000
     55 H22        2.9419    1.0961    5.4505 H         1 RES1    0.0000
     56 H23        4.2570    0.1104    5.2408 H         1 RES1    0.0000
     57 H24        4.4648    1.7325    5.4257 H         1 RES1    0.0000
@<TRIPOS>BOND
     1    1    3 1
     2    2    4 1
     3    3    5 1
     4    4   18 1
     5    5    6 ar
     6    6    7 ar
     7    7    8 ar
     8    8    9 ar
     9    9   10 ar
    10   10    5 ar
    11   11    3 1
    12   12   11 1
    13   13   12 ar
    14   14   13 ar
    15   15   14 ar
    16   16   15 ar
    17   17   10 1
    18   18   19 ar
    19   19   20 ar
    20   20   21 ar
    21   21   22 ar
    22   22   23 ar
    23   23   18 ar
    24   24    4 1
    25   25   24 1
    26   26   25 ar
    27   27   26 ar
    28   28   27 ar
    29   29   28 ar
    30   30   23 1
    31   31   11 1
    32   32   11 1
    33   33   24 1
    34   34    6 1
    35   35    7 1
    36   36    8 1
    37   37    9 1
    38   38   13 1
    39   39   14 1
    40   40   15 1
    41   41   16 1
    42   42   19 1
    43   43   20 1
    44   44   21 1
    45   45   22 1
    46   46   26 1
    47   47   27 1
    48   48   28 1
    49   49   29 1
    50   50   31 1
    51   51   31 1
    52   52   32 1
    53   53   32 1
    54   54   32 1
    55   55   33 1
    56   56   33 1
    57   57   33 1
    58   12   17 ar
    59   16   17 ar
    60   24   31 1
    61   25   30 ar
    62   29   30 ar
@<TRIPOS>SUBSTRUCTURE
     1 RES1 1

@<TRIPOS>CRYSIN
  14.9330   10.7145   14.7526  90.0000 117.9900  90.0000  14 1

