# MOL2 file generated by ConQuest
# Please check atom types

@<TRIPOS>MOLECULE
OXAYAO
    34    37     1
SMALL
NO_CHARGES
****
Generated from CSD

@<TRIPOS>ATOM
      1 C1         5.1273    8.4312   12.2229 C.2       1 RES1    0.0000
      2 N1         4.4988    9.4936   11.6865 N.3       1 RES1    0.0000
      3 H1         4.9676   10.1528   11.3382 H         1 RES1    0.0000
      4 H2         3.6201    9.5291   11.6839 H         1 RES1    0.0000
      5 N2         6.4362    8.2844   12.2747 N.2       1 RES1    0.0000
      6 O1         6.6611    7.0904   12.9872 O.3       1 RES1    0.0000
      7 N3         5.4934    6.5155   13.3678 N.2       1 RES1    0.0000
      8 C2         4.5686    7.3055   12.9169 C.2       1 RES1    0.0000
      9 O2         2.8843    5.9247   13.6873 O.2       1 RES1    0.0000
     10 N4         3.1894    6.9974   13.1386 N.pl3     1 RES1    0.0000
     11 N5         2.4080    7.9237   12.7051 N.2       1 RES1    0.0000
     12 C3         1.0441    7.7390   12.8594 C.2       1 RES1    0.0000
     13 N6         0.3976    6.7940   13.5072 N.2       1 RES1    0.0000
     14 O3        -0.9449    7.1099   13.3483 O.3       1 RES1    0.0000
     15 N7        -1.1207    8.2397   12.5956 N.2       1 RES1    0.0000
     16 C4         0.0842    8.6456   12.2943 C.2       1 RES1    0.0000
     17 N8         0.1697    9.8145   11.5069 N.2       1 RES1    0.0000
     18 N9         1.3532   10.1975   11.3048 N.2       1 RES1    0.0000
     19 C5         1.4268   11.3563   10.5044 C.2       1 RES1    0.0000
     20 N10        2.6164   11.7713   10.1729 N.2       1 RES1    0.0000
     21 O4         2.4164   12.8978    9.4202 O.3       1 RES1    0.0000
     22 N11        1.0586   13.2030    9.2883 N.2       1 RES1    0.0000
     23 C6         0.4402   12.2462    9.9490 C.2       1 RES1    0.0000
     24 N12       -0.9131   12.0323   10.1397 N.2       1 RES1    0.0000
     25 N13       -1.7318   12.8511    9.5757 N.pl3     1 RES1    0.0000
     26 O5        -1.4686   13.8644    8.9105 O.2       1 RES1    0.0000
     27 C7        -3.0968   12.4549    9.7568 C.2       1 RES1    0.0000
     28 N14       -4.0570   13.1819    9.2805 N.2       1 RES1    0.0000
     29 O6        -5.1946   12.5070    9.5847 O.3       1 RES1    0.0000
     30 N15       -4.9088   11.3170   10.2809 N.2       1 RES1    0.0000
     31 N16       -2.9188   10.2618   10.9512 N.pl3     1 RES1    0.0000
     32 H3        -3.3512    9.5745   11.2903 H         1 RES1    0.0000
     33 H4        -2.0392   10.2888   10.9851 H         1 RES1    0.0000
     34 C8        -3.5982   11.2656   10.3816 C.2       1 RES1    0.0000
@<TRIPOS>BOND
     1    1    2 1
     2    2    3 1
     3    4    2 1
     4    5    1 2
     5    6    5 1
     6    7    6 1
     7    8    1 1
     8    9   10 1
     9   10    8 1
    10   11   10 2
    11   12   11 1
    12   13   12 2
    13   14   13 1
    14   15   14 1
    15   16   12 1
    16   17   16 1
    17   18   17 2
    18   19   18 1
    19   20   19 2
    20   21   20 1
    21   22   21 1
    22   23   19 1
    23   24   23 1
    24   25   24 2
    25   26   25 1
    26   27   25 1
    27   28   27 2
    28   29   28 1
    29   30   29 1
    30   31   32 1
    31   33   31 1
    32   34   27 1
    33    7    8 2
    34   15   16 2
    35   22   23 2
    36   30   34 2
    37   31   34 1
@<TRIPOS>SUBSTRUCTURE
     1 RES1 1

@<TRIPOS>CRYSIN
  11.3091   11.3388   12.7226  90.0000 104.7600  90.0000 231 1

