# MOL2 file generated by ConQuest
# Please check atom types

@<TRIPOS>MOLECULE
OXEJIL01
    36    38     1
SMALL
USER_CHARGES
****
Generated from CSD

@<TRIPOS>ATOM
      1 C1        -1.5112    0.4369    7.4261 C.ar      1 RES1    0.0000
      2 C2        -2.5917    1.1439    6.9423 C.ar      1 RES1    0.0000
      3 H1        -3.4814    0.8422    7.0880 H         1 RES1    0.0000
      4 C3        -2.3362    2.3011    6.2400 C.ar      1 RES1    0.0000
      5 H2        -3.0583    2.8143    5.8992 H         1 RES1    0.0000
      6 C4        -1.0305    2.7215    6.0280 C.ar      1 RES1    0.0000
      7 H3        -0.8713    3.5189    5.5354 H         1 RES1    0.0000
      8 C5         0.0511    1.9962    6.5234 C.ar      1 RES1    0.0000
      9 C6        -0.1971    0.8352    7.2392 C.ar      1 RES1    0.0000
     10 H4         0.5197    0.3226    7.5940 H         1 RES1    0.0000
     11 C7         1.4310    2.5441    6.2930 C.3       1 RES1    0.0000
     12 H5         1.4410    3.0176    5.4135 H         1 RES1    0.0000
     13 C8         1.9906    3.4999    7.3645 C.3       1 RES1    0.0000
     14 H6         1.7221    4.4431    7.1652 H         1 RES1    0.0000
     15 C9         1.6489    3.1426    8.8177 C.3       1 RES1    0.0000
     16 H7         0.6673    3.0460    8.9006 H         1 RES1    0.0000
     17 H8         2.0553    2.2657    9.0307 H         1 RES1    0.0000
     18 C10        2.1238    4.1628    9.8411 C.3       1 RES1    0.0000
     19 H9         1.8180    3.8686   10.7376 H         1 RES1    0.0000
     20 H10        1.6818    5.0270    9.6464 H         1 RES1    0.0000
     21 C11        3.6321    4.3989    9.9016 C.3       1 RES1    0.0000
     22 H11        3.8312    4.9393   10.7051 H         1 RES1    0.0000
     23 H12        4.0815    3.5233   10.0122 H         1 RES1    0.0000
     24 C12        4.2361    5.1009    8.6848 C.3       1 RES1    0.0000
     25 H13        5.0512    5.5851    8.9677 H         1 RES1    0.0000
     26 H14        3.5882    5.7713    8.3519 H         1 RES1    0.0000
     27 C13        4.5985    4.1603    7.5389 C.3       1 RES1    0.0000
     28 H15        4.9126    4.6956    6.7669 H         1 RES1    0.0000
     29 H16        5.3447    3.5757    7.8236 H         1 RES1    0.0000
     30 C14        3.4521    3.3093    7.1091 C.2       1 RES1    0.0000
     31 N1        -1.7668   -0.7721    8.2270 N.pl3     1 RES1    0.0000
     32 N2         3.6563    2.1710    6.5397 N.pl3     1 RES1    1.0000
     33 O1        -0.8306   -1.3081    8.7679 O.2       1 RES1    0.0000
     34 O2        -2.9073   -1.1837    8.3064 O.2       1 RES1    0.0000
     35 O3         2.4099    1.4741    6.2475 O.3       1 RES1    0.0000
     36 O4         4.7003    1.5341    6.2385 O.2       1 RES1   -1.0000
@<TRIPOS>BOND
     1    1    2 ar
     2    2    3 1
     3    4    2 ar
     4    5    4 1
     5    6    4 ar
     6    7    6 1
     7    8    6 ar
     8    9    1 ar
     9   10    9 1
    10   11    8 1
    11   12   11 1
    12   13   11 1
    13   14   13 1
    14   15   13 1
    15   16   15 1
    16   17   15 1
    17   18   15 1
    18   19   18 1
    19   20   18 1
    20   21   18 1
    21   22   21 1
    22   23   21 1
    23   24   21 1
    24   25   24 1
    25   26   24 1
    26   27   24 1
    27   28   27 1
    28   29   27 1
    29   30   13 1
    30   31    1 1
    31   32   30 2
    32   33   31 2
    33   34   31 2
    34   35   11 1
    35   36   32 1
    36    8    9 ar
    37   27   30 1
    38   32   35 1
@<TRIPOS>SUBSTRUCTURE
     1 RES1 1

@<TRIPOS>CRYSIN
  10.4530    6.3130   20.3210  90.0000  90.0380  90.0000 231 1

