# MOL2 file generated by ConQuest
# Please check atom types

@<TRIPOS>MOLECULE
OXEJIL
    72    76     2
SMALL
USER_CHARGES
****
Generated from CSD

@<TRIPOS>ATOM
      1 C1        -5.8826    1.4944   17.5840 C.ar      1 RES1    0.0000
      2 C2        -5.1785    2.5750   17.1048 C.ar      1 RES1    0.0000
      3 H1        -5.4790    3.4642   17.2546 H         1 RES1    0.0000
      4 C3        -4.0202    2.3202   16.3997 C.ar      1 RES1    0.0000
      5 H2        -3.5079    3.0427   16.0576 H         1 RES1    0.0000
      6 C4        -3.6001    1.0167   16.1885 C.ar      1 RES1    0.0000
      7 H3        -2.8031    0.8582   15.6980 H         1 RES1    0.0000
      8 C5        -4.3256   -0.0666   16.6839 C.ar      1 RES1    0.0000
      9 C6        -5.4871    0.1796   17.3982 C.ar      1 RES1    0.0000
     10 H4        -6.0006   -0.5365   17.7524 H         1 RES1    0.0000
     11 C7        -3.7748   -1.4444   16.4527 C.3       1 RES1    0.0000
     12 H5        -3.3022   -1.4528   15.5720 H         1 RES1    0.0000
     13 C8        -2.8185   -2.0060   17.5252 C.3       1 RES1    0.0000
     14 H6        -1.8754   -1.7383   17.3277 H         1 RES1    0.0000
     15 C9        -3.1767   -1.6663   18.9772 C.3       1 RES1    0.0000
     16 H7        -3.2720   -0.6837   19.0591 H         1 RES1    0.0000
     17 H8        -4.0546   -2.0709   19.1911 H         1 RES1    0.0000
     18 C10       -2.1573   -2.1452   20.0003 C.3       1 RES1    0.0000
     19 H9        -2.4495   -1.8390   20.8961 H         1 RES1    0.0000
     20 H10       -1.2920   -1.7044   19.8048 H         1 RES1    0.0000
     21 C11       -1.9221   -3.6510   20.0637 C.3       1 RES1    0.0000
     22 H11       -1.3807   -3.8511   20.8676 H         1 RES1    0.0000
     23 H12       -2.7975   -4.1005   20.1747 H         1 RES1    0.0000
     24 C12       -1.2198   -4.2543   18.8443 C.3       1 RES1    0.0000
     25 H13       -0.7333   -5.0688   19.1282 H         1 RES1    0.0000
     26 H14       -0.5503   -3.6060   18.5104 H         1 RES1    0.0000
     27 C13       -2.1591   -4.6190   17.7010 C.3       1 RES1    0.0000
     28 H15       -1.6238   -4.9335   16.9294 H         1 RES1    0.0000
     29 H16       -2.7439   -5.3649   17.9881 H         1 RES1    0.0000
     30 C14       -3.0106   -3.4681   17.2684 C.2       1 RES1    0.0000
     31 N1        -7.0933    1.7488   18.3864 N.pl3     1 RES1    0.0000
     32 N2        -4.1465   -3.6719   16.6998 N.pl3     1 RES1    1.0000
     33 O1        -7.6302    0.8123   18.9266 O.2       1 RES1    0.0000
     34 O2        -7.5076    2.8874   18.4630 O.2       1 RES1    0.0000
     35 O3        -4.8454   -2.4248   16.4092 O.3       1 RES1    0.0000
     36 O4        -4.7840   -4.7179   16.3980 O.2       1 RES1   -1.0000
     37 C15       -2.7230   -6.7415   12.8925 C.ar      2 RES2    0.0000
     38 C16       -2.0136   -7.8231   13.3808 C.ar      2 RES2    0.0000
     39 H17       -2.3160   -8.7130   13.2371 H         2 RES2    0.0000
     40 C17       -0.8575   -7.5697   14.0802 C.ar      2 RES2    0.0000
     41 H18       -0.3427   -8.2925   14.4198 H         2 RES2    0.0000
     42 C18       -0.4368   -6.2624   14.2932 C.ar      2 RES2    0.0000
     43 H19        0.3602   -6.1029   14.7856 H         2 RES2    0.0000
     44 C19       -1.1620   -5.1808   13.7978 C.ar      2 RES2    0.0000
     45 C20       -2.3225   -5.4280   13.0806 C.ar      2 RES2    0.0000
     46 H20       -2.8341   -4.7102   12.7250 H         2 RES2    0.0000
     47 C21       -0.6163   -3.7986   14.0272 C.3       2 RES2    0.0000
     48 H21       -0.1419   -3.7897   14.9075 H         2 RES2    0.0000
     49 C22        0.3384   -3.2385   12.9567 C.3       2 RES2    0.0000
     50 H22        1.2810   -3.5073   13.1558 H         2 RES2    0.0000
     51 C23       -0.0174   -3.5775   11.5025 C.3       2 RES2    0.0000
     52 H23       -0.1159   -4.5588   11.4204 H         2 RES2    0.0000
     53 H24       -0.8938   -3.1706   11.2883 H         2 RES2    0.0000
     54 C24        1.0023   -3.1052   10.4785 C.3       2 RES2    0.0000
     55 H25        0.7074   -3.4088    9.5834 H         2 RES2    0.0000
     56 H26        1.8661   -3.5486   10.6726 H         2 RES2    0.0000
     57 C25        1.2393   -1.5937   10.4208 C.3       2 RES2    0.0000
     58 H27        1.7800   -1.3924    9.6159 H         2 RES2    0.0000
     59 H28        0.3641   -1.1441   10.3109 H         2 RES2    0.0000
     60 C26        1.9410   -0.9934   11.6352 C.3       2 RES2    0.0000
     61 H29        2.4236   -0.1769   11.3533 H         2 RES2    0.0000
     62 H30        2.6136   -1.6407   11.9650 H         2 RES2    0.0000
     63 C27        0.9990   -0.6347   12.7837 C.3       2 RES2    0.0000
     64 H31        1.5357   -0.3247   13.5561 H         2 RES2    0.0000
     65 H32        0.4153    0.1130   12.5015 H         2 RES2    0.0000
     66 C28        0.1498   -1.7774   13.2105 C.2       2 RES2    0.0000
     67 N3        -3.9308   -6.9962   12.0930 N.pl3     2 RES2    0.0000
     68 N4        -0.9913   -1.5756   13.7807 N.pl3     2 RES2    1.0000
     69 O5        -4.3398   -8.1388   12.0105 O.2       2 RES2    0.0000
     70 O6        -4.4659   -6.0586   11.5513 O.2       2 RES2    0.0000
     71 O7        -1.6864   -2.8216   14.0749 O.3       2 RES2    0.0000
     72 O8        -1.6279   -0.5339   14.0812 O.2       2 RES2   -1.0000
@<TRIPOS>BOND
     1    1    2 ar
     2    2    3 1
     3    4    2 ar
     4    5    4 1
     5    6    4 ar
     6    7    6 1
     7    8    6 ar
     8    9    1 ar
     9   10    9 1
    10   11    8 1
    11   12   11 1
    12   13   11 1
    13   14   13 1
    14   15   13 1
    15   16   15 1
    16   17   15 1
    17   18   15 1
    18   19   18 1
    19   20   18 1
    20   21   18 1
    21   22   21 1
    22   23   21 1
    23   24   21 1
    24   25   24 1
    25   26   24 1
    26   27   24 1
    27   28   27 1
    28   29   27 1
    29   30   13 1
    30   31    1 1
    31   32   30 2
    32   33   31 2
    33   34   31 2
    34   35   11 1
    35   36   32 1
    36   37   38 ar
    37   38   39 1
    38   40   38 ar
    39   41   40 1
    40   42   40 ar
    41   43   42 1
    42   44   42 ar
    43   45   37 ar
    44   46   45 1
    45   47   44 1
    46   48   47 1
    47   49   47 1
    48   50   49 1
    49   51   49 1
    50   52   51 1
    51   53   51 1
    52   54   51 1
    53   55   54 1
    54   56   54 1
    55   57   54 1
    56   58   57 1
    57   59   57 1
    58   60   57 1
    59   61   60 1
    60   62   60 1
    61   63   60 1
    62   64   63 1
    63   65   63 1
    64   66   49 1
    65   67   37 1
    66   68   66 2
    67   69   67 2
    68   70   67 2
    69   71   47 1
    70   72   68 1
    71    8    9 ar
    72   27   30 1
    73   32   35 1
    74   44   45 ar
    75   63   66 1
    76   68   71 1
@<TRIPOS>SUBSTRUCTURE
     1 RES1 1
     2 RES2 37

@<TRIPOS>CRYSIN
   6.3130   10.4530   20.3210  90.0380  90.0260  90.0370   2 1

