# MOL2 file generated by ConQuest
# Please check atom types

@<TRIPOS>MOLECULE
OXEJUX
    36    38     1
SMALL
USER_CHARGES
****
Generated from CSD

@<TRIPOS>ATOM
      1 C1         5.6753    7.5944   -0.8780 C.ar      1 RES1    0.0000
      2 C2         6.9628    7.8461   -1.1036 C.ar      1 RES1    0.0000
      3 H1         7.3525    7.6043   -1.9343 H         1 RES1    0.0000
      4 C3         7.7086    8.4429   -0.1555 C.ar      1 RES1    0.0000
      5 H2         8.6400    8.5600   -0.2820 H         1 RES1    0.0000
      6 C4         7.0995    8.8865    1.0152 C.ar      1 RES1    0.0000
      7 H3         7.5967    9.3774    1.6569 H         1 RES1    0.0000
      8 C5         5.7648    8.6111    1.2392 C.ar      1 RES1    0.0000
      9 C6         5.0251    7.9856    0.3140 C.ar      1 RES1    0.0000
     10 H4         4.0987    7.8112    0.4542 H         1 RES1    0.0000
     11 C7         5.2038    9.1033    2.6019 C.3       1 RES1    0.0000
     12 H5         5.7906    9.8085    2.9998 H         1 RES1    0.0000
     13 C8         4.9913    7.9345    3.5866 C.3       1 RES1    0.0000
     14 H6         4.7872    7.0960    3.0836 H         1 RES1    0.0000
     15 C9         6.1696    7.7127    4.4997 C.3       1 RES1    0.0000
     16 H7         6.2274    8.4666    5.1383 H         1 RES1    0.0000
     17 H8         6.9984    7.7078    3.9616 H         1 RES1    0.0000
     18 C10        6.0778    6.3957    5.2892 C.3       1 RES1    0.0000
     19 H9         5.9067    5.6556    4.6536 H         1 RES1    0.0000
     20 H10        6.9535    6.2225    5.7191 H         1 RES1    0.0000
     21 C11        5.0000    6.3795    6.3593 C.3       1 RES1    0.0000
     22 H11        5.0679    5.5322    6.8684 H         1 RES1    0.0000
     23 H12        5.1659    7.1234    6.9903 H         1 RES1    0.0000
     24 C12        3.6212    6.5054    5.8303 C.3       1 RES1    0.0000
     25 H13        2.9968    6.1166    6.4919 H         1 RES1    0.0000
     26 H14        3.5537    5.9634    5.0042 H         1 RES1    0.0000
     27 C13        3.1679    7.9133    5.5148 C.3       1 RES1    0.0000
     28 H15        3.4055    8.5127    6.2663 H         1 RES1    0.0000
     29 H16        2.1844    7.9271    5.4112 H         1 RES1    0.0000
     30 C14        3.8186    8.4180    4.2421 C.2       1 RES1    0.0000
     31 N1         4.7950    6.9938   -1.8383 N.pl3     1 RES1    0.0000
     32 N2         3.1792    9.3014    3.5561 N.pl3     1 RES1    1.0000
     33 O1         5.2793    6.7147   -2.9617 O.2       1 RES1    0.0000
     34 O2         3.6420    6.7334   -1.6051 O.2       1 RES1    0.0000
     35 O3         3.9037    9.6067    2.3382 O.3       1 RES1    0.0000
     36 O4         2.1061    9.9368    3.7131 O.2       1 RES1   -1.0000
@<TRIPOS>BOND
     1    1    2 ar
     2    2    3 1
     3    4    2 ar
     4    5    4 1
     5    6    4 ar
     6    7    6 1
     7    8    6 ar
     8    9    1 ar
     9   10    9 1
    10   11    8 1
    11   12   11 1
    12   13   11 1
    13   14   13 1
    14   15   13 1
    15   16   15 1
    16   17   15 1
    17   18   15 1
    18   19   18 1
    19   20   18 1
    20   21   18 1
    21   22   21 1
    22   23   21 1
    23   24   21 1
    24   25   24 1
    25   26   24 1
    26   27   24 1
    27   28   27 1
    28   29   27 1
    29   30   13 1
    30   31    1 1
    31   32   30 2
    32   33   31 2
    33   34   31 2
    34   35   11 1
    35   36   32 1
    36    8    9 ar
    37   27   30 1
    38   32   35 1
@<TRIPOS>SUBSTRUCTURE
     1 RES1 1

@<TRIPOS>CRYSIN
   6.7400   12.4600   15.2500  90.0000  91.7700  90.0000  14 1

