# MOL2 file generated by ConQuest
# Please check atom types

@<TRIPOS>MOLECULE
OXEKEI
    34    33     2
SMALL
USER_CHARGES
****
Generated from CSD

@<TRIPOS>ATOM
      1 C1         6.9192    5.3756    2.9487 C.ar      1 RES1    0.0000
      2 C2         6.1426    4.9422    4.0084 C.ar      1 RES1    0.0000
      3 H1         6.2637    5.3063    4.8555 H         1 RES1    0.0000
      4 C3         5.1959    3.9748    3.8043 C.ar      1 RES1    0.0000
      5 H2         4.6550    3.6908    4.5051 H         1 RES1    0.0000
      6 C4         5.0550    3.4275    2.5499 C.ar      1 RES1    0.0000
      7 H3         4.4185    2.7641    2.4054 H         1 RES1    0.0000
      8 C5         5.8493    3.8538    1.5023 C.ar      1 RES1    0.0000
      9 H4         5.7430    3.4616    0.6654 H         1 RES1    0.0000
     10 C6         6.7986    4.8481    1.6655 C.ar      1 RES1    0.0000
     11 C7         7.6170    5.2889    0.4632 C.3       1 RES1    0.0000
     12 H5         8.4559    5.7047    0.7521 H         1 RES1    0.0000
     13 C8         6.8524    6.2159   -0.4595 C.2       1 RES1    0.0000
     14 C9         6.3861    7.4544   -0.3085 C.2       1 RES1    0.0000
     15 H6         6.5648    7.9230    0.4753 H         1 RES1    0.0000
     16 C10        5.5743    8.0980   -1.3896 C.3       1 RES1    0.0000
     17 H7         4.8541    8.6060   -0.9851 H         1 RES1    0.0000
     18 H8         6.1338    8.7183   -1.8816 H         1 RES1    0.0000
     19 C11        4.9913    7.0780   -2.3672 C.3       1 RES1    0.0000
     20 H9         4.2144    6.6723   -1.9506 H         1 RES1    0.0000
     21 H10        4.6805    7.5567   -3.1510 H         1 RES1    0.0000
     22 C12        5.8560    6.0278   -2.8052 C.3       1 RES1    0.0000
     23 H11        6.4708    6.3717   -3.4716 H         1 RES1    0.0000
     24 H12        5.3346    5.3180   -3.2116 H         1 RES1    0.0000
     25 C13        6.6175    5.4851   -1.6589 C.2       1 RES1    0.0000
     26 N1         7.1572    4.3082   -1.6025 N.pl3     1 RES1    1.0000
     27 N2         7.8930    6.4184    3.2473 N.pl3     1 RES1    0.0000
     28 O1         7.1952    3.3367   -2.3830 O.2       1 RES1   -1.0000
     29 O2         8.1244    7.2750    2.4002 O.2       1 RES1    0.0000
     30 O3         8.4200    6.4191    4.3502 O.2       1 RES1    0.0000
     31 O4         7.8822    4.1226   -0.3594 O.3       1 RES1    0.0000
     32 C14        5.7297    7.5027   -2.7558 Du        2 SUP2    0.0000
     33 H13        4.9637    7.7624   -3.2908 Du        2 SUP2    0.0000
     34 H14        6.5170    7.8909   -3.1696 Du        2 SUP2    0.0000
@<TRIPOS>BOND
     1    1    2 ar
     2    2    3 1
     3    4    2 ar
     4    5    4 1
     5    6    4 ar
     6    7    6 1
     7    8    6 ar
     8    9    8 1
     9   10    1 ar
    10   11   10 1
    11   12   11 1
    12   13   11 1
    13   14   13 2
    14   15   14 1
    15   16   14 1
    16   17   16 1
    17   18   16 1
    18   19   16 1
    19   20   19 1
    20   21   19 1
    21   22   19 1
    22   23   22 1
    23   24   22 1
    24   25   13 1
    25   26   25 2
    26   27    1 1
    27   28   26 1
    28   29   27 2
    29   30   27 2
    30   31   11 1
    31    8   10 ar
    32   22   25 1
    33   26   31 1
@<TRIPOS>SUBSTRUCTURE
     1 RES1 1
     2 SUP2 32

@<TRIPOS>CRYSIN
   8.7484   14.5938    9.8507  90.0000 108.8990  90.0000 231 1

