# MOL2 file generated by ConQuest
# Please check atom types

@<TRIPOS>MOLECULE
OXIMOZ
    35    36     1
SMALL
NO_CHARGES
****
Generated from CSD

@<TRIPOS>ATOM
      1 O1        10.4985    1.9372   20.0509 O.3       1 RES1    0.0000
      2 O2         8.3152    1.7622   19.5957 O.2       1 RES1    0.0000
      3 O3         7.5283    0.7654   17.1927 O.3       1 RES1    0.0000
      4 H1         7.4436    1.0818   17.9875 H         1 RES1    0.0000
      5 O4         8.1411   -3.2417   10.7183 O.2       1 RES1    0.0000
      6 O5         6.1691   -2.8684   11.4511 O.2       1 RES1    0.0000
      7 N1        10.8649    0.2060   16.2192 N.pl3     1 RES1    0.0000
      8 H2        11.5109   -0.0838   15.7025 H         1 RES1    0.0000
      9 N2         7.3812   -2.7305   11.5180 N.pl3     1 RES1    0.0000
     10 C1         9.4980    0.0983   15.9445 C.2       1 RES1    0.0000
     11 C2         8.8687    0.6407   17.0417 C.2       1 RES1    0.0000
     12 C3         9.8507    1.0559   17.9790 C.2       1 RES1    0.0000
     13 C4        11.0895    0.7634   17.4219 C.2       1 RES1    0.0000
     14 C5        12.4747    0.9615   17.9311 C.3       1 RES1    0.0000
     15 H3        13.1033    0.6377   17.2818 H         1 RES1    0.0000
     16 H4        12.5862    0.4777   18.7526 H         1 RES1    0.0000
     17 H5        12.6286    1.8962   18.0857 H         1 RES1    0.0000
     18 C6         9.4797    1.6128   19.2607 C.2       1 RES1    0.0000
     19 C7        10.1347    2.4951   21.3446 C.3       1 RES1    0.0000
     20 H6         9.5463    1.8871   21.8181 H         1 RES1    0.0000
     21 H7         9.6749    3.3415   21.2288 H         1 RES1    0.0000
     22 C8        11.3938    2.6962   22.1125 C.3       1 RES1    0.0000
     23 H8        11.9924    3.2501   21.6062 H         1 RES1    0.0000
     24 H9        11.8064    1.8452   22.2782 H         1 RES1    0.0000
     25 H10       11.1935    3.1228   22.9503 H         1 RES1    0.0000
     26 C9         8.9715   -0.5562   14.7736 C.ar      1 RES1    0.0000
     27 C10        9.7902   -0.9988   13.7270 C.ar      1 RES1    0.0000
     28 H11       10.7023   -0.8198   13.7562 H         1 RES1    0.0000
     29 C11        9.2741   -1.6905   12.6610 C.ar      1 RES1    0.0000
     30 H12        9.8322   -1.9816   11.9753 H         1 RES1    0.0000
     31 C12        7.9245   -1.9503   12.6142 C.ar      1 RES1    0.0000
     32 C13        7.0774   -1.5001   13.6052 C.ar      1 RES1    0.0000
     33 H13        6.1631   -1.6608   13.5520 H         1 RES1    0.0000
     34 C14        7.5982   -0.8137   14.6686 C.ar      1 RES1    0.0000
     35 H14        7.0277   -0.5112   15.3381 H         1 RES1    0.0000
@<TRIPOS>BOND
     1    1   18 1
     2    2   18 2
     3    3    4 1
     4    5    9 2
     5    6    9 2
     6    7    8 1
     7    9   31 1
     8   10    7 1
     9   11    3 1
    10   12   11 1
    11   13    7 1
    12   14   13 1
    13   15   14 1
    14   16   14 1
    15   17   14 1
    16   18   12 1
    17   19    1 1
    18   20   19 1
    19   21   19 1
    20   22   19 1
    21   23   22 1
    22   24   22 1
    23   25   22 1
    24   26   10 1
    25   27   26 ar
    26   28   27 1
    27   29   27 ar
    28   30   29 1
    29   31   29 ar
    30   32   31 ar
    31   33   32 1
    32   34   26 ar
    33   35   34 1
    34   10   11 2
    35   12   13 2
    36   32   34 ar
@<TRIPOS>SUBSTRUCTURE
     1 RES1 1

@<TRIPOS>CRYSIN
  13.6806    7.6185   25.8478  90.0000  90.0000  90.0000  60 1

