# MOL2 file generated by ConQuest
# Please check atom types

@<TRIPOS>MOLECULE
OXIRUK
    15    15     1
SMALL
NO_CHARGES
****
Generated from CSD

@<TRIPOS>ATOM
      1 N1         1.3771    7.8018    1.4779 N.3       1 RES1    0.0000
      2 N2         1.1559    8.1241    2.7670 N.2       1 RES1    0.0000
      3 C1         0.7342    9.3575    2.6377 C.2       1 RES1    0.0000
      4 N3         0.6580    9.8651    1.4112 N.2       1 RES1    0.0000
      5 C2         1.0808    8.8384    0.6948 C.2       1 RES1    0.0000
      6 H1         1.1577    8.7845   -0.2993 H         1 RES1    0.0000
      7 N4         0.3646   10.1282    3.8132 N.pl3     1 RES1    0.0000
      8 O1         0.5472    9.6254    4.8970 O.2       1 RES1    0.0000
      9 O2        -0.1287   11.2178    3.6416 O.2       1 RES1    0.0000
     10 C3         1.7984    6.4365    1.1497 C.3       1 RES1    0.0000
     11 H2         1.1865    5.8239    1.6072 H         1 RES1    0.0000
     12 H3         2.6678    6.3286    1.4907 H         1 RES1    0.0000
     13 C4         1.7920    6.2150   -0.2925 C.1       1 RES1    0.0000
     14 C5         1.7970    6.0159   -1.4456 C.1       1 RES1    0.0000
     15 H4         1.8337    5.8931   -2.4020 H         1 RES1    0.0000
@<TRIPOS>BOND
     1    1    2 1
     2    2    3 2
     3    3    4 1
     4    4    5 2
     5    5    1 1
     6    6    5 1
     7    7    3 1
     8    8    7 2
     9    9    7 2
    10   10    1 1
    11   11   10 1
    12   12   10 1
    13   13   10 1
    14   14   13 3
    15   15   14 1
@<TRIPOS>SUBSTRUCTURE
     1 RES1 1

@<TRIPOS>CRYSIN
   7.1909   12.8110   14.7450  90.0000  90.0000  90.0000  61 1

