# MOL2 file generated by ConQuest
# Please check atom types

@<TRIPOS>MOLECULE
OXISEV
    28    28     2
SMALL
NO_CHARGES
****
Generated from CSD

@<TRIPOS>ATOM
      1 N1         2.3628    2.1020    8.0478 N.pl3     1 RES1    0.0000
      2 N2         1.7795    1.2640    7.1618 N.2       1 RES1    0.0000
      3 C1         1.4885    2.0949    6.1968 C.2       1 RES1    0.0000
      4 N3         1.8092    3.3900    6.3590 N.2       1 RES1    0.0000
      5 C2         2.3630    3.3499    7.5533 C.2       1 RES1    0.0000
      6 H1         2.7399    4.0655    8.0375 H         1 RES1    0.0000
      7 C3         2.8372    1.6729    9.3149 C.2       1 RES1    0.0000
      8 H2         3.1868    2.3938    9.7725 H         1 RES1    0.0000
      9 C4         2.7387    0.4698    9.7459 C.2       1 RES1    0.0000
     10 H3         3.1184    0.2357   10.6279 H         1 RES1    0.0000
     11 H4         2.2679   -0.1864    9.2722 H         1 RES1    0.0000
     12 N4         0.8305    1.6189    4.9951 N.pl3     1 RES1    0.0000
     13 O1         0.6018    0.4385    4.9048 O.2       1 RES1    0.0000
     14 O2         0.5326    2.4418    4.1531 O.2       1 RES1    0.0000
     15 N5         0.6015    6.6929    3.7212 N.pl3     2 RES2    0.0000
     16 N6         0.0802    7.5617    2.8271 N.2       2 RES2    0.0000
     17 C5        -0.1889    6.7512    1.8343 C.2       2 RES2    0.0000
     18 N7         0.0976    5.4538    1.9874 N.2       2 RES2    0.0000
     19 C6         0.6031    5.4561    3.2013 C.2       2 RES2    0.0000
     20 H5         0.9630    4.7191    3.7121 H         2 RES2    0.0000
     21 C7         1.0722    7.1093    4.9936 C.2       2 RES2    0.0000
     22 H6         1.4286    6.3972    5.4874 H         2 RES2    0.0000
     23 C8         1.0245    8.3360    5.4213 C.2       2 RES2    0.0000
     24 H7         1.3729    8.5295    6.2621 H         2 RES2    0.0000
     25 H8         0.6823    9.0117    4.8499 H         2 RES2    0.0000
     26 N8        -0.8033    7.2576    0.6223 N.pl3     2 RES2    0.0000
     27 O3        -1.0930    8.4314    0.5716 O.2       2 RES2    0.0000
     28 O4        -0.9976    6.4655   -0.2752 O.2       2 RES2    0.0000
@<TRIPOS>BOND
     1    1    2 1
     2    2    3 2
     3    3    4 1
     4    4    5 2
     5    5    1 1
     6    6    5 1
     7    7    1 1
     8    8    7 1
     9    9    7 2
    10   10    9 1
    11   11    9 1
    12   12    3 1
    13   13   12 2
    14   14   12 2
    15   15   16 1
    16   16   17 2
    17   17   18 1
    18   18   19 2
    19   19   15 1
    20   20   19 1
    21   21   15 1
    22   22   21 1
    23   23   21 2
    24   24   23 1
    25   25   23 1
    26   26   17 1
    27   27   26 2
    28   28   26 2
@<TRIPOS>SUBSTRUCTURE
     1 RES1 1
     2 RES2 15

@<TRIPOS>CRYSIN
   7.1543   21.4310    8.7615  90.0000 112.9200  90.0000  14 1

