# MOL2 file generated by ConQuest
# Please check atom types

@<TRIPOS>MOLECULE
OXOLEU
    30    33     1
SMALL
NO_CHARGES
****
Generated from CSD

@<TRIPOS>ATOM
      1 O1         2.8064    6.4247    8.4220 O.2       1 RES1    0.0000
      2 O2         4.6476    1.5138    5.7027 O.2       1 RES1    0.0000
      3 O3         6.3883    2.1050    7.0227 O.3       1 RES1    0.0000
      4 N1         5.0094    6.0595    8.1517 N.am      1 RES1    0.0000
      5 N2         5.1178    3.7333    6.3076 N.am      1 RES1    0.0000
      6 N3         6.9300    3.3391    7.5316 N.2       1 RES1    0.0000
      7 C1         3.7329    6.0361    7.7200 C.2       1 RES1    0.0000
      8 C2         3.4549    5.5489    6.3207 C.ar      1 RES1    0.0000
      9 C3         2.4238    6.2001    5.6384 C.ar      1 RES1    0.0000
     10 H1         1.9634    6.9146    6.0636 H         1 RES1    0.0000
     11 C4         2.0598    5.8280    4.3616 C.ar      1 RES1    0.0000
     12 H2         1.3564    6.2855    3.9157 H         1 RES1    0.0000
     13 C5         2.7197    4.7868    3.7290 C.ar      1 RES1    0.0000
     14 H3         2.4820    4.5429    2.8417 H         1 RES1    0.0000
     15 C6         3.7231    4.1026    4.3881 C.ar      1 RES1    0.0000
     16 H4         4.1633    3.3763    3.9629 H         1 RES1    0.0000
     17 C7         4.0856    4.4802    5.6711 C.ar      1 RES1    0.0000
     18 C8         6.1272    4.2404    7.0808 C.2       1 RES1    0.0000
     19 C9         6.1906    5.7081    7.3547 C.3       1 RES1    0.0000
     20 H5         6.2066    6.2263    6.4992 H         1 RES1    0.0000
     21 C10        5.2865    2.3586    6.2699 C.2       1 RES1    0.0000
     22 C11        7.3625    6.1036    8.2462 C.3       1 RES1    0.0000
     23 H6         7.6512    7.0318    8.0606 H         1 RES1    0.0000
     24 H7         8.1313    5.4938    8.1125 H         1 RES1    0.0000
     25 C12        6.8030    5.9775    9.6624 C.3       1 RES1    0.0000
     26 H8         6.8318    5.0383    9.9747 H         1 RES1    0.0000
     27 H9         7.3096    6.5446   10.2973 H         1 RES1    0.0000
     28 C13        5.3635    6.4640    9.5197 C.3       1 RES1    0.0000
     29 H10        4.7721    6.0299   10.1844 H         1 RES1    0.0000
     30 H11        5.3061    7.4466    9.6278 H         1 RES1    0.0000
@<TRIPOS>BOND
     1    1    7 2
     2    2   21 2
     3    3    6 1
     4    4    7 1
     5    5   17 1
     6    6   18 2
     7    7    8 1
     8    8    9 ar
     9    9   10 1
    10   11    9 ar
    11   12   11 1
    12   13   11 ar
    13   14   13 1
    14   15   13 ar
    15   16   15 1
    16   17    8 ar
    17   18    5 1
    18   19    4 1
    19   20   19 1
    20   21    3 1
    21   22   19 1
    22   23   22 1
    23   24   22 1
    24   25   22 1
    25   26   25 1
    26   27   25 1
    27   28    4 1
    28   29   28 1
    29   30   28 1
    30    5   21 1
    31   15   17 ar
    32   18   19 1
    33   25   28 1
@<TRIPOS>SUBSTRUCTURE
     1 RES1 1

