# MOL2 file generated by ConQuest
# Please check atom types

@<TRIPOS>MOLECULE
OXONOG
    38    41     1
SMALL
USER_CHARGES
****
Generated from CSD

@<TRIPOS>ATOM
      1 O1         0.3483    5.3224    5.0653 O.2       1 RES1    0.0000
      2 O2         1.6204    3.8366    6.0278 O.2       1 RES1    0.0000
      3 O3        -3.2295    4.2861    3.6484 O.3       1 RES1    0.0000
      4 O4        -4.0397    2.2215    7.0235 O.2       1 RES1   -1.0000
      5 O5        -2.3608   -0.3366    9.6130 O.3       1 RES1    0.0000
      6 N1        -1.8475    4.2718    3.6985 N.2       1 RES1    0.0000
      7 N2        -3.7913    3.5146    4.6277 N.2       1 RES1    0.0000
      8 N3        -0.2650    3.1900    5.1013 N.pl3     1 RES1    0.0000
      9 H1        -0.1164    2.4729    5.6092 H         1 RES1    0.0000
     10 N4        -1.1028   -0.7637    9.2715 N.2       1 RES1    0.0000
     11 N5        -2.8723    0.5774    8.6980 N.2       1 RES1    0.0000
     12 N6         0.6247    4.2013    5.4279 N.pl3     1 RES1    0.0000
     13 N7         0.4490   -0.3968    7.6056 N.2       1 RES1    0.0000
     14 N8        -2.9550    2.1979    6.4200 N.pl3     1 RES1    1.0000
     15 N9        -1.8982    1.5150    6.6792 N.2       1 RES1    0.0000
     16 C1        -1.5553    3.5047    4.7091 C.2       1 RES1    0.0000
     17 C2        -2.7749    3.0415    5.2714 C.2       1 RES1    0.0000
     18 C3        -0.8105   -0.1210    8.1781 C.2       1 RES1    0.0000
     19 C4        -1.9143    0.7162    7.8104 C.2       1 RES1    0.0000
     20 O1B        0.8607   -5.3224    9.2257 O.2       1 RES1    0.0000
     21 O2B       -0.4114   -3.8366    8.2632 O.2       1 RES1    0.0000
     22 O3B        4.4385   -4.2861   10.6427 O.3       1 RES1    0.0000
     23 O4B        5.2486   -2.2215    7.2676 O.2       1 RES1   -1.0000
     24 O5B        3.5698    0.3366    4.6780 O.3       1 RES1    0.0000
     25 N1B        3.0564   -4.2718   10.5925 N.2       1 RES1    0.0000
     26 N2B        5.0002   -3.5146    9.6633 N.2       1 RES1    0.0000
     27 N3B        1.4739   -3.1900    9.1897 N.pl3     1 RES1    0.0000
     28 H1B        1.3254   -2.4729    8.6818 H         1 RES1    0.0000
     29 N4B        2.3118    0.7637    5.0196 N.2       1 RES1    0.0000
     30 N5B        4.0813   -0.5774    5.5931 N.2       1 RES1    0.0000
     31 N6B        0.5843   -4.2013    8.8632 N.pl3     1 RES1    0.0000
     32 N7B        0.7600    0.3968    6.6855 N.2       1 RES1    0.0000
     33 N8B        4.1639   -2.1979    7.8711 N.pl3     1 RES1    1.0000
     34 N9B        3.1071   -1.5150    7.6119 N.2       1 RES1    0.0000
     35 C1B        2.7642   -3.5047    9.5820 C.2       1 RES1    0.0000
     36 C2B        3.9839   -3.0415    9.0197 C.2       1 RES1    0.0000
     37 C3B        2.0195    0.1210    6.1130 C.2       1 RES1    0.0000
     38 C4B        3.1233   -0.7162    6.4807 C.2       1 RES1    0.0000
@<TRIPOS>BOND
     1    1   12 2
     2    2   12 2
     3    3    6 1
     4    4   14 1
     5    5   10 1
     6    6   16 2
     7    7    3 1
     8    8    9 1
     9   10   18 2
    10   11    5 1
    11   12    8 1
    12   13   18 1
    13   14   15 2
    14   15   19 1
    15   16    8 1
    16   17    7 2
    17   18   19 1
    18   19   11 2
    19   20   31 2
    20   21   31 2
    21   22   25 1
    22   23   33 1
    23   24   29 1
    24   25   35 2
    25   26   22 1
    26   27   28 1
    27   29   37 2
    28   30   24 1
    29   31   27 1
    30   32   13 2
    31   33   34 2
    32   34   38 1
    33   35   27 1
    34   36   26 2
    35   37   32 1
    36   38   30 2
    37   14   17 1
    38   16   17 1
    39   33   36 1
    40   35   36 1
    41   37   38 1
@<TRIPOS>SUBSTRUCTURE
     1 RES1 1

@<TRIPOS>CRYSIN
   8.4060    7.5050   16.0010  90.0000 116.7300  90.0000  14 1

