# MOL2 file generated by ConQuest
# Please check atom types

@<TRIPOS>MOLECULE
OXOQEZ
    40    41     1
SMALL
NO_CHARGES
****
Generated from CSD

@<TRIPOS>ATOM
      1 C1        11.7459    3.6800   14.3482 C.ar      1 RES1    0.0000
      2 H1        11.9495    4.4118   14.8850 H         1 RES1    0.0000
      3 C2        10.8013    2.7779   14.7677 C.ar      1 RES1    0.0000
      4 H2        10.3813    2.9130   15.5861 H         1 RES1    0.0000
      5 C3        10.4572    1.6803   14.0167 C.ar      1 RES1    0.0000
      6 H3         9.8171    1.0755   14.3133 H         1 RES1    0.0000
      7 C4        11.1012    1.5094   12.7984 C.ar      1 RES1    0.0000
      8 C5        12.0514    2.4188   12.3687 C.ar      1 RES1    0.0000
      9 C6        12.4014    3.5180   13.1380 C.ar      1 RES1    0.0000
     10 H4        13.0488    4.1215   12.8524 H         1 RES1    0.0000
     11 C7        10.9674    0.4835   11.7748 C.2       1 RES1    0.0000
     12 O1        11.8602    0.8127   10.7373 O.3       1 RES1    0.0000
     13 C8        12.4932    1.9767   11.0502 C.2       1 RES1    0.0000
     14 N1        13.3117    2.5898   10.2941 N.2       1 RES1    0.0000
     15 C9        10.2212   -0.6072   11.6935 C.2       1 RES1    0.0000
     16 H5         9.6379   -0.7771   12.3980 H         1 RES1    0.0000
     17 C10       10.2368   -1.5885   10.5678 C.3       1 RES1    0.0000
     18 H6        10.9227   -1.3285    9.9331 H         1 RES1    0.0000
     19 H7        10.4716   -2.4624   10.9151 H         1 RES1    0.0000
     20 O2         9.0006   -1.6810    9.8928 O.3       1 RES1    0.0000
     21 C11        8.7331   -0.5816    9.1032 C.3       1 RES1    0.0000
     22 H8         8.6441    0.1966    9.6570 H         1 RES1    0.0000
     23 H9         7.9159   -0.7257    8.6212 H         1 RES1    0.0000
     24 H10        9.4524   -0.4516    8.4820 H         1 RES1    0.0000
     25 O3        13.4467    1.8122    9.0861 O.3       1 RES1    0.0000
     26 C12       13.8341    2.5353    8.0234 C.2       1 RES1    0.0000
     27 O4        14.1114    3.6859    8.0671 O.2       1 RES1    0.0000
     28 C13       13.8419    1.6560    6.7807 C.3       1 RES1    0.0000
     29 C14       14.5064    0.3266    7.0499 C.3       1 RES1    0.0000
     30 H11       15.4125    0.4727    7.3313 H         1 RES1    0.0000
     31 H12       14.5001   -0.2016    6.2491 H         1 RES1    0.0000
     32 H13       14.0273   -0.1361    7.7417 H         1 RES1    0.0000
     33 C15       14.5611    2.4040    5.6704 C.3       1 RES1    0.0000
     34 H14       15.4570    2.6045    5.9486 H         1 RES1    0.0000
     35 H15       14.0947    3.2224    5.4820 H         1 RES1    0.0000
     36 H16       14.5839    1.8597    4.8810 H         1 RES1    0.0000
     37 C16       12.3803    1.4555    6.3866 C.3       1 RES1    0.0000
     38 H17       12.3358    0.9515    5.5699 H         1 RES1    0.0000
     39 H18       11.9635    2.3102    6.2564 H         1 RES1    0.0000
     40 H19       11.9241    0.9787    7.0821 H         1 RES1    0.0000
@<TRIPOS>BOND
     1    1    2 1
     2    3    1 ar
     3    4    3 1
     4    5    3 ar
     5    6    5 1
     6    7    5 ar
     7    8    7 ar
     8    9    1 ar
     9   10    9 1
    10   11    7 1
    11   12   11 1
    12   13    8 1
    13   14   13 2
    14   15   11 2
    15   16   15 1
    16   17   15 1
    17   18   17 1
    18   19   17 1
    19   20   17 1
    20   21   20 1
    21   22   21 1
    22   23   21 1
    23   24   21 1
    24   25   14 1
    25   26   25 1
    26   27   26 2
    27   28   26 1
    28   29   28 1
    29   30   29 1
    30   31   29 1
    31   32   29 1
    32   33   28 1
    33   34   33 1
    34   35   33 1
    35   36   33 1
    36   37   28 1
    37   38   37 1
    38   39   37 1
    39   40   37 1
    40    8    9 ar
    41   12   13 1
@<TRIPOS>SUBSTRUCTURE
     1 RES1 1

@<TRIPOS>CRYSIN
  12.7082   10.0795   24.4296  90.0000  90.0000  90.0000  61 1

