# MOL2 file generated by ConQuest
# Please check atom types

@<TRIPOS>MOLECULE
OXUCOA
    57    64     1
SMALL
NO_CHARGES
****
Generated from CSD

@<TRIPOS>ATOM
      1 O1         8.2358    6.7516   16.9464 O.2       1 RES1    0.0000
      2 N1         7.7513    7.9110   17.2689 N.pl3     1 RES1    0.0000
      3 N2         9.4079    8.7717   20.3851 N.ar      1 RES1    0.0000
      4 C1         8.2337    8.6048   18.3383 C.ar      1 RES1    0.0000
      5 C2         7.9198    9.9761   18.4319 C.ar      1 RES1    0.0000
      6 H1         8.2255   10.4642   19.1607 H         1 RES1    0.0000
      7 C3         7.1821   10.5956   17.4816 C.ar      1 RES1    0.0000
      8 H2         7.0833   11.5197   17.4966 H         1 RES1    0.0000
      9 C4         5.8021   10.4305   15.4128 C.ar      1 RES1    0.0000
     10 H3         5.6740   11.3518   15.3939 H         1 RES1    0.0000
     11 C5         5.2696    9.6571   14.4458 C.ar      1 RES1    0.0000
     12 H4         4.8693   10.0627   13.7105 H         1 RES1    0.0000
     13 C6         4.6960    7.4403   13.4963 C.ar      1 RES1    0.0000
     14 H5         4.2279    7.8557   12.8075 H         1 RES1    0.0000
     15 C7         4.7914    6.1020   13.5159 C.ar      1 RES1    0.0000
     16 H6         4.4975    5.6134   12.7817 H         1 RES1    0.0000
     17 C8         5.4429    4.0040   14.6685 C.ar      1 RES1    0.0000
     18 H7         5.1448    3.5099   13.9384 H         1 RES1    0.0000
     19 C9         5.9663    3.3624   15.7216 C.ar      1 RES1    0.0000
     20 H8         6.1421    2.4506   15.6648 H         1 RES1    0.0000
     21 C10        6.8478    3.3978   18.0810 C.ar      1 RES1    0.0000
     22 C11        6.9740    4.0850   19.3024 C.ar      1 RES1    0.0000
     23 C12        6.2328    6.0327   20.6947 C.ar      1 RES1    0.0000
     24 H9         6.6387    5.6462   21.4376 H         1 RES1    0.0000
     25 C13        5.5451    7.1988   20.8500 C.ar      1 RES1    0.0000
     26 H10        5.5057    7.6120   21.6826 H         1 RES1    0.0000
     27 C14        4.9036    7.7666   19.7565 C.ar      1 RES1    0.0000
     28 H11        4.3870    8.5324   19.8659 H         1 RES1    0.0000
     29 C15        5.0307    7.1963   18.5108 C.ar      1 RES1    0.0000
     30 H12        4.5955    7.5830   17.7847 H         1 RES1    0.0000
     31 C16        6.5650    9.8371   16.4685 C.ar      1 RES1    0.0000
     32 C17        6.7321    8.4412   16.4642 C.ar      1 RES1    0.0000
     33 C18        5.3022    8.2395   14.5189 C.ar      1 RES1    0.0000
     34 C19        5.9458    7.5940   15.6081 C.ar      1 RES1    0.0000
     35 C20        5.3315    5.4187   14.6376 C.ar      1 RES1    0.0000
     36 C21        5.7540    6.1645   15.7704 C.ar      1 RES1    0.0000
     37 C22        6.2570    4.0616   16.9297 C.ar      1 RES1    0.0000
     38 C23        5.9725    5.4340   16.9905 C.ar      1 RES1    0.0000
     39 C24        6.3469    5.3975   19.4454 C.ar      1 RES1    0.0000
     40 C25        5.8065    6.0379   18.3121 C.ar      1 RES1    0.0000
     41 C26        7.4199    2.0976   17.9905 C.ar      1 RES1    0.0000
     42 H13        7.3295    1.6161   17.1999 H         1 RES1    0.0000
     43 C27        8.0949    1.5424   19.0326 C.ar      1 RES1    0.0000
     44 H14        8.4733    0.6982   18.9393 H         1 RES1    0.0000
     45 C28        8.2205    2.2181   20.2217 C.ar      1 RES1    0.0000
     46 H15        8.6844    1.8333   20.9302 H         1 RES1    0.0000
     47 C29        7.6569    3.4685   20.3634 C.ar      1 RES1    0.0000
     48 H16        7.7298    3.9127   21.1774 H         1 RES1    0.0000
     49 C30        9.0791    7.9513   19.3665 C.ar      1 RES1    0.0000
     50 C31        9.4643    6.6138   19.3783 C.ar      1 RES1    0.0000
     51 H17        9.2772    6.0616   18.6533 H         1 RES1    0.0000
     52 C32       10.1297    6.1206   20.4862 C.ar      1 RES1    0.0000
     53 H18       10.3750    5.2245   20.5195 H         1 RES1    0.0000
     54 C33       10.4269    6.9482   21.5274 C.ar      1 RES1    0.0000
     55 H19       10.8565    6.6298   22.2889 H         1 RES1    0.0000
     56 C34       10.0694    8.2645   21.4139 C.ar      1 RES1    0.0000
     57 H20       10.3072    8.8405   22.1040 H         1 RES1    0.0000
@<TRIPOS>BOND
     1    1    2 1
     2    2    4 ar
     3    3   49 ar
     4    4    5 ar
     5    5    6 1
     6    7    5 ar
     7    8    7 1
     8    9   10 1
     9   11    9 ar
    10   12   11 1
    11   13   14 1
    12   15   13 ar
    13   16   15 1
    14   17   18 1
    15   19   17 ar
    16   20   19 1
    17   21   22 ar
    18   22   39 ar
    19   23   24 1
    20   25   23 ar
    21   26   25 1
    22   27   25 ar
    23   28   27 1
    24   29   27 ar
    25   30   29 1
    26   31    7 ar
    27   32    2 ar
    28   33   11 ar
    29   34   32 ar
    30   35   15 ar
    31   36   34 ar
    32   37   19 ar
    33   38   36 ar
    34   39   23 ar
    35   40   29 ar
    36   41   21 ar
    37   42   41 1
    38   43   41 ar
    39   44   43 1
    40   45   43 ar
    41   46   45 1
    42   47   22 ar
    43   48   47 1
    44   49    4 1
    45   50   49 ar
    46   51   50 1
    47   52   50 ar
    48   53   52 1
    49   54   52 ar
    50   55   54 1
    51   56    3 ar
    52   57   56 1
    53    9   31 ar
    54   13   33 ar
    55   17   35 ar
    56   21   37 ar
    57   31   32 ar
    58   33   34 ar
    59   35   36 ar
    60   37   38 ar
    61   38   40 ar
    62   39   40 ar
    63   45   47 ar
    64   54   56 ar
@<TRIPOS>SUBSTRUCTURE
     1 RES1 1

@<TRIPOS>CRYSIN
   8.3737   12.6257   21.4999  90.0000  90.0000  90.0000  19 1

