# MOL2 file generated by ConQuest
# Please check atom types

@<TRIPOS>MOLECULE
OXUTEI
   104   114     2
SMALL
NO_CHARGES
****
Generated from CSD

@<TRIPOS>ATOM
      1 C1         5.1476   11.5178    1.0306 C.ar      1 RES1    0.0000
      2 H1         4.2582   11.6711    0.8055 H         1 RES1    0.0000
      3 C2         6.0103   12.5840    1.1641 C.ar      1 RES1    0.0000
      4 H2         5.7036   13.4526    1.0412 H         1 RES1    0.0000
      5 C3         7.3309   12.3548    1.4802 C.ar      1 RES1    0.0000
      6 H3         7.9027   13.0740    1.6234 H         1 RES1    0.0000
      7 C4         7.8087   11.0767    1.5850 C.ar      1 RES1    0.0000
      8 H4         8.7121   10.9353    1.7518 H         1 RES1    0.0000
      9 C5         6.9539    9.9823    1.4457 C.ar      1 RES1    0.0000
     10 C6         7.4475    8.5788    1.4188 C.3       1 RES1    0.0000
     11 H5         7.3291    8.1707    2.2899 H         1 RES1    0.0000
     12 H6         8.3937    8.5651    1.2030 H         1 RES1    0.0000
     13 C7         6.6646    7.7986    0.3704 C.3       1 RES1    0.0000
     14 H7         6.8095    8.1936   -0.5030 H         1 RES1    0.0000
     15 H8         6.9838    6.8820    0.3430 H         1 RES1    0.0000
     16 C8         5.1895    7.8137    0.6956 C.ar      1 RES1    0.0000
     17 C9         4.3283    6.7300    0.4812 C.ar      1 RES1    0.0000
     18 C10        4.7283    5.3383    0.1363 C.ar      1 RES1    0.0000
     19 C11        5.8711    4.7177    0.6337 C.ar      1 RES1    0.0000
     20 H9         6.4239    5.1805    1.2224 H         1 RES1    0.0000
     21 C12        6.1978    3.4312    0.2698 C.ar      1 RES1    0.0000
     22 H10        6.9746    3.0403    0.5962 H         1 RES1    0.0000
     23 C13        5.3749    2.7220   -0.5783 C.ar      1 RES1    0.0000
     24 H11        5.6090    1.8616   -0.8442 H         1 RES1    0.0000
     25 C14        4.2056    3.2942   -1.0314 C.ar      1 RES1    0.0000
     26 H12        3.6369    2.8017   -1.5776 H         1 RES1    0.0000
     27 C15        3.8669    4.5914   -0.6854 C.ar      1 RES1    0.0000
     28 C16        2.5914    5.2276   -1.1425 C.3       1 RES1    0.0000
     29 H13        1.9757    4.5418   -1.4440 H         1 RES1    0.0000
     30 H14        2.7725    5.8205   -1.8889 H         1 RES1    0.0000
     31 C17        1.9638    6.0151   -0.0044 C.3       1 RES1    0.0000
     32 H15        1.1805    6.4863   -0.3271 H         1 RES1    0.0000
     33 H16        1.6820    5.4076    0.6982 H         1 RES1    0.0000
     34 C18        2.9526    7.0011    0.5468 C.ar      1 RES1    0.0000
     35 C19        3.3207    9.1005    1.4906 C.ar      1 RES1    0.0000
     36 C20        4.6817    9.0394    1.1534 C.ar      1 RES1    0.0000
     37 C21        5.5938   10.2069    1.2290 C.ar      1 RES1    0.0000
     38 C22        2.6796   10.1593    2.2970 C.ar      1 RES1    0.0000
     39 C23        1.3356   10.5251    2.0850 C.ar      1 RES1    0.0000
     40 C24        0.7386   11.5168    2.8413 C.ar      1 RES1    0.0000
     41 H17       -0.1421   11.7568    2.6698 H         1 RES1    0.0000
     42 C25        1.4299   12.1458    3.8354 C.ar      1 RES1    0.0000
     43 H18        1.0342   12.8212    4.3354 H         1 RES1    0.0000
     44 C26        2.7302   11.7589    4.0821 C.ar      1 RES1    0.0000
     45 C27        3.3511   10.7845    3.3361 C.ar      1 RES1    0.0000
     46 H19        4.2266   10.5438    3.5299 H         1 RES1    0.0000
     47 H20        1.1249    9.0865    0.9656 H         1 RES1    0.0000
     48 N1         2.4764    8.1262    1.0794 N.ar      1 RES1    0.0000
     49 N2         3.4856   12.4218    5.1314 N.pl3     1 RES1    0.0000
     50 O1         0.5877    9.9063    1.1402 O.3       1 RES1    0.0000
     51 O2         2.9737   13.3628    5.7182 O.2       1 RES1    0.0000
     52 O3         4.6189   12.0328    5.3757 O.2       1 RES1    0.0000
     53 C28        2.9383    0.5385    2.0430 C.ar      2 RES2    0.0000
     54 H21        3.6043   -0.0086    2.3955 H         2 RES2    0.0000
     55 C29        2.3254    0.1920    0.8644 C.ar      2 RES2    0.0000
     56 H22        2.5604   -0.6001    0.4362 H         2 RES2    0.0000
     57 C30        1.3673    1.0118    0.3139 C.ar      2 RES2    0.0000
     58 H23        0.9777    0.7901   -0.5013 H         2 RES2    0.0000
     59 C31        0.9839    2.1629    0.9705 C.ar      2 RES2    0.0000
     60 H24        0.3363    2.7160    0.5945 H         2 RES2    0.0000
     61 C32        1.5594    2.5002    2.1904 C.ar      2 RES2    0.0000
     62 C33        1.2313    3.7636    2.9016 C.ar      2 RES2    0.0000
     63 C34       -0.0473    4.3411    2.9627 C.ar      2 RES2    0.0000
     64 C35        0.8280    6.3140    3.8458 C.ar      2 RES2    0.0000
     65 C36        0.5529    7.6920    4.3562 C.3       2 RES2    0.0000
     66 H25       -0.3923    7.7864    4.5500 H         2 RES2    0.0000
     67 H26        0.7911    8.3450    3.6794 H         2 RES2    0.0000
     68 C37        1.3649    7.9400    5.6179 C.3       2 RES2    0.0000
     69 H27        1.2302    8.8508    5.9218 H         2 RES2    0.0000
     70 H28        1.0701    7.3392    6.3211 H         2 RES2    0.0000
     71 C38        2.8149    7.7123    5.3335 C.ar      2 RES2    0.0000
     72 C39        3.7920    8.5398    5.8613 C.ar      2 RES2    0.0000
     73 H29        3.5467    9.2123    6.4548 H         2 RES2    0.0000
     74 C40        5.1234    8.3848    5.5233 C.ar      2 RES2    0.0000
     75 H30        5.7698    8.9322    5.9060 H         2 RES2    0.0000
     76 C41        5.4849    7.4167    4.6186 C.ar      2 RES2    0.0000
     77 H31        6.3756    7.3264    4.3671 H         2 RES2    0.0000
     78 C42        4.5291    6.5784    4.0832 C.ar      2 RES2    0.0000
     79 H32        4.7842    5.9348    3.4613 H         2 RES2    0.0000
     80 C43        3.1904    6.6782    4.4562 C.ar      2 RES2    0.0000
     81 C44        2.1242    5.7865    3.9290 C.ar      2 RES2    0.0000
     82 C45        2.3084    4.4663    3.5016 C.ar      2 RES2    0.0000
     83 C46        3.5921    3.6879    3.6945 C.3       2 RES2    0.0000
     84 H33        4.0736    4.0418    4.4585 H         2 RES2    0.0000
     85 H34        4.1527    3.7903    2.9108 H         2 RES2    0.0000
     86 C47        3.2945    2.2153    3.9184 C.3       2 RES2    0.0000
     87 H35        4.1212    1.7244    4.0505 H         2 RES2    0.0000
     88 H36        2.7436    2.1030    4.7083 H         2 RES2    0.0000
     89 C48        2.5740    1.6949    2.7112 C.ar      2 RES2    0.0000
     90 C49       -1.3388    3.6570    2.6797 C.ar      2 RES2    0.0000
     91 C50       -1.4733    2.2768    2.8021 C.ar      2 RES2    0.0000
     92 H37       -0.7335    1.7630    3.0286 H         2 RES2    0.0000
     93 C51       -2.6827    1.6629    2.5944 C.ar      2 RES2    0.0000
     94 C52       -3.8211    2.3888    2.2676 C.ar      2 RES2    0.0000
     95 H38       -4.6308    1.9602    2.1123 H         2 RES2    0.0000
     96 C53       -3.7188    3.7432    2.1800 C.ar      2 RES2    0.0000
     97 H39       -4.4732    4.2404    1.9663 H         2 RES2    0.0000
     98 C54       -2.5131    4.4013    2.4009 C.ar      2 RES2    0.0000
     99 H40       -1.5936    5.9720    2.8739 H         2 RES2    0.0000
    100 N3        -0.2034    5.6115    3.3997 N.ar      2 RES2    0.0000
    101 N4        -2.7732    0.2136    2.7377 N.pl3     2 RES2    0.0000
    102 O4        -2.5150    5.7422    2.3573 O.3       2 RES2    0.0000
    103 O5        -1.7539   -0.4208    2.9697 O.2       2 RES2    0.0000
    104 O6        -3.8781   -0.3067    2.6085 O.2       2 RES2    0.0000
@<TRIPOS>BOND
     1    1    2 1
     2    3    1 ar
     3    4    3 1
     4    5    3 ar
     5    6    5 1
     6    7    5 ar
     7    8    7 1
     8    9    7 ar
     9   10    9 1
    10   11   10 1
    11   12   10 1
    12   13   10 1
    13   14   13 1
    14   15   13 1
    15   16   13 1
    16   17   16 ar
    17   18   17 1
    18   19   18 ar
    19   20   19 1
    20   21   19 ar
    21   22   21 1
    22   23   21 ar
    23   24   23 1
    24   25   23 ar
    25   26   25 1
    26   27   18 ar
    27   28   27 1
    28   29   28 1
    29   30   28 1
    30   31   28 1
    31   32   31 1
    32   33   31 1
    33   34   17 ar
    34   35   36 ar
    35   36   16 ar
    36   37    1 ar
    37   38   35 1
    38   39   38 ar
    39   40   39 ar
    40   41   40 1
    41   42   40 ar
    42   43   42 1
    43   44   42 ar
    44   45   38 ar
    45   46   45 1
    46   47   50 1
    47   48   34 ar
    48   49   44 1
    49   50   39 1
    50   51   49 2
    51   52   49 2
    52   53   54 1
    53   55   53 ar
    54   56   55 1
    55   57   55 ar
    56   58   57 1
    57   59   57 ar
    58   60   59 1
    59   61   59 ar
    60   62   61 1
    61   63   62 ar
    62   64   65 1
    63   65   66 1
    64   67   65 1
    65   68   65 1
    66   69   68 1
    67   70   68 1
    68   71   68 1
    69   72   71 ar
    70   73   72 1
    71   74   72 ar
    72   75   74 1
    73   76   74 ar
    74   77   76 1
    75   78   76 ar
    76   79   78 1
    77   80   71 ar
    78   81   64 ar
    79   82   62 ar
    80   83   82 1
    81   84   83 1
    82   85   83 1
    83   86   83 1
    84   87   86 1
    85   88   86 1
    86   89   53 ar
    87   90   63 1
    88   91   90 ar
    89   92   91 1
    90   93   91 ar
    91   94   93 ar
    92   95   94 1
    93   96   94 ar
    94   97   96 1
    95   98   90 ar
    96   99  102 1
    97  100   63 ar
    98  101   93 1
    99  102   98 1
   100  103  101 2
   101  104  101 2
   102    9   37 ar
   103   25   27 ar
   104   31   34 1
   105   35   48 ar
   106   36   37 1
   107   44   45 ar
   108   61   89 ar
   109   64  100 ar
   110   78   80 ar
   111   80   81 1
   112   81   82 ar
   113   86   89 1
   114   96   98 ar
@<TRIPOS>SUBSTRUCTURE
     1 RES1 1
     2 RES2 53

@<TRIPOS>CRYSIN
  33.3961   14.2870   19.5456  90.0000 115.8632  90.0000  15 1

