# MOL2 file generated by ConQuest
# Please check atom types

@<TRIPOS>MOLECULE
OXYPHE02
    14    16     1
SMALL
NO_CHARGES
****
Generated from CSD

@<TRIPOS>ATOM
      1 C1         1.0108    0.8682    0.2963 C.2       1 RES1    0.0000
      2 C2         2.0593    1.7775    0.6079 C.2       1 RES1    0.0000
      3 C3         1.9818    2.4560    1.7998 C.2       1 RES1    0.0000
      4 C4         0.9258    2.2533    2.6959 C.2       1 RES1    0.0000
      5 C5        -0.0846    1.3915    2.4111 C.2       1 RES1    0.0000
      6 C6        -0.0464    0.6583    1.1859 C.2       1 RES1    0.0000
      7 N1         1.0316    0.1610   -0.8763 N.2       1 RES1    0.0000
      8 N1B       -1.0316   -0.1610    0.8763 N.2       1 RES1    0.0000
      9 C6B        0.0464   -0.6583   -1.1859 C.2       1 RES1    0.0000
     10 C1B       -1.0108   -0.8682   -0.2963 C.2       1 RES1    0.0000
     11 C5B        0.0846   -1.3915   -2.4111 C.2       1 RES1    0.0000
     12 C2B       -2.0593   -1.7775   -0.6079 C.2       1 RES1    0.0000
     13 C4B       -0.9258   -2.2533   -2.6959 C.2       1 RES1    0.0000
     14 C3B       -1.9818   -2.4560   -1.7998 C.2       1 RES1    0.0000
@<TRIPOS>BOND
     1    1    2 1
     2    2    3 1
     3    3    4 1
     4    4    5 1
     5    5    6 1
     6    6    1 1
     7    7    1 1
     8    8    6 1
     9    9    7 1
    10   10    8 1
    11   11    9 1
    12   12   10 1
    13   13   11 1
    14   14   12 1
    15    9   10 1
    16   13   14 1
@<TRIPOS>SUBSTRUCTURE
     1 RES1 1

@<TRIPOS>CRYSIN
  14.0100    4.6500    7.3700  90.0000 109.6000  90.0000  14 2

