# MOL2 file generated by ConQuest
# Please check atom types

@<TRIPOS>MOLECULE
OXYPHE01
    14    16     1
SMALL
NO_CHARGES
****
Generated from CSD

@<TRIPOS>ATOM
      1 C1         1.0103    0.8127    0.3103 C.2       1 RES1    0.0000
      2 C2         2.0769    1.7169    0.6459 C.2       1 RES1    0.0000
      3 C3         2.0613    2.3906    1.8184 C.2       1 RES1    0.0000
      4 C4         0.9871    2.1717    2.7236 C.2       1 RES1    0.0000
      5 C5        -0.0427    1.3441    2.4290 C.2       1 RES1    0.0000
      6 C6        -0.0735    0.6651    1.2321 C.2       1 RES1    0.0000
      7 N1         1.0582    0.1619   -0.8964 N.2       1 RES1    0.0000
      8 N1B       -1.0582   -0.1619    0.8964 N.2       1 RES1    0.0000
      9 C6B        0.0735   -0.6651   -1.2321 C.2       1 RES1    0.0000
     10 C1B       -1.0103   -0.8127   -0.3103 C.2       1 RES1    0.0000
     11 C5B        0.0427   -1.3441   -2.4290 C.2       1 RES1    0.0000
     12 C2B       -2.0769   -1.7169   -0.6459 C.2       1 RES1    0.0000
     13 C4B       -0.9871   -2.1717   -2.7236 C.2       1 RES1    0.0000
     14 C3B       -2.0613   -2.3906   -1.8184 C.2       1 RES1    0.0000
@<TRIPOS>BOND
     1    1    2 1
     2    2    3 1
     3    3    4 1
     4    4    5 1
     5    5    6 1
     6    6    1 1
     7    7    1 1
     8    8    6 1
     9    9    7 1
    10   10    8 1
    11   11    9 1
    12   12   10 1
    13   13   11 1
    14   14   12 1
    15    9   10 1
    16   13   14 1
@<TRIPOS>SUBSTRUCTURE
     1 RES1 1

@<TRIPOS>CRYSIN
  14.2900    4.6000    7.4390  90.0000 108.8000  90.0000  14 2

