# MOL2 file generated by ConQuest
# Please check atom types

@<TRIPOS>MOLECULE
OYAFIE
    56    59     1
SMALL
NO_CHARGES
****
Generated from CSD

@<TRIPOS>ATOM
      1 N1         1.0728    1.5362    9.6067 N.3       1 RES1    0.0000
      2 O1         4.3684    2.2682    8.1911 O.3       1 RES1    0.0000
      3 O2         4.1794    0.7591    6.4867 O.3       1 RES1    0.0000
      4 O3         1.7777    1.4119    4.9149 O.3       1 RES1    0.0000
      5 O4         2.3890    3.1857    3.7026 O.2       1 RES1    0.0000
      6 O5        -0.1067    2.4106    9.7009 O.3       1 RES1    0.0000
      7 O6         0.7433    4.6538   11.0818 O.2       1 RES1    0.0000
      8 O7         0.0611    5.9072    9.3935 O.3       1 RES1    0.0000
      9 C1         5.1401    1.5332    7.2317 C.3       1 RES1    0.0000
     10 C2         6.0795    0.5846    7.9048 C.3       1 RES1    0.0000
     11 H1         5.5793   -0.0271    8.4514 H         1 RES1    0.0000
     12 H2         6.6927    1.0770    8.4551 H         1 RES1    0.0000
     13 H3         6.5696    0.0933    7.2404 H         1 RES1    0.0000
     14 C3         5.8311    2.5309    6.3305 C.3       1 RES1    0.0000
     15 H4         5.1760    3.1055    5.9277 H         1 RES1    0.0000
     16 H5         6.3125    2.0627    5.6450 H         1 RES1    0.0000
     17 H6         6.4444    3.0584    6.8487 H         1 RES1    0.0000
     18 C4         3.1649    1.5121    8.3857 C.3       1 RES1    0.0000
     19 H7         3.3499    0.7430    8.9646 H         1 RES1    0.0000
     20 C5         2.8704    1.0278    6.9763 C.3       1 RES1    0.0000
     21 H8         2.3405    0.2046    7.0036 H         1 RES1    0.0000
     22 C6         2.1720    2.0707    6.1471 C.3       1 RES1    0.0000
     23 H9         2.7909    2.8047    5.9475 H         1 RES1    0.0000
     24 C7         0.9535    2.6082    6.8449 C.3       1 RES1    0.0000
     25 H10        0.3499    1.8782    7.0532 H         1 RES1    0.0000
     26 H11        0.4895    3.2268    6.2586 H         1 RES1    0.0000
     27 C8         1.3569    3.3281    8.1353 C.3       1 RES1    0.0000
     28 H12        1.8614    4.1454    7.9432 H         1 RES1    0.0000
     29 C9         2.1310    2.4106    9.0489 C.3       1 RES1    0.0000
     30 H13        2.5498    2.9290    9.7679 H         1 RES1    0.0000
     31 C10        1.9037    2.0937    3.7609 C.2       1 RES1    0.0000
     32 C11        1.3771    1.3347    2.5982 C.ar      1 RES1    0.0000
     33 C12        0.7494    0.1294    2.7419 C.ar      1 RES1    0.0000
     34 H14        0.6596   -0.2467    3.5886 H         1 RES1    0.0000
     35 C13        0.2443   -0.5395    1.6362 C.ar      1 RES1    0.0000
     36 H15       -0.1803   -1.3607    1.7416 H         1 RES1    0.0000
     37 C14        0.3721    0.0070    0.3942 C.ar      1 RES1    0.0000
     38 H16        0.0161   -0.4292   -0.3458 H         1 RES1    0.0000
     39 C15        1.0348    1.2173    0.2392 C.ar      1 RES1    0.0000
     40 H17        1.1407    1.5773   -0.6124 H         1 RES1    0.0000
     41 C16        1.5380    1.8922    1.3350 C.ar      1 RES1    0.0000
     42 H18        1.9777    2.7054    1.2284 H         1 RES1    0.0000
     43 C17        1.3648    1.1151   10.9628 C.3       1 RES1    0.0000
     44 H19        2.1327    0.5385   10.9603 H         1 RES1    0.0000
     45 H20        0.6101    0.6418   11.3198 H         1 RES1    0.0000
     46 H21        1.5448    1.8862   11.5057 H         1 RES1    0.0000
     47 C18        0.1387    3.6229    9.0142 C.3       1 RES1    0.0000
     48 H22       -0.6291    3.8275    8.4403 H         1 RES1    0.0000
     49 C19        0.3686    4.7811    9.9674 C.2       1 RES1    0.0000
     50 C20        0.2019    7.1456   10.1720 C.3       1 RES1    0.0000
     51 H23        0.4463    6.9130   11.0806 H         1 RES1    0.0000
     52 H24        0.9316    7.6640    9.7964 H         1 RES1    0.0000
     53 C21       -0.8332    7.8766   10.2079 C.3       1 RES1    0.0000
     54 H25       -0.6500    8.6658   10.7236 H         1 RES1    0.0000
     55 H26       -1.5546    7.3903   10.6132 H         1 RES1    0.0000
     56 H27       -1.0788    8.1293    9.3142 H         1 RES1    0.0000
@<TRIPOS>BOND
     1    1    6 1
     2    2    9 1
     3    3    9 1
     4    4   22 1
     5    5   31 2
     6    6   47 1
     7    7   49 2
     8    8   49 1
     9    9   10 1
    10   10   11 1
    11   12   10 1
    12   13   10 1
    13   14    9 1
    14   15   14 1
    15   16   14 1
    16   17   14 1
    17   18    2 1
    18   19   18 1
    19   20    3 1
    20   21   20 1
    21   22   20 1
    22   23   22 1
    23   24   22 1
    24   25   24 1
    25   26   24 1
    26   27   24 1
    27   28   27 1
    28   29    1 1
    29   30   29 1
    30   31    4 1
    31   32   31 1
    32   33   32 ar
    33   34   33 1
    34   35   33 ar
    35   36   35 1
    36   37   35 ar
    37   38   37 1
    38   39   37 ar
    39   40   39 1
    40   41   32 ar
    41   42   41 1
    42   43    1 1
    43   44   43 1
    44   45   43 1
    45   46   43 1
    46   47   27 1
    47   48   47 1
    48   49   47 1
    49   50    8 1
    50   51   50 1
    51   52   50 1
    52   53   50 1
    53   54   53 1
    54   55   53 1
    55   56   53 1
    56   18   20 1
    57   18   29 1
    58   27   29 1
    59   39   41 ar
@<TRIPOS>SUBSTRUCTURE
     1 RES1 1

@<TRIPOS>CRYSIN
   8.7187   10.0275   12.7718  90.0000 103.9380  90.0000   4 1

