# MOL2 file generated by ConQuest
# Please check atom types

@<TRIPOS>MOLECULE
OYAFOK
    94    98     2
SMALL
NO_CHARGES
****
Generated from CSD

@<TRIPOS>ATOM
      1 N1        12.2335    4.7781   -1.4225 N.3       1 RES1    0.0000
      2 N2         9.1394    4.6699    2.6229 N.3       2 RES2    0.0000
      3 O1         8.5894    4.4154   -2.0612 O.3       1 RES1    0.0000
      4 O2         8.7915    2.9666    0.3388 O.3       1 RES1    0.0000
      5 H1         8.0910    2.9686   -0.0885 H         1 RES1    0.0000
      6 O3         9.5427    0.6763   -0.8375 O.3       1 RES1    0.0000
      7 H2         8.7267    0.6282   -0.7795 H         1 RES1    0.0000
      8 O4        12.7272    3.4185   -1.6025 O.3       1 RES1    0.0000
      9 O5        12.7812    4.0367   -5.0949 O.2       1 RES1    0.0000
     10 O6        11.0549    5.3592   -5.0557 O.3       1 RES1    0.0000
     11 O7         5.5947    5.3191    3.3952 O.3       2 RES2    0.0000
     12 O8         5.4708    5.3842    0.5559 O.3       2 RES2    0.0000
     13 H3         5.5444    4.6328    0.2366 H         2 RES2    0.0000
     14 O9         6.2234    7.8970    0.3121 O.3       2 RES2    0.0000
     15 H4         6.5523    8.6474    0.2671 H         2 RES2    0.0000
     16 O10        9.5648    5.9463    2.0699 O.3       2 RES2    0.0000
     17 O11        8.8841    5.6036    6.0501 O.2       2 RES2    0.0000
     18 O12        9.3001    7.5383    5.6378 O.3       2 RES2    0.0000
     19 C1         8.1157    5.7229   -2.4342 C.3       1 RES1    0.0000
     20 H5         8.7903    6.1817   -2.9612 H         1 RES1    0.0000
     21 H6         7.9370    6.2509   -1.6403 H         1 RES1    0.0000
     22 C2         6.8649    5.5666   -3.2341 C.ar      1 RES1    0.0000
     23 C3         5.6981    6.1016   -2.7725 C.ar      1 RES1    0.0000
     24 H7         5.6918    6.5314   -1.9480 H         1 RES1    0.0000
     25 C4         4.5548    6.0224   -3.4823 C.ar      1 RES1    0.0000
     26 H8         3.7884    6.4192   -3.1382 H         1 RES1    0.0000
     27 C5         4.4825    5.4153   -4.6275 C.ar      1 RES1    0.0000
     28 H9         3.6658    5.3602   -5.0688 H         1 RES1    0.0000
     29 C6         5.6222    4.8452   -5.2009 C.ar      1 RES1    0.0000
     30 H10        5.5860    4.4194   -6.0268 H         1 RES1    0.0000
     31 C7         6.8852    4.9444   -4.4461 C.ar      1 RES1    0.0000
     32 H11        7.6756    4.5917   -4.7887 H         1 RES1    0.0000
     33 C8         9.8074    4.4354   -1.3049 C.3       1 RES1    0.0000
     34 H12        9.7162    5.1337   -0.6227 H         1 RES1    0.0000
     35 C9         9.9106    3.0869   -0.5676 C.3       1 RES1    0.0000
     36 H13       10.7403    3.0768   -0.0464 H         1 RES1    0.0000
     37 C10        9.8998    1.8766   -1.4922 C.3       1 RES1    0.0000
     38 H14        9.2487    2.0419   -2.2064 H         1 RES1    0.0000
     39 C11       11.2418    1.5920   -2.1294 C.3       1 RES1    0.0000
     40 H15       11.7954    1.1522   -1.4661 H         1 RES1    0.0000
     41 H16       11.0970    0.9538   -2.8465 H         1 RES1    0.0000
     42 C12       12.0280    2.7312   -2.6912 C.3       1 RES1    0.0000
     43 H17       12.6823    2.3905   -3.3371 H         1 RES1    0.0000
     44 C13       11.1763    3.8253   -3.3516 C.3       1 RES1    0.0000
     45 H18       10.3003    3.4465   -3.5752 H         1 RES1    0.0000
     46 C14       11.0006    4.8091   -2.1846 C.3       1 RES1    0.0000
     47 H19       10.8654    5.7118   -2.5417 H         1 RES1    0.0000
     48 C15       13.2649    5.6417   -1.9872 C.3       1 RES1    0.0000
     49 H20       12.9997    6.5594   -1.8928 H         1 RES1    0.0000
     50 H21       13.3810    5.4363   -2.9176 H         1 RES1    0.0000
     51 H22       14.0919    5.4984   -1.5227 H         1 RES1    0.0000
     52 C16       11.7817    4.3713   -4.5782 C.2       1 RES1    0.0000
     53 C17       11.5691    5.8671   -6.3549 C.3       1 RES1    0.0000
     54 H23       11.0159    6.5905   -6.6568 H         1 RES1    0.0000
     55 H24       11.5542    5.1598   -7.0037 H         1 RES1    0.0000
     56 H25       12.4705    6.1787   -6.2417 H         1 RES1    0.0000
     57 C18        4.6458    4.3462    3.7334 C.3       2 RES2    0.0000
     58 H26        5.0809    3.6098    4.1921 H         2 RES2    0.0000
     59 H27        4.2329    3.9986    2.9278 H         2 RES2    0.0000
     60 C19        3.6224    4.9314    4.5985 C.ar      2 RES2    0.0000
     61 C20        2.4652    4.1629    4.8496 C.ar      2 RES2    0.0000
     62 H28        2.3548    3.3053    4.5071 H         2 RES2    0.0000
     63 C21        1.4663    4.7891    5.6727 C.ar      2 RES2    0.0000
     64 H29        0.6775    4.3332    5.8512 H         2 RES2    0.0000
     65 C22        1.6288    6.0104    6.1894 C.ar      2 RES2    0.0000
     66 H30        0.9705    6.3651    6.7424 H         2 RES2    0.0000
     67 C23        2.7297    6.7338    5.9223 C.ar      2 RES2    0.0000
     68 H31        2.8321    7.5894    6.2721 H         2 RES2    0.0000
     69 C24        3.6963    6.1787    5.1240 C.ar      2 RES2    0.0000
     70 H32        4.4479    6.6907    4.9309 H         2 RES2    0.0000
     71 C25        6.6883    4.8973    2.5663 C.3       2 RES2    0.0000
     72 H33        6.5489    3.9555    2.3312 H         2 RES2    0.0000
     73 C26        6.6661    5.7168    1.2803 C.3       2 RES2    0.0000
     74 H34        7.4428    5.4704    0.7359 H         2 RES2    0.0000
     75 C27        6.6790    7.2477    1.5024 C.3       2 RES2    0.0000
     76 H35        6.0805    7.4722    2.2441 H         2 RES2    0.0000
     77 C28        8.0612    7.8048    1.7869 C.3       2 RES2    0.0000
     78 H36        7.9604    8.7155    2.1033 H         2 RES2    0.0000
     79 H37        8.5484    7.8439    0.9493 H         2 RES2    0.0000
     80 C29        8.9143    7.0474    2.7942 C.3       2 RES2    0.0000
     81 H38        9.6032    7.6485    3.1441 H         2 RES2    0.0000
     82 C30        8.1857    6.4152    3.9482 C.3       2 RES2    0.0000
     83 H39        7.3115    6.8530    4.0222 H         2 RES2    0.0000
     84 C31        7.9468    4.9935    3.4257 C.3       2 RES2    0.0000
     85 H40        7.8778    4.3713    4.1805 H         2 RES2    0.0000
     86 C32       10.2691    4.1579    3.4024 C.3       2 RES2    0.0000
     87 H41       11.0063    3.9755    2.8160 H         2 RES2    0.0000
     88 H42       10.0090    3.3494    3.8495 H         2 RES2    0.0000
     89 H43       10.5311    4.8131    4.0527 H         2 RES2    0.0000
     90 C33        8.8166    6.4643    5.2677 C.2       2 RES2    0.0000
     91 C34        9.8315    7.6695    6.9805 C.3       2 RES2    0.0000
     92 H44       10.2109    8.5442    7.0894 H         2 RES2    0.0000
     93 H45       10.5103    7.0063    7.1228 H         2 RES2    0.0000
     94 H46        9.1241    7.5463    7.6177 H         2 RES2    0.0000
@<TRIPOS>BOND
     1    1    8 1
     2    2   16 1
     3    3   19 1
     4    4    5 1
     5    6    7 1
     6    8   42 1
     7    9   52 2
     8   10   52 1
     9   11   57 1
    10   12   13 1
    11   14   15 1
    12   16   80 1
    13   17   90 2
    14   18   90 1
    15   19   20 1
    16   21   19 1
    17   22   19 1
    18   23   22 ar
    19   24   23 1
    20   25   23 ar
    21   26   25 1
    22   27   25 ar
    23   28   27 1
    24   29   27 ar
    25   30   29 1
    26   31   22 ar
    27   32   31 1
    28   33    3 1
    29   34   33 1
    30   35    4 1
    31   36   35 1
    32   37    6 1
    33   38   37 1
    34   39   37 1
    35   40   39 1
    36   41   39 1
    37   42   39 1
    38   43   42 1
    39   44   42 1
    40   45   44 1
    41   46    1 1
    42   47   46 1
    43   48    1 1
    44   49   48 1
    45   50   48 1
    46   51   48 1
    47   52   44 1
    48   53   10 1
    49   54   53 1
    50   55   53 1
    51   56   53 1
    52   57   58 1
    53   59   57 1
    54   60   57 1
    55   61   60 ar
    56   62   61 1
    57   63   61 ar
    58   64   63 1
    59   65   63 ar
    60   66   65 1
    61   67   65 ar
    62   68   67 1
    63   69   60 ar
    64   70   69 1
    65   71   11 1
    66   72   71 1
    67   73   12 1
    68   74   73 1
    69   75   14 1
    70   76   75 1
    71   77   75 1
    72   78   77 1
    73   79   77 1
    74   80   77 1
    75   81   80 1
    76   82   80 1
    77   83   82 1
    78   84    2 1
    79   85   84 1
    80   86    2 1
    81   87   86 1
    82   88   86 1
    83   89   86 1
    84   90   82 1
    85   91   18 1
    86   92   91 1
    87   93   91 1
    88   94   91 1
    89   29   31 ar
    90   33   35 1
    91   33   46 1
    92   35   37 1
    93   44   46 1
    94   67   69 ar
    95   71   73 1
    96   71   84 1
    97   73   75 1
    98   82   84 1
@<TRIPOS>SUBSTRUCTURE
     1 RES1 1
     2 RES2 2

@<TRIPOS>CRYSIN
  12.3220   10.0190   15.6780  90.0000 112.2030  90.0000   4 1

