# MOL2 file generated by ConQuest
# Please check atom types

@<TRIPOS>MOLECULE
OYARIR
    84    88     2
SMALL
NO_CHARGES
****
Generated from CSD

@<TRIPOS>ATOM
      1 N1         7.9272    7.0502    5.1847 N.pl3     1 RES1    0.0000
      2 O1         8.9112    1.9750    9.5640 O.3       1 RES1    0.0000
      3 O2        10.8896   -0.2836    7.9156 O.2       1 RES1    0.0000
      4 O3        11.7060    2.8532    8.0232 O.3       1 RES1    0.0000
      5 O4        12.6992    4.7036    8.8023 O.2       1 RES1    0.0000
      6 O5         7.0978    6.4306    4.5874 O.2       1 RES1    0.0000
      7 O6         8.0029    8.2518    5.1831 O.2       1 RES1    0.0000
      8 C1         9.2996    0.6259    9.3149 C.3       1 RES1    0.0000
      9 H1         8.6250    0.0461    8.9023 H         1 RES1    0.0000
     10 C2         9.0306    1.0665   10.6557 C.3       1 RES1    0.0000
     11 H2         8.1864    0.7557   11.0452 H         1 RES1    0.0000
     12 C3        10.1290    1.3606   11.6283 C.3       1 RES1    0.0000
     13 C4        10.3874    0.0775   12.4122 C.3       1 RES1    0.0000
     14 H3        11.0892    0.2271   13.0495 H         1 RES1    0.0000
     15 H4        10.6476   -0.6207   11.8072 H         1 RES1    0.0000
     16 H5         9.5869   -0.1832   12.8740 H         1 RES1    0.0000
     17 C5         9.6401    2.4408   12.5984 C.3       1 RES1    0.0000
     18 H6        10.3339    2.6407   13.2296 H         1 RES1    0.0000
     19 H7         8.8643    2.1226   13.0649 H         1 RES1    0.0000
     20 H8         9.4146    3.2341   12.1073 H         1 RES1    0.0000
     21 C6        11.3410    1.8735   10.8683 C.3       1 RES1    0.0000
     22 H9        11.7738    2.6554   11.1268 H         1 RES1    0.0000
     23 C7        11.8272    1.0634    9.6628 C.3       1 RES1    0.0000
     24 C8        12.8124   -0.0534   10.0877 C.3       1 RES1    0.0000
     25 H10       13.5389    0.3318   10.5818 H         1 RES1    0.0000
     26 H11       13.1545   -0.4940    9.3056 H         1 RES1    0.0000
     27 H12       12.3542   -0.6918   10.6403 H         1 RES1    0.0000
     28 C9        10.6764    0.4333    8.8788 C.2       1 RES1    0.0000
     29 C10       12.6174    1.9625    8.7130 C.3       1 RES1    0.0000
     30 H13       13.2668    2.4806    9.2148 H         1 RES1    0.0000
     31 H14       13.0965    1.4193    8.0680 H         1 RES1    0.0000
     32 C11       11.8516    4.1636    8.1372 C.2       1 RES1    0.0000
     33 C12       10.8255    4.9098    7.3491 C.ar      1 RES1    0.0000
     34 C13        9.8893    4.2525    6.5979 C.ar      1 RES1    0.0000
     35 H15        9.8919    3.3231    6.5640 H         1 RES1    0.0000
     36 C14        8.9445    4.9601    5.8897 C.ar      1 RES1    0.0000
     37 H16        8.3021    4.5173    5.3848 H         1 RES1    0.0000
     38 C15        8.9670    6.3144    5.9444 C.ar      1 RES1    0.0000
     39 C16        9.8880    7.0063    6.6794 C.ar      1 RES1    0.0000
     40 H17        9.8830    7.9357    6.6979 H         1 RES1    0.0000
     41 C17       10.8262    6.2851    7.3903 C.ar      1 RES1    0.0000
     42 H18       11.4625    6.7321    7.9002 H         1 RES1    0.0000
     43 N2         8.0639    5.5253   -0.2509 N.pl3     2 RES2    0.0000
     44 O7        12.1334   10.5691    0.8545 O.3       2 RES2    0.0000
     45 O8        10.7276   12.8110    3.0911 O.2       2 RES2    0.0000
     46 O9        10.9392    9.5967    3.6561 O.3       2 RES2    0.0000
     47 O10       12.0226    7.7337    4.2928 O.2       2 RES2    0.0000
     48 O11        7.3902    6.1962   -1.0191 O.2       2 RES2    0.0000
     49 O12        8.1166    4.3153   -0.2679 O.2       2 RES2    0.0000
     50 C18       11.8687   11.8962    1.3270 C.3       2 RES2    0.0000
     51 H19       11.3491   12.4719    0.7281 H         2 RES2    0.0000
     52 C19       13.1967   11.5090    0.8559 C.3       2 RES2    0.0000
     53 H20       13.4579   11.8596   -0.0216 H         2 RES2    0.0000
     54 C20       14.3130   11.2724    1.8226 C.3       2 RES2    0.0000
     55 C21       15.2850   10.2666    1.2238 C.3       2 RES2    0.0000
     56 H21       16.0060   10.1106    1.8396 H         2 RES2    0.0000
     57 H22       15.6384   10.6130    0.4002 H         2 RES2    0.0000
     58 H23       14.8275    9.4408    1.0514 H         2 RES2    0.0000
     59 C22       15.0379   12.5985    2.0181 C.3       2 RES2    0.0000
     60 H24       15.7647   12.4782    2.6354 H         2 RES2    0.0000
     61 H25       14.4253   13.2495    2.3676 H         2 RES2    0.0000
     62 H26       15.3836   12.9021    1.1761 H         2 RES2    0.0000
     63 C23       13.7193   10.6894    3.0968 C.3       2 RES2    0.0000
     64 H27       14.0601    9.9086    3.4683 H         2 RES2    0.0000
     65 C24       12.5499   11.4190    3.7490 C.3       2 RES2    0.0000
     66 C25       13.0272   12.4844    4.7583 C.3       2 RES2    0.0000
     67 H28       13.6110   12.0773    5.4017 H         2 RES2    0.0000
     68 H29       12.2684   12.8623    5.2078 H         2 RES2    0.0000
     69 H30       13.5002   13.1784    4.2903 H         2 RES2    0.0000
     70 C26       11.6390   12.0825    2.7555 C.2       2 RES2    0.0000
     71 C27       11.7000   10.4267    4.5612 C.3       2 RES2    0.0000
     72 H31       12.2757    9.8720    5.1108 H         2 RES2    0.0000
     73 H32       11.0972   10.9113    5.1462 H         2 RES2    0.0000
     74 C28       11.2034    8.2884    3.6114 C.2       2 RES2    0.0000
     75 C29       10.3380    7.5882    2.6117 C.ar      2 RES2    0.0000
     76 C30        9.5828    8.2759    1.6980 C.ar      2 RES2    0.0000
     77 H33        9.5843    9.2063    1.7072 H         2 RES2    0.0000
     78 C31        8.8192    7.6029    0.7635 C.ar      2 RES2    0.0000
     79 H34        8.3033    8.0644    0.1416 H         2 RES2    0.0000
     80 C32        8.8460    6.2422    0.7836 C.ar      2 RES2    0.0000
     81 C33        9.5779    5.5221    1.6841 C.ar      2 RES2    0.0000
     82 H35        9.5591    4.5927    1.6764 H         2 RES2    0.0000
     83 C34       10.3409    6.2035    2.6000 C.ar      2 RES2    0.0000
     84 H36       10.8605    5.7346    3.2127 H         2 RES2    0.0000
@<TRIPOS>BOND
     1    1    6 2
     2    2    8 1
     3    3   28 2
     4    4   29 1
     5    5   32 2
     6    7    1 2
     7    8    9 1
     8   10    2 1
     9   11   10 1
    10   12   10 1
    11   13   12 1
    12   14   13 1
    13   15   13 1
    14   16   13 1
    15   17   12 1
    16   18   17 1
    17   19   17 1
    18   20   17 1
    19   21   12 1
    20   22   21 1
    21   23   21 1
    22   24   23 1
    23   25   24 1
    24   26   24 1
    25   27   24 1
    26   28    8 1
    27   29   23 1
    28   30   29 1
    29   31   29 1
    30   32    4 1
    31   33   32 1
    32   34   33 ar
    33   35   34 1
    34   36   34 ar
    35   37   36 1
    36   38    1 1
    37   39   38 ar
    38   40   39 1
    39   41   33 ar
    40   42   41 1
    41   43   48 2
    42   44   50 1
    43   45   70 2
    44   46   71 1
    45   47   74 2
    46   49   43 2
    47   50   51 1
    48   52   44 1
    49   53   52 1
    50   54   52 1
    51   55   54 1
    52   56   55 1
    53   57   55 1
    54   58   55 1
    55   59   54 1
    56   60   59 1
    57   61   59 1
    58   62   59 1
    59   63   54 1
    60   64   63 1
    61   65   63 1
    62   66   65 1
    63   67   66 1
    64   68   66 1
    65   69   66 1
    66   70   50 1
    67   71   65 1
    68   72   71 1
    69   73   71 1
    70   74   46 1
    71   75   74 1
    72   76   75 ar
    73   77   76 1
    74   78   76 ar
    75   79   78 1
    76   80   43 1
    77   81   80 ar
    78   82   81 1
    79   83   75 ar
    80   84   83 1
    81    8   10 1
    82   23   28 1
    83   36   38 ar
    84   39   41 ar
    85   50   52 1
    86   65   70 1
    87   78   80 ar
    88   81   83 ar
@<TRIPOS>SUBSTRUCTURE
     1 RES1 1
     2 RES2 43

@<TRIPOS>CRYSIN
  20.9111   10.4665   15.9414  90.0000 105.0589  90.0000   5 1

