# MOL2 file generated by ConQuest
# Please check atom types

@<TRIPOS>MOLECULE
OYEHUW
    33    34     1
SMALL
NO_CHARGES
****
Generated from CSD

@<TRIPOS>ATOM
      1 O1         4.6952    6.4428    1.7388 O.2       1 RES1    0.0000
      2 O2         4.3212    9.5476    4.4199 O.3       1 RES1    0.0000
      3 H1         4.9377    9.9742    4.7987 H         1 RES1    0.0000
      4 O3         4.4555    5.8532    5.6491 O.3       1 RES1    0.0000
      5 O4         2.7777    5.2032    4.3076 O.2       1 RES1    0.0000
      6 N1         3.1548    6.8492    0.0758 N.am      1 RES1    0.0000
      7 H2         3.3614    6.1840   -0.4616 H         1 RES1    0.0000
      8 N2         4.3588    8.2223    4.8275 N.2       1 RES1    0.0000
      9 C1         3.0845    8.2923    1.9118 C.3       1 RES1    0.0000
     10 H3         3.7507    9.0275    2.0368 H         1 RES1    0.0000
     11 C2         3.7643    7.0873    1.2634 C.2       1 RES1    0.0000
     12 C3         2.1553    7.7935   -0.1891 C.ar      1 RES1    0.0000
     13 C4         1.3223    7.8692   -1.2907 C.ar      1 RES1    0.0000
     14 H4         1.3793    7.2428   -2.0025 H         1 RES1    0.0000
     15 C5         0.3948    8.9104   -1.3070 C.ar      1 RES1    0.0000
     16 H5        -0.1966    8.9918   -2.0457 H         1 RES1    0.0000
     17 C6         0.3145    9.8275   -0.2743 C.ar      1 RES1    0.0000
     18 H6        -0.3193   10.5333   -0.3188 H         1 RES1    0.0000
     19 C7         1.1585    9.7231    0.8335 C.ar      1 RES1    0.0000
     20 H7         1.1009   10.3477    1.5464 H         1 RES1    0.0000
     21 C8         2.0766    8.6956    0.8724 C.ar      1 RES1    0.0000
     22 C9         2.4522    7.9293    3.2705 C.3       1 RES1    0.0000
     23 H8         1.9715    8.7181    3.6253 H         1 RES1    0.0000
     24 H9         1.7905    7.2049    3.1371 H         1 RES1    0.0000
     25 C10        3.4728    7.4835    4.2734 C.2       1 RES1    0.0000
     26 C11        3.5131    6.0595    4.7233 C.2       1 RES1    0.0000
     27 C12        4.6337    4.4895    6.1068 C.3       1 RES1    0.0000
     28 H10        4.9038    3.9059    5.3533 H         1 RES1    0.0000
     29 H11        3.7893    4.1419    6.4879 H         1 RES1    0.0000
     30 C13        5.7050    4.5170    7.1531 C.3       1 RES1    0.0000
     31 H12        5.8741    3.6058    7.4720 H         1 RES1    0.0000
     32 H13        5.4146    5.0762    7.9037 H         1 RES1    0.0000
     33 H14        6.5274    4.8870    6.7691 H         1 RES1    0.0000
@<TRIPOS>BOND
     1    1   11 2
     2    2    3 1
     3    4   26 1
     4    5   26 2
     5    6    7 1
     6    8    2 1
     7    9   10 1
     8   11    6 1
     9   12    6 1
    10   13   12 ar
    11   14   13 1
    12   15   13 ar
    13   16   15 1
    14   17   15 ar
    15   18   17 1
    16   19   17 ar
    17   20   19 1
    18   21    9 1
    19   22    9 1
    20   23   22 1
    21   24   22 1
    22   25    8 2
    23   26   25 1
    24   27    4 1
    25   28   27 1
    26   29   27 1
    27   30   27 1
    28   31   30 1
    29   32   30 1
    30   33   30 1
    31    9   11 1
    32   12   21 ar
    33   19   21 ar
    34   22   25 1
@<TRIPOS>SUBSTRUCTURE
     1 RES1 1

@<TRIPOS>CRYSIN
   5.0939   11.4983   12.4598 113.9140  99.9670  95.8270   2 1

