# MOL2 file generated by ConQuest
# Please check atom types

@<TRIPOS>MOLECULE
OYELEK
   112   118     2
SMALL
NO_CHARGES
****
Generated from CSD

@<TRIPOS>ATOM
      1 N1        -5.4442    0.4015   18.7474 N.pl3     1 RES1    0.0000
      2 O1        -4.7075   -0.5731   18.3987 O.2       1 RES1    0.0000
      3 C1        -4.9609    1.8045   18.9295 C.3       1 RES1    0.0000
      4 N2        -7.3488    1.4357   19.2276 N.2       1 RES1    0.0000
      5 C2        -3.9006    1.8068   19.9931 C.3       1 RES1    0.0000
      6 H1        -3.1146    1.3458   19.6657 H         1 RES1    0.0000
      7 H2        -4.2355    1.3551   20.7835 H         1 RES1    0.0000
      8 H3        -3.6709    2.7219   20.2178 H         1 RES1    0.0000
      9 N3        -8.4529   -2.8001   17.6766 N.ar      1 RES1    0.0000
     10 C3        -4.3227    2.2212   17.6489 C.3       1 RES1    0.0000
     11 H4        -3.5039    1.7158   17.5153 H         1 RES1    0.0000
     12 H5        -4.1157    3.1678   17.6838 H         1 RES1    0.0000
     13 H6        -4.9310    2.0508   16.9127 H         1 RES1    0.0000
     14 N4        -8.4648   -3.4911   18.8288 N.ar      1 RES1    0.0000
     15 C4        -6.2885    2.4920   19.2898 C.3       1 RES1    0.0000
     16 N5        -7.4829   -1.6784   20.0183 N.ar      1 RES1    0.0000
     17 C5        -6.3017    3.0312   20.7079 C.3       1 RES1    0.0000
     18 H7        -7.1536    3.4596   20.8823 H         1 RES1    0.0000
     19 H8        -5.5879    3.6767   20.8164 H         1 RES1    0.0000
     20 H9        -6.1750    2.2994   21.3337 H         1 RES1    0.0000
     21 C6        -6.6760    3.6148   18.4006 C.3       1 RES1    0.0000
     22 H10       -6.6614    3.3148   17.4765 H         1 RES1    0.0000
     23 H11       -6.0481    4.3467   18.5110 H         1 RES1    0.0000
     24 H12       -7.5694    3.9160   18.6292 H         1 RES1    0.0000
     25 C7        -6.8071    0.3292   18.9527 C.2       1 RES1    0.0000
     26 C8        -7.4544   -1.0085   18.8791 C.ar      1 RES1    0.0000
     27 C9        -7.9518   -1.5454   17.6915 C.ar      1 RES1    0.0000
     28 C10       -8.0259   -0.8380   16.3703 C.ar      1 RES1    0.0000
     29 C11       -6.9345   -0.3712   15.7194 C.ar      1 RES1    0.0000
     30 H13       -6.0911   -0.4575   16.1223 H         1 RES1    0.0000
     31 C12       -7.0296    0.2299   14.4717 C.ar      1 RES1    0.0000
     32 H14       -6.2552    0.5544   14.0475 H         1 RES1    0.0000
     33 C13       -8.2205    0.3490   13.8673 C.ar      1 RES1    0.0000
     34 H15       -8.2711    0.7680   13.0265 H         1 RES1    0.0000
     35 C14       -9.3785   -0.1319   14.4543 C.ar      1 RES1    0.0000
     36 H16      -10.2110   -0.0537   14.0242 H         1 RES1    0.0000
     37 C15       -9.2711   -0.7377   15.7136 C.ar      1 RES1    0.0000
     38 H17      -10.0400   -1.0843   16.1262 H         1 RES1    0.0000
     39 C16       -8.0264   -2.9157   19.9446 C.ar      1 RES1    0.0000
     40 C17       -8.1532   -3.7105   21.1806 C.ar      1 RES1    0.0000
     41 C18       -8.0873   -3.1048   22.4108 C.ar      1 RES1    0.0000
     42 H18       -7.9104   -2.1827   22.4632 H         1 RES1    0.0000
     43 C19       -8.2781   -3.8226   23.5732 C.ar      1 RES1    0.0000
     44 H19       -8.2576   -3.3814   24.4024 H         1 RES1    0.0000
     45 C20       -8.5002   -5.1940   23.5287 C.ar      1 RES1    0.0000
     46 C21       -8.7172   -5.9807   24.8383 C.3       1 RES1    0.0000
     47 H20       -8.7384   -5.3411   25.5803 H         1 RES1    0.0000
     48 H21       -9.5967   -6.4103   24.7957 H         1 RES1    0.0000
     49 C22       -7.8482   -6.8736   25.1037 C.3       1 RES1    0.0000
     50 H22       -8.1248   -7.3674   25.8922 H         1 RES1    0.0000
     51 H23       -6.9918   -6.4499   25.2703 H         1 RES1    0.0000
     52 H24       -7.7690   -7.4806   24.3520 H         1 RES1    0.0000
     53 C23       -8.5571   -5.7893   22.3004 C.ar      1 RES1    0.0000
     54 H25       -8.7075   -6.7161   22.2423 H         1 RES1    0.0000
     55 C24       -8.3975   -5.0598   21.1497 C.ar      1 RES1    0.0000
     56 H26       -8.4576   -5.4963   20.3205 H         1 RES1    0.0000
     57 N6        -2.9798    6.1827   19.5397 N.pl3     2 RES2    0.0000
     58 O2        -3.7719    5.2150   19.4836 O.2       2 RES2    0.0000
     59 C25       -3.4215    7.5868   19.5746 C.3       2 RES2    0.0000
     60 N7        -1.0201    7.1900   19.5806 N.2       2 RES2    0.0000
     61 C26       -3.9662    7.8716   18.2030 C.3       2 RES2    0.0000
     62 H27       -4.8243    7.4316   18.0984 H         2 RES2    0.0000
     63 H28       -3.3470    7.5378   17.5346 H         2 RES2    0.0000
     64 H29       -4.0771    8.8287   18.0906 H         2 RES2    0.0000
     65 N8        -0.4409    2.8736   17.9124 N.ar      2 RES2    0.0000
     66 C27       -4.4706    7.8027   20.5995 C.3       2 RES2    0.0000
     67 H30       -4.1101    7.6125   21.4790 H         2 RES2    0.0000
     68 H31       -5.2216    7.2133   20.4232 H         2 RES2    0.0000
     69 H32       -4.7714    8.7260   20.5665 H         2 RES2    0.0000
     70 N9        -0.2921    2.1523   19.0260 N.ar      2 RES2    0.0000
     71 C28       -2.0584    8.2498   19.8613 C.3       2 RES2    0.0000
     72 N10       -0.9173    4.0105   20.3641 N.ar      2 RES2    0.0000
     73 C29       -1.7225    9.4450   19.0186 C.3       2 RES2    0.0000
     74 H33       -1.8467    9.2267   18.0829 H         2 RES2    0.0000
     75 H34       -0.7983    9.6994   19.1717 H         2 RES2    0.0000
     76 H35       -2.3049   10.1838   19.2588 H         2 RES2    0.0000
     77 C30       -1.8429    8.6408   21.3182 C.3       2 RES2    0.0000
     78 H36       -0.9691    9.0493   21.4189 H         2 RES2    0.0000
     79 H37       -1.8956    7.8483   21.8761 H         2 RES2    0.0000
     80 H38       -2.5281    9.2722   21.5875 H         2 RES2    0.0000
     81 C31       -1.6216    6.0718   19.4402 C.2       2 RES2    0.0000
     82 C32       -1.0550    4.7190   19.2627 C.ar      2 RES2    0.0000
     83 C33       -0.7911    4.1622   17.9880 C.ar      2 RES2    0.0000
     84 C34       -0.9681    4.8485   16.6958 C.ar      2 RES2    0.0000
     85 C35       -0.5026    6.1348   16.4769 C.ar      2 RES2    0.0000
     86 H39       -0.0620    6.5982   17.1665 H         2 RES2    0.0000
     87 C36       -0.6861    6.7429   15.2447 C.ar      2 RES2    0.0000
     88 H40       -0.3739    7.6183   15.1033 H         2 RES2    0.0000
     89 C37       -1.3246    6.0694   14.2257 C.ar      2 RES2    0.0000
     90 H41       -1.4443    6.4803   13.3888 H         2 RES2    0.0000
     91 C38       -1.7913    4.7820   14.4427 C.ar      2 RES2    0.0000
     92 H42       -2.2405    4.3198   13.7588 H         2 RES2    0.0000
     93 C39       -1.5922    4.1879   15.6671 C.ar      2 RES2    0.0000
     94 H43       -1.8888    3.3055   15.8007 H         2 RES2    0.0000
     95 C40       -0.5053    2.7429   20.2062 C.ar      2 RES2    0.0000
     96 C41       -0.3557    1.8979   21.4015 C.ar      2 RES2    0.0000
     97 C42       -0.8685    2.3111   22.6259 C.ar      2 RES2    0.0000
     98 H44       -1.3072    3.1409   22.6879 H         2 RES2    0.0000
     99 C43       -0.7473    1.5290   23.7476 C.ar      2 RES2    0.0000
    100 H45       -1.0871    1.8442   24.5651 H         2 RES2    0.0000
    101 C44       -0.1378    0.2906   23.7050 C.ar      2 RES2    0.0000
    102 C45       -0.0142   -0.5661   24.9468 C.3       2 RES2    0.0000
    103 H46        0.9272   -0.5801   25.2180 H         2 RES2    0.0000
    104 H47       -0.5217   -0.1389   25.6675 H         2 RES2    0.0000
    105 C46       -0.4787   -1.9551   24.8170 C.3       2 RES2    0.0000
    106 H48       -0.3636   -2.4138   25.6636 H         2 RES2    0.0000
    107 H49        0.0410   -2.4056   24.1331 H         2 RES2    0.0000
    108 H50       -1.4152   -1.9609   24.5690 H         2 RES2    0.0000
    109 C47        0.3783   -0.1121   22.4903 C.ar      2 RES2    0.0000
    110 H51        0.8153   -0.9431   22.4360 H         2 RES2    0.0000
    111 C48        0.2783    0.6618   21.3531 C.ar      2 RES2    0.0000
    112 H52        0.6402    0.3513   20.5433 H         2 RES2    0.0000
@<TRIPOS>BOND
     1    1    2 1
     2    3    1 1
     3    4   15 1
     4    5    3 1
     5    6    5 1
     6    7    5 1
     7    8    5 1
     8    9   14 ar
     9   10    3 1
    10   11   10 1
    11   12   10 1
    12   13   10 1
    13   14   39 ar
    14   15    3 1
    15   16   26 ar
    16   17   15 1
    17   18   17 1
    18   19   17 1
    19   20   17 1
    20   21   15 1
    21   22   21 1
    22   23   21 1
    23   24   21 1
    24   25    1 1
    25   26   25 1
    26   27    9 ar
    27   28   27 1
    28   29   28 ar
    29   30   29 1
    30   31   29 ar
    31   32   31 1
    32   33   31 ar
    33   34   33 1
    34   35   33 ar
    35   36   35 1
    36   37   28 ar
    37   38   37 1
    38   39   16 ar
    39   40   39 1
    40   41   40 ar
    41   42   41 1
    42   43   41 ar
    43   44   43 1
    44   45   43 ar
    45   46   45 1
    46   47   46 1
    47   48   46 1
    48   49   46 1
    49   50   49 1
    50   51   49 1
    51   52   49 1
    52   53   45 ar
    53   54   53 1
    54   55   40 ar
    55   56   55 1
    56   57   58 1
    57   59   57 1
    58   60   71 1
    59   61   59 1
    60   62   61 1
    61   63   61 1
    62   64   61 1
    63   65   70 ar
    64   66   59 1
    65   67   66 1
    66   68   66 1
    67   69   66 1
    68   70   95 ar
    69   71   59 1
    70   72   82 ar
    71   73   71 1
    72   74   73 1
    73   75   73 1
    74   76   73 1
    75   77   71 1
    76   78   77 1
    77   79   77 1
    78   80   77 1
    79   81   57 1
    80   82   81 1
    81   83   65 ar
    82   84   83 1
    83   85   84 ar
    84   86   85 1
    85   87   85 ar
    86   88   87 1
    87   89   87 ar
    88   90   89 1
    89   91   89 ar
    90   92   91 1
    91   93   84 ar
    92   94   93 1
    93   95   72 ar
    94   96   95 1
    95   97   96 ar
    96   98   97 1
    97   99   97 ar
    98  100   99 1
    99  101   99 ar
   100  102  101 1
   101  103  102 1
   102  104  102 1
   103  105  102 1
   104  106  105 1
   105  107  105 1
   106  108  105 1
   107  109  101 ar
   108  110  109 1
   109  111   96 ar
   110  112  111 1
   111    4   25 2
   112   26   27 ar
   113   35   37 ar
   114   53   55 ar
   115   60   81 2
   116   82   83 ar
   117   91   93 ar
   118  109  111 ar
@<TRIPOS>SUBSTRUCTURE
     1 RES1 1
     2 RES2 57

@<TRIPOS>CRYSIN
  19.7750   11.6720   21.4370  90.0000 115.3480  90.0000 231 1

