# MOL2 file generated by ConQuest
# Please check atom types

@<TRIPOS>MOLECULE
OYELOU
    30    30     1
SMALL
NO_CHARGES
****
Generated from CSD

@<TRIPOS>ATOM
      1 N1         0.8267    0.8166    7.8633 N.pl3     1 RES1    0.0000
      2 O1         1.9452    1.3356    7.5264 O.2       1 RES1    0.0000
      3 N2        -1.3083    0.5038    8.1150 N.pl3     1 RES1    0.0000
      4 O2        -2.5705    0.6774    8.0222 O.2       1 RES1    0.0000
      5 C1        -0.6866    2.4951    6.8272 C.2       1 RES1    0.0000
      6 C2         0.1849    3.2657    6.2091 C.2       1 RES1    0.0000
      7 C3        -0.3791    1.3063    7.5690 C.2       1 RES1    0.0000
      8 C4         0.7491   -0.5276    8.5034 C.3       1 RES1    0.0000
      9 C5        -0.1782    4.4399    5.4935 C.1       1 RES1    0.0000
     10 C6        -0.6977   -0.5143    9.0239 C.3       1 RES1    0.0000
     11 C7        -0.8558    0.0292   10.4309 C.3       1 RES1    0.0000
     12 C8         1.8165   -0.6496    9.5650 C.3       1 RES1    0.0000
     13 C9        -0.4303    5.4131    4.9084 C.1       1 RES1    0.0000
     14 C10        1.0030   -1.5280    7.3867 C.3       1 RES1    0.0000
     15 C11       -1.4317   -1.8401    8.9021 C.3       1 RES1    0.0000
     16 H1        -1.3313   -2.1804    8.0105 H         1 RES1    0.0000
     17 H2        -2.3641   -1.7084    9.0909 H         1 RES1    0.0000
     18 H3        -1.0639   -2.4683    9.5272 H         1 RES1    0.0000
     19 H4        -1.5827    2.6806    6.8062 H         1 RES1    0.0000
     20 H5        -0.3877    0.9357   10.5288 H         1 RES1    0.0000
     21 H6        -1.8222    0.0802   10.5714 H         1 RES1    0.0000
     22 H7         0.9565   -2.4692    7.7588 H         1 RES1    0.0000
     23 H8         1.1070    3.0560    6.2215 H         1 RES1    0.0000
     24 H9         2.6688   -0.6351    9.1748 H         1 RES1    0.0000
     25 H10        1.6939   -1.5061   10.0616 H         1 RES1    0.0000
     26 H11        0.3298   -1.3758    6.6939 H         1 RES1    0.0000
     27 H12       -0.4280   -0.5977   11.0968 H         1 RES1    0.0000
     28 H13        1.6979    0.1020   10.2513 H         1 RES1    0.0000
     29 H14        1.8321   -1.2665    7.0218 H         1 RES1    0.0000
     30 H15       -0.7117    6.1593    4.4557 H         1 RES1    0.0000
@<TRIPOS>BOND
     1    1    2 1
     2    3    4 1
     3    5    6 2
     4    6    9 1
     5    7    1 2
     6    8    1 1
     7    9   13 3
     8   10    3 1
     9   11   10 1
    10   12    8 1
    11   13   30 1
    12   14    8 1
    13   15   10 1
    14   16   15 1
    15   17   15 1
    16   18   15 1
    17   19    5 1
    18   20   11 1
    19   21   11 1
    20   22   14 1
    21   23    6 1
    22   24   12 1
    23   25   12 1
    24   26   14 1
    25   27   11 1
    26   28   12 1
    27   29   14 1
    28    3    7 1
    29    5    7 1
    30    8   10 1
@<TRIPOS>SUBSTRUCTURE
     1 RES1 1

@<TRIPOS>CRYSIN
  19.5530    9.1114   13.6744  90.0000 109.2770  90.0000  15 1

