# MOL2 file generated by ConQuest
# Please check atom types

@<TRIPOS>MOLECULE
OYELUA
    70    72     2
SMALL
NO_CHARGES
****
Generated from CSD

@<TRIPOS>ATOM
      1 N1         9.1537    6.2646    5.0327 N.pl3     1 RES1    0.0000
      2 O1         9.2146    5.8666    6.2592 O.2       1 RES1    0.0000
      3 C1         8.3866    7.4686    4.6570 C.3       1 RES1    0.0000
      4 N2         9.3781    6.3090    2.8829 N.pl3     1 RES1    0.0000
      5 O2         9.7497    5.9636    1.6949 O.2       1 RES1    0.0000
      6 C2         8.7213    8.6245    5.5396 C.3       1 RES1    0.0000
      7 H1         8.4664    8.4232    6.4425 H         1 RES1    0.0000
      8 H2         8.2483    9.4042    5.2386 H         1 RES1    0.0000
      9 H3         9.6660    8.7913    5.5034 H         1 RES1    0.0000
     10 N3        12.2514    2.0344    3.9646 N.pl3     1 RES1    0.0000
     11 H4        12.2616    2.2756    3.1002 H         1 RES1    0.0000
     12 C3         6.9081    7.1023    4.9105 C.3       1 RES1    0.0000
     13 H5         6.6646    6.3553    4.3561 H         1 RES1    0.0000
     14 H6         6.3514    7.8539    4.6955 H         1 RES1    0.0000
     15 H7         6.7889    6.8684    5.8338 H         1 RES1    0.0000
     16 C4         8.6972    7.5937    3.1635 C.3       1 RES1    0.0000
     17 N4        13.0807    1.0036    4.2837 N.2       1 RES1    0.0000
     18 C5         7.4761    7.7424    2.2516 C.3       1 RES1    0.0000
     19 H8         6.8396    7.0533    2.4552 H         1 RES1    0.0000
     20 H9         7.7513    7.6653    1.3351 H         1 RES1    0.0000
     21 H10        7.0742    8.6018    2.3941 H         1 RES1    0.0000
     22 C6         9.7509    8.6798    2.8852 C.3       1 RES1    0.0000
     23 H11       10.4927    8.5674    3.4849 H         1 RES1    0.0000
     24 H12        9.3604    9.5465    3.0187 H         1 RES1    0.0000
     25 H13       10.0578    8.6036    1.9778 H         1 RES1    0.0000
     26 C7         9.6571    5.5964    3.9804 C.2       1 RES1    0.0000
     27 C8        10.4192    4.4024    3.9555 C.2       1 RES1    0.0000
     28 H14       10.6537    4.0543    3.1251 H         1 RES1    0.0000
     29 C9        10.8275    3.7379    5.0553 C.2       1 RES1    0.0000
     30 H15       10.5219    4.0452    5.8768 H         1 RES1    0.0000
     31 C10       11.6973    2.5938    5.0576 C.2       1 RES1    0.0000
     32 C11       12.1880    1.8921    6.1347 C.2       1 RES1    0.0000
     33 H16       11.9902    2.0299    7.0331 H         1 RES1    0.0000
     34 C12       13.0376    0.9365    5.5984 C.2       1 RES1    0.0000
     35 H17       13.5181    0.3227    6.1053 H         1 RES1    0.0000
     36 N5        12.9158    2.8966   -1.9122 N.pl3     2 RES2    0.0000
     37 O3        12.9108    3.3372   -3.1024 O.2       2 RES2    0.0000
     38 C13       13.4953    1.5720   -1.5591 C.3       2 RES2    0.0000
     39 N6        12.5152    2.7044    0.2240 N.pl3     2 RES2    0.0000
     40 O4        12.0194    2.9600    1.3804 O.2       2 RES2    0.0000
     41 C14       14.7900    1.4342   -2.2041 C.3       2 RES2    0.0000
     42 H18       15.4176    2.0344   -1.7945 H         2 RES2    0.0000
     43 H19       14.7075    1.6464   -3.1364 H         2 RES2    0.0000
     44 H20       15.1019    0.5313   -2.1068 H         2 RES2    0.0000
     45 N7         9.7420    7.0896   -0.8531 N.pl3     2 RES2    0.0000
     46 H21       10.0045    7.0171    0.0905 H         2 RES2    0.0000
     47 C15       12.3985    0.5848   -2.1679 C.3       2 RES2    0.0000
     48 H22       12.4442    0.6083   -3.1273 H         2 RES2    0.0000
     49 H23       11.5249    0.8613   -1.8827 H         2 RES2    0.0000
     50 H24       12.5684   -0.3092   -1.8624 H         2 RES2    0.0000
     51 N8         8.9572    8.1322   -1.1699 N.2       2 RES2    0.0000
     52 C16       13.4116    1.5439   -0.0520 C.3       2 RES2    0.0000
     53 C17       14.7430    1.9229    0.6087 C.3       2 RES2    0.0000
     54 H25       14.6467    1.8912    1.5637 H         2 RES2    0.0000
     55 H26       14.9903    2.8114    0.3417 H         2 RES2    0.0000
     56 H27       15.4240    1.3046    0.3349 H         2 RES2    0.0000
     57 C18       12.8791    0.3082    0.5838 C.3       2 RES2    0.0000
     58 H28       12.0409    0.0762    0.1765 H         2 RES2    0.0000
     59 H29       12.7485    0.4615    1.5207 H         2 RES2    0.0000
     60 H30       13.5042   -0.4098    0.4594 H         2 RES2    0.0000
     61 C19       12.3186    3.4777   -0.8509 C.2       2 RES2    0.0000
     62 C20       11.5451    4.6826   -0.8327 C.2       2 RES2    0.0000
     63 H31       11.2357    4.9763   -0.0068 H         2 RES2    0.0000
     64 C21       11.2319    5.4142   -1.8918 C.2       2 RES2    0.0000
     65 H32       11.6200    5.1604   -2.6974 H         2 RES2    0.0000
     66 C22       10.3583    6.5602   -1.9348 C.2       2 RES2    0.0000
     67 C23        9.9462    7.2800   -3.0074 C.2       2 RES2    0.0000
     68 H33       10.1896    7.1531   -3.8945 H         2 RES2    0.0000
     69 C24        9.0890    8.2437   -2.5028 C.2       2 RES2    0.0000
     70 H34        8.6592    8.8865   -3.0187 H         2 RES2    0.0000
@<TRIPOS>BOND
     1    1    2 1
     2    3    1 1
     3    4    5 1
     4    6    3 1
     5    7    6 1
     6    8    6 1
     7    9    6 1
     8   10   11 1
     9   12    3 1
    10   13   12 1
    11   14   12 1
    12   15   12 1
    13   16    3 1
    14   17   10 1
    15   18   16 1
    16   19   18 1
    17   20   18 1
    18   21   18 1
    19   22   16 1
    20   23   22 1
    21   24   22 1
    22   25   22 1
    23   26    1 1
    24   27   26 1
    25   28   27 1
    26   29   27 2
    27   30   29 1
    28   31   10 1
    29   32   31 2
    30   33   32 1
    31   34   17 2
    32   35   34 1
    33   36   37 1
    34   38   36 1
    35   39   40 1
    36   41   38 1
    37   42   41 1
    38   43   41 1
    39   44   41 1
    40   45   46 1
    41   47   38 1
    42   48   47 1
    43   49   47 1
    44   50   47 1
    45   51   45 1
    46   52   38 1
    47   53   52 1
    48   54   53 1
    49   55   53 1
    50   56   53 1
    51   57   52 1
    52   58   57 1
    53   59   57 1
    54   60   57 1
    55   61   36 1
    56   62   61 1
    57   63   62 1
    58   64   62 2
    59   65   64 1
    60   66   45 1
    61   67   66 2
    62   68   67 1
    63   69   51 2
    64   70   69 1
    65    4   16 1
    66    4   26 2
    67   29   31 1
    68   32   34 1
    69   39   52 1
    70   39   61 2
    71   64   66 1
    72   67   69 1
@<TRIPOS>SUBSTRUCTURE
     1 RES1 1
     2 RES2 36

@<TRIPOS>CRYSIN
  12.6800    9.0660   22.6290  90.0000  90.0000  90.0000  33 1

