# MOL2 file generated by ConQuest
# Please check atom types

@<TRIPOS>MOLECULE
OYEMAH
    42    43     1
SMALL
NO_CHARGES
****
Generated from CSD

@<TRIPOS>ATOM
      1 O1         3.6915    0.9140   -3.9034 O.2       1 RES1    0.0000
      2 N1         3.6662    0.0372   -2.9688 N.pl3     1 RES1    0.0000
      3 C1         4.3883   -1.2692   -3.0774 C.3       1 RES1    0.0000
      4 O2         2.9018   -1.0915    0.1765 O.2       1 RES1    0.0000
      5 N2         3.2743   -0.9003   -1.0321 N.pl3     1 RES1    0.0000
      6 C2         5.8667   -0.9469   -2.8668 C.3       1 RES1    0.0000
      7 H1         6.0164   -0.5108   -1.9906 H         1 RES1    0.0000
      8 H2         6.1468   -0.3692   -3.6235 H         1 RES1    0.0000
      9 H3         6.4142   -1.7740   -2.9335 H         1 RES1    0.0000
     10 O3         0.2395    6.2690    2.9826 O.2       1 RES1    0.0000
     11 C3         4.1680   -1.8660   -4.4510 C.3       1 RES1    0.0000
     12 H4         3.1865   -1.9884   -4.6517 H         1 RES1    0.0000
     13 H5         4.4826   -1.2380   -5.1142 H         1 RES1    0.0000
     14 H6         4.5776   -2.7480   -4.4961 H         1 RES1    0.0000
     15 N3         1.0222    4.5211    1.7567 N.am      1 RES1    0.0000
     16 N4         0.1015    4.1756    3.8491 N.am      1 RES1    0.0000
     17 H7         0.2696    3.3781    3.6804 H         1 RES1    0.0000
     18 N5         1.1777    3.1793    1.5866 N.2       1 RES1    0.0000
     19 C4         3.7380   -2.0399   -1.8962 C.3       1 RES1    0.0000
     20 C5         4.6706   -2.9299   -1.1052 C.3       1 RES1    0.0000
     21 H8         5.0901   -3.5753   -1.7092 H         1 RES1    0.0000
     22 H9         4.2050   -3.3578   -0.3697 H         1 RES1    0.0000
     23 H10        5.3842   -2.4051   -0.6765 H         1 RES1    0.0000
     24 C6         2.4782   -2.7904   -2.2911 C.3       1 RES1    0.0000
     25 H11        1.8850   -2.2180   -2.8288 H         1 RES1    0.0000
     26 H12        2.0002   -3.0645   -1.4518 H         1 RES1    0.0000
     27 H13        2.7187   -3.5763   -2.8198 H         1 RES1    0.0000
     28 C7         3.1701    0.2435   -1.7294 C.2       1 RES1    0.0000
     29 C8         2.6895    1.5186   -1.2786 C.2       1 RES1    0.0000
     30 H14        2.8226    2.2382   -1.9188 H         1 RES1    0.0000
     31 C9         2.1443    1.7505   -0.0829 C.2       1 RES1    0.0000
     32 H15        2.0048    0.9993    0.5388 H         1 RES1    0.0000
     33 C10        1.7763    3.0720    0.4025 C.2       1 RES1    0.0000
     34 C11        2.0179    4.3372   -0.1688 C.2       1 RES1    0.0000
     35 H16        2.4355    4.5270   -1.0237 H         1 RES1    0.0000
     36 C12        1.5250    5.2318    0.7163 C.2       1 RES1    0.0000
     37 H17        1.4682    6.1979    0.7199 H         1 RES1    0.0000
     38 C13        0.4138    5.0645    2.9250 C.2       1 RES1    0.0000
     39 C14       -0.6208    4.5594    5.0469 C.3       1 RES1    0.0000
     40 H18       -1.4327    5.0064    4.8703 H         1 RES1    0.0000
     41 H19       -0.2002    5.2997    5.5243 H         1 RES1    0.0000
     42 H20       -0.5698    3.9141    5.6740 H         1 RES1    0.0000
@<TRIPOS>BOND
     1    1    2 1
     2    2    3 1
     3    3    6 1
     4    4    5 1
     5    5   19 1
     6    6    7 1
     7    8    6 1
     8    9    6 1
     9   10   38 2
    10   11    3 1
    11   12   11 1
    12   13   11 1
    13   14   11 1
    14   15   18 1
    15   16   17 1
    16   18   33 2
    17   19    3 1
    18   20   19 1
    19   21   20 1
    20   22   20 1
    21   23   20 1
    22   24   19 1
    23   25   24 1
    24   26   24 1
    25   27   24 1
    26   28    2 1
    27   29   28 1
    28   30   29 1
    29   31   29 2
    30   32   31 1
    31   33   31 1
    32   34   33 1
    33   35   34 1
    34   36   15 1
    35   37   36 1
    36   38   15 1
    37   39   16 1
    38   40   39 1
    39   41   39 1
    40   42   39 1
    41    5   28 2
    42   16   38 1
    43   34   36 2
@<TRIPOS>SUBSTRUCTURE
     1 RES1 1

@<TRIPOS>CRYSIN
  10.2311   10.1140   14.9675  90.0000  90.4850  90.0000  14 1

