# MOL2 file generated by ConQuest
# Please check atom types

@<TRIPOS>MOLECULE
OYITUN
    62    65     1
SMALL
NO_CHARGES
****
Generated from CSD

@<TRIPOS>ATOM
      1 C1         7.9372    9.3227    9.9973 C.2       1 RES1    0.0000
      2 C2         8.6484    7.9997   10.0589 C.3       1 RES1    0.0000
      3 H1         9.5997    8.1745   10.2703 H         1 RES1    0.0000
      4 H2         8.6176    7.5940    9.1565 H         1 RES1    0.0000
      5 C3         8.1164    6.9460   11.0764 C.3       1 RES1    0.0000
      6 C4         6.7901    6.2818   10.6506 C.3       1 RES1    0.0000
      7 H3         6.9094    5.9274    9.7342 H         1 RES1    0.0000
      8 H4         6.6354    5.5057   11.2458 H         1 RES1    0.0000
      9 C5         5.5352    7.1316   10.6604 C.ar      1 RES1    0.0000
     10 C6         4.7150    7.1809   11.8073 C.ar      1 RES1    0.0000
     11 C7         3.5407    7.9131   11.8029 C.ar      1 RES1    0.0000
     12 H5         3.0070    7.9465   12.5885 H         1 RES1    0.0000
     13 C8         3.1304    8.6000   10.6656 C.ar      1 RES1    0.0000
     14 H6         2.3354    9.1195   10.6791 H         1 RES1    0.0000
     15 C9         3.8939    8.5190    9.5129 C.ar      1 RES1    0.0000
     16 C10        5.0893    7.7871    9.5096 C.ar      1 RES1    0.0000
     17 C11        5.8563    7.7261    8.2277 C.ar      1 RES1    0.0000
     18 C12        6.8720    8.6331    7.9521 C.ar      1 RES1    0.0000
     19 C13        7.5501    8.6633    6.7453 C.ar      1 RES1    0.0000
     20 H7         8.2208    9.3164    6.5837 H         1 RES1    0.0000
     21 C14        7.2306    7.7204    5.7741 C.ar      1 RES1    0.0000
     22 H8         7.6938    7.7214    4.9448 H         1 RES1    0.0000
     23 C15        6.2372    6.7765    6.0105 C.ar      1 RES1    0.0000
     24 H9         6.0236    6.1222    5.3561 H         1 RES1    0.0000
     25 C16        5.5665    6.8110    7.2193 C.ar      1 RES1    0.0000
     26 C17        4.7572    4.6524    7.7138 C.2       1 RES1    0.0000
     27 C18        3.4994    3.8202    7.7866 C.ar      1 RES1    0.0000
     28 C19        3.0216    3.0685    6.7051 C.ar      1 RES1    0.0000
     29 C20        1.9243    2.2289    6.8089 C.ar      1 RES1    0.0000
     30 H10        1.6239    1.7233    6.0623 H         1 RES1    0.0000
     31 C21        1.2768    2.1464    8.0324 C.ar      1 RES1    0.0000
     32 H11        0.5220    1.5784    8.1296 H         1 RES1    0.0000
     33 C22        1.7225    2.8855    9.1116 C.ar      1 RES1    0.0000
     34 H12        1.2648    2.8155    9.9410 H         1 RES1    0.0000
     35 C23        2.8305    3.7340    9.0145 C.ar      1 RES1    0.0000
     36 C24        9.1925    5.8550   11.1562 C.3       1 RES1    0.0000
     37 H13       10.0320    6.2470   11.4759 H         1 RES1    0.0000
     38 H14        9.3310    5.4671   10.2666 H         1 RES1    0.0000
     39 H15        8.9019    5.1549   11.7770 H         1 RES1    0.0000
     40 C25        4.2191    6.3476   13.9878 C.3       1 RES1    0.0000
     41 H16        4.0686    7.2414   14.3608 H         1 RES1    0.0000
     42 H17        4.5961    5.7648   14.6790 H         1 RES1    0.0000
     43 H18        3.3678    5.9757   13.6766 H         1 RES1    0.0000
     44 C26        2.3476    9.8820    8.2985 C.3       1 RES1    0.0000
     45 H19        1.5957    9.2845    8.4919 H         1 RES1    0.0000
     46 H20        2.2258   10.2843    7.4136 H         1 RES1    0.0000
     47 H21        2.3856   10.5887    8.9766 H         1 RES1    0.0000
     48 C27        3.2779    4.5384   10.2059 C.3       1 RES1    0.0000
     49 H22        2.7201    4.3143   10.9790 H         1 RES1    0.0000
     50 H23        3.1916    5.4937   10.0059 H         1 RES1    0.0000
     51 H24        4.2139    4.3307   10.4074 H         1 RES1    0.0000
     52 N1         3.6797    3.1703    5.3916 N.pl3     1 RES1    0.0000
     53 O1         8.0690   10.2066   10.8092 O.2       1 RES1    0.0000
     54 O2         7.1556    9.6192    8.9107 O.3       1 RES1    0.0000
     55 O3         7.9048    7.5430   12.3488 O.3       1 RES1    0.0000
     56 H25        8.6411    7.7896   12.6680 H         1 RES1    0.0000
     57 O4         4.4692    5.9409    7.4161 O.3       1 RES1    0.0000
     58 O5         5.8503    4.2446    7.9795 O.2       1 RES1    0.0000
     59 O6         5.1309    6.4373   12.8893 O.3       1 RES1    0.0000
     60 O7         3.5672    9.1359    8.3188 O.3       1 RES1    0.0000
     61 O8         4.5858    3.9779    5.2490 O.2       1 RES1    0.0000
     62 O9         3.2829    2.4416    4.4905 O.2       1 RES1    0.0000
@<TRIPOS>BOND
     1    1    2 1
     2    2    3 1
     3    4    2 1
     4    5    2 1
     5    6    5 1
     6    7    6 1
     7    8    6 1
     8    9    6 1
     9   10    9 ar
    10   11   10 ar
    11   12   11 1
    12   13   11 ar
    13   14   13 1
    14   15   13 ar
    15   16    9 ar
    16   17   16 1
    17   18   17 ar
    18   19   18 ar
    19   20   19 1
    20   21   19 ar
    21   22   21 1
    22   23   21 ar
    23   24   23 1
    24   25   17 ar
    25   26   27 1
    26   27   28 ar
    27   28   29 ar
    28   29   30 1
    29   31   29 ar
    30   32   31 1
    31   33   31 ar
    32   34   33 1
    33   35   27 ar
    34   36    5 1
    35   37   36 1
    36   38   36 1
    37   39   36 1
    38   40   41 1
    39   42   40 1
    40   43   40 1
    41   44   45 1
    42   46   44 1
    43   47   44 1
    44   48   35 1
    45   49   48 1
    46   50   48 1
    47   51   48 1
    48   52   28 1
    49   53    1 2
    50   54    1 1
    51   55    5 1
    52   56   55 1
    53   57   25 1
    54   58   26 2
    55   59   10 1
    56   60   15 1
    57   61   52 2
    58   62   52 2
    59   15   16 ar
    60   18   54 1
    61   23   25 ar
    62   26   57 1
    63   33   35 ar
    64   40   59 1
    65   44   60 1
@<TRIPOS>SUBSTRUCTURE
     1 RES1 1

@<TRIPOS>CRYSIN
   9.4934   10.1544   12.7553  91.2580 105.9010  98.7680   2 1

