# MOL2 file generated by ConQuest
# Please check atom types

@<TRIPOS>MOLECULE
OYODOX
    59    57     2
SMALL
NO_CHARGES
****
Generated from CSD

@<TRIPOS>ATOM
      1 O1         6.2055    0.9546    1.7169 O.3       1 RES1    0.0000
      2 O2         2.2463    4.5216    0.6173 O.2       1 RES1    0.0000
      3 N1         3.2626    3.7637    0.8371 N.3       1 RES1    0.0000
      4 C1         4.9941    5.3040    1.7562 C.3       1 RES1    0.0000
      5 H1         5.7053    5.0403    1.1667 H         1 RES1    0.0000
      6 H2         5.3643    5.6275    2.5812 H         1 RES1    0.0000
      7 H3         4.4771    5.9989    1.3418 H         1 RES1    0.0000
      8 C2         4.0891    4.0932    2.0413 C.3       1 RES1    0.0000
      9 C3         4.9037    2.8542    2.4209 C.3       1 RES1    0.0000
     10 H4         5.5700    3.1097    3.0770 H         1 RES1    0.0000
     11 H5         4.3122    2.2086    2.8372 H         1 RES1    0.0000
     12 C4         5.6026    2.1895    1.2526 C.3       1 RES1    0.0000
     13 H6         6.2882    2.7850    0.8838 H         1 RES1    0.0000
     14 C5         7.4104    1.1116    2.3239 C.2       1 RES1    0.0000
     15 H7         7.9460    1.8227    2.0558 H         1 RES1    0.0000
     16 C6         7.8724    0.3063    3.2826 C.2       1 RES1    0.0000
     17 H8         8.7436    0.4793    3.5566 H         1 RES1    0.0000
     18 C7         7.2143   -0.8103    3.9680 C.ar      1 RES1    0.0000
     19 C8         5.9724   -1.3371    3.6170 C.ar      1 RES1    0.0000
     20 H9         5.5120   -0.9779    2.8938 H         1 RES1    0.0000
     21 C9         5.4094   -2.3907    4.3310 C.ar      1 RES1    0.0000
     22 H10        4.5834   -2.7262    4.0658 H         1 RES1    0.0000
     23 C10        6.0456   -2.9550    5.4287 C.ar      1 RES1    0.0000
     24 C11        5.4085   -4.0773    6.2550 C.3       1 RES1    0.0000
     25 C12        4.6658   -3.3027    7.4769 C.3       1 RES1    0.0000
     26 H11        4.2295   -3.9426    8.0428 H         1 RES1    0.0000
     27 H12        4.0141   -2.6939    7.1186 H         1 RES1    0.0000
     28 H13        5.3153   -2.8137    7.9862 H         1 RES1    0.0000
     29 C13        3.7972    3.0010   -0.3371 C.3       1 RES1    0.0000
     30 C14        4.6382    3.9315   -1.2265 C.3       1 RES1    0.0000
     31 H14        4.1665    4.7563   -1.3634 H         1 RES1    0.0000
     32 H15        4.7953    3.5088   -2.0747 H         1 RES1    0.0000
     33 H16        5.4783    4.1103   -0.7975 H         1 RES1    0.0000
     34 C15        4.6105    1.8060    0.1827 C.3       1 RES1    0.0000
     35 H17        4.0014    1.1408    0.5416 H         1 RES1    0.0000
     36 H18        5.0870    1.4021   -0.5604 H         1 RES1    0.0000
     37 C16        7.8542   -1.3752    5.0727 C.ar      1 RES1    0.0000
     38 H19        8.6861   -1.0498    5.3322 H         1 RES1    0.0000
     39 C17        7.2770   -2.4086    5.7900 C.ar      1 RES1    0.0000
     40 H20        7.7224   -2.7478    6.5339 H         1 RES1    0.0000
     41 C18        6.4116   -5.2440    6.3992 C.3       1 RES1    0.0000
     42 H21        6.0621   -5.8923    7.0135 H         1 RES1    0.0000
     43 H22        7.2480   -4.9084    6.7279 H         1 RES1    0.0000
     44 H23        6.5476   -5.6562    5.5424 H         1 RES1    0.0000
     45 C19        4.2094   -4.7527    5.4912 C.3       1 RES1    0.0000
     46 H24        4.5117   -5.0678    4.6370 H         1 RES1    0.0000
     47 H25        3.5081   -4.1091    5.3645 H         1 RES1    0.0000
     48 H26        3.8772   -5.4908    6.0058 H         1 RES1    0.0000
     49 C20        3.1298    4.4381    3.1818 C.3       1 RES1    0.0000
     50 H27        2.6704    5.2560    2.9773 H         1 RES1    0.0000
     51 H28        3.6262    4.5453    3.9958 H         1 RES1    0.0000
     52 H29        2.4903    3.7293    3.2872 H         1 RES1    0.0000
     53 C21        2.6085    2.4783   -1.1378 C.3       1 RES1    0.0000
     54 H30        2.0478    1.9473   -0.5685 H         1 RES1    0.0000
     55 H31        2.9252    1.9401   -1.8672 H         1 RES1    0.0000
     56 H32        2.1038    3.2188   -1.4819 H         1 RES1    0.0000
     57 C22        4.7382   -4.9252    5.6178 Du        2 SUP2    0.0000
     58 C23        6.5626   -4.7275    7.1886 Du        2 SUP2    0.0000
     59 C24        5.1967   -3.8108    7.5281 Du        2 SUP2    0.0000
@<TRIPOS>BOND
     1    1   12 1
     2    2    3 1
     3    3    8 1
     4    4    5 1
     5    6    4 1
     6    7    4 1
     7    8    4 1
     8    9    8 1
     9   10    9 1
    10   11    9 1
    11   12    9 1
    12   13   12 1
    13   14    1 1
    14   15   14 1
    15   16   14 2
    16   17   16 1
    17   18   16 1
    18   19   18 ar
    19   20   19 1
    20   21   19 ar
    21   22   21 1
    22   23   21 ar
    23   24   23 1
    24   25   24 1
    25   26   25 1
    26   27   25 1
    27   28   25 1
    28   29    3 1
    29   30   29 1
    30   31   30 1
    31   32   30 1
    32   33   30 1
    33   34   12 1
    34   35   34 1
    35   36   34 1
    36   37   18 ar
    37   38   37 1
    38   39   23 ar
    39   40   39 1
    40   41   24 1
    41   42   41 1
    42   43   41 1
    43   44   41 1
    44   45   24 1
    45   46   45 1
    46   47   45 1
    47   48   45 1
    48   49    8 1
    49   50   49 1
    50   51   49 1
    51   52   49 1
    52   53   29 1
    53   54   53 1
    54   55   53 1
    55   56   53 1
    56   29   34 1
    57   37   39 ar
@<TRIPOS>SUBSTRUCTURE
     1 RES1 1
     2 SUP2 57

@<TRIPOS>CRYSIN
   6.0530   11.9835   27.0370  90.0000  94.7560  90.0000  14 1

