# MOL2 file generated by ConQuest
# Please check atom types

@<TRIPOS>MOLECULE
OYOYUY
    36    37     1
SMALL
NO_CHARGES
****
Generated from CSD

@<TRIPOS>ATOM
      1 C1         3.6352    3.7835    7.2679 C.ar      1 RES1    0.0000
      2 C2         3.4993    2.4155    6.9970 C.ar      1 RES1    0.0000
      3 H1         3.4724    1.8055    7.7244 H         1 RES1    0.0000
      4 C3         3.4034    1.9239    5.7141 C.ar      1 RES1    0.0000
      5 H2         3.3410    0.9891    5.5572 H         1 RES1    0.0000
      6 C4         3.3994    2.8197    4.6589 C.ar      1 RES1    0.0000
      7 C5         3.4880    4.1769    4.8555 C.ar      1 RES1    0.0000
      8 H3         3.4514    4.7825    4.1244 H         1 RES1    0.0000
      9 C6         3.6299    4.6288    6.1499 C.ar      1 RES1    0.0000
     10 C7         3.7098    4.2520    8.6618 C.2       1 RES1    0.0000
     11 H4         3.6432    5.1794    8.8564 H         1 RES1    0.0000
     12 C8         3.9376    3.8416   10.9561 C.ar      1 RES1    0.0000
     13 C9         4.0429    2.8380   11.9171 C.ar      1 RES1    0.0000
     14 H5         4.0479    1.9296   11.6388 H         1 RES1    0.0000
     15 C10        4.1400    3.1312   13.2715 C.ar      1 RES1    0.0000
     16 C11        4.1174    4.4761   13.6533 C.ar      1 RES1    0.0000
     17 C12        4.0241    5.5131   12.7134 C.ar      1 RES1    0.0000
     18 C13        3.9397    5.1762   11.3778 C.ar      1 RES1    0.0000
     19 H6         3.8819    5.8671   10.7290 H         1 RES1    0.0000
     20 C14        4.2879    2.0471   14.3074 C.3       1 RES1    0.0000
     21 H7         5.1163    2.1886   14.8126 H         1 RES1    0.0000
     22 H8         4.3207    1.1737   13.8635 H         1 RES1    0.0000
     23 H9         3.5232    2.0740   14.9199 H         1 RES1    0.0000
     24 C15        4.0260    6.9548   13.1610 C.3       1 RES1    0.0000
     25 H10        4.7868    7.1098   13.7592 H         1 RES1    0.0000
     26 H11        3.1916    7.1497   13.6368 H         1 RES1    0.0000
     27 H12        4.1009    7.5396   12.3779 H         1 RES1    0.0000
     28 N1         3.8271    6.0798    6.2826 N.pl3     1 RES1    0.0000
     29 N2         3.3020    2.3252    3.2788 N.pl3     1 RES1    0.0000
     30 N3         3.8642    3.4127    9.6064 N.2       1 RES1    0.0000
     31 O1         3.2560    6.7913    5.4890 O.2       1 RES1    0.0000
     32 O2         4.5746    6.5033    7.1517 O.2       1 RES1    0.0000
     33 O3         3.2688    3.1569    2.3793 O.2       1 RES1    0.0000
     34 O4         3.2593    1.1172    3.0982 O.2       1 RES1    0.0000
     35 O5         4.2032    4.8635   14.9609 O.3       1 RES1    0.0000
     36 H13        4.2548    4.1952   15.4096 H         1 RES1    0.0000
@<TRIPOS>BOND
     1    1    2 ar
     2    2    3 1
     3    4    2 ar
     4    5    4 1
     5    6    4 ar
     6    7    6 ar
     7    8    7 1
     8    9    1 ar
     9   10    1 1
    10   11   10 1
    11   12   13 ar
    12   13   14 1
    13   15   13 ar
    14   16   15 ar
    15   17   16 ar
    16   18   12 ar
    17   19   18 1
    18   20   15 1
    19   21   20 1
    20   22   20 1
    21   23   20 1
    22   24   17 1
    23   25   24 1
    24   26   24 1
    25   27   24 1
    26   28    9 1
    27   29    6 1
    28   30   10 2
    29   31   28 2
    30   32   28 2
    31   33   29 2
    32   34   29 2
    33   35   16 1
    34   36   35 1
    35    7    9 ar
    36   12   30 1
    37   17   18 ar
@<TRIPOS>SUBSTRUCTURE
     1 RES1 1

@<TRIPOS>CRYSIN
   6.6932    7.6756   15.1649  86.7950  85.5960  68.4380   2 1

