# MOL2 file generated by ConQuest
# Please check atom types

@<TRIPOS>MOLECULE
OYUQUW
    62    53     2
SMALL
NO_CHARGES
****
Generated from CSD

@<TRIPOS>ATOM
      1 O1         5.0012    5.4762    5.5895 O.2       1 RES1    0.0000
      2 O2         5.3955    6.9277    7.1495 O.2       1 RES1    0.0000
      3 O3         2.5238    4.9440    7.1917 O.2       1 RES1    0.0000
      4 O4        -0.0991    5.5049    1.7842 O.3       1 RES1    0.0000
      5 N1         4.7687    6.5391    6.1663 N.pl3     1 RES1    0.0000
      6 N2         3.9358    0.6002    3.3321 N.1       1 RES1    0.0000
      7 C1         3.7104    7.4073    5.6431 C.ar      1 RES1    0.0000
      8 C2         3.9099    8.7766    5.7599 C.ar      1 RES1    0.0000
      9 C3         2.9652    9.6404    5.2398 C.ar      1 RES1    0.0000
     10 C4         1.8309    9.1288    4.6281 C.ar      1 RES1    0.0000
     11 C5         1.6420    7.7556    4.5399 C.ar      1 RES1    0.0000
     12 C6         2.5818    6.8521    5.0320 C.ar      1 RES1    0.0000
     13 C7         2.3343    5.3934    4.8715 C.2       1 RES1    0.0000
     14 C8         2.0093    4.8976    3.6788 C.2       1 RES1    0.0000
     15 C9         1.6732    3.4613    3.3693 C.3       1 RES1    0.0000
     16 C10        1.4736    2.6297    4.6282 C.3       1 RES1    0.0000
     17 C11        2.4214    3.0295    5.7475 C.3       1 RES1    0.0000
     18 C12        2.4161    4.5078    6.0584 C.2       1 RES1    0.0000
     19 C13        0.8123    3.3187    2.0682 C.3       1 RES1    0.0000
     20 C14       -0.4285    4.1712    2.2037 C.3       1 RES1    0.0000
     21 C15       -1.2112    6.3481    1.9282 C.3       1 RES1    0.0000
     22 C16       -0.7187    7.6920    1.5632 C.ar      1 RES1    0.0000
     23 C17        0.4774    8.0997    1.0013 C.ar      1 RES1    0.0000
     24 C18        0.7086    9.4426    0.7456 C.ar      1 RES1    0.0000
     25 C19       -0.2473   10.3864    1.0552 C.ar      1 RES1    0.0000
     26 C20       -1.4390    9.9927    1.6378 C.ar      1 RES1    0.0000
     27 C21       -1.6592    8.6622    1.8867 C.ar      1 RES1    0.0000
     28 C22        1.5918    1.1189    4.3402 C.3       1 RES1    0.0000
     29 C23        2.9048    0.7997    3.7784 C.1       1 RES1    0.0000
     30 H1         4.6853    9.1149    6.1916 H         1 RES1    0.0000
     31 H2         3.0920   10.5792    5.3016 H         1 RES1    0.0000
     32 H3         1.1802    9.7199    4.2676 H         1 RES1    0.0000
     33 H4         0.8499    7.4229    4.1334 H         1 RES1    0.0000
     34 H5         1.9868    5.5090    2.9524 H         1 RES1    0.0000
     35 H6         2.5145    3.1373    3.0682 H         1 RES1    0.0000
     36 H7         0.5898    2.7907    4.9358 H         1 RES1    0.0000
     37 H8         2.1711    2.5583    6.5334 H         1 RES1    0.0000
     38 H9         3.3026    2.7803    5.4966 H         1 RES1    0.0000
     39 H10        1.3179    3.6075    1.3180 H         1 RES1    0.0000
     40 H11        0.5628    2.4091    1.9494 H         1 RES1    0.0000
     41 H12       -0.7164    4.1800    3.1092 H         1 RES1    0.0000
     42 H13       -1.1203    3.8226    1.6542 H         1 RES1    0.0000
     43 H14       -1.5234    6.3379    2.8253 H         1 RES1    0.0000
     44 H15       -1.9119    6.0781    1.3462 H         1 RES1    0.0000
     45 H16        1.1439    7.4569    0.7897 H         1 RES1    0.0000
     46 H17        1.5308    9.7137    0.3546 H         1 RES1    0.0000
     47 H18       -0.0880   11.3044    0.8688 H         1 RES1    0.0000
     48 H19       -2.0982   10.6380    1.8633 H         1 RES1    0.0000
     49 H20       -2.4770    8.3969    2.2913 H         1 RES1    0.0000
     50 H21        1.4742    0.6367    5.1505 H         1 RES1    0.0000
     51 H22        0.9176    0.8656    3.7209 H         1 RES1    0.0000
     52 O5         0.2649    5.3189    1.2982 Du        2 SUP2    0.0000
     53 C24        0.1387    3.4215    2.8790 Du        2 SUP2    0.0000
     54 C25        0.0536    3.9181    1.4494 Du        2 SUP2    0.0000
     55 C26       -0.8338    6.1202    1.7220 Du        2 SUP2    0.0000
     56 H23        2.2733    3.0628    2.7504 Du        2 SUP2    0.0000
     57 H24       -0.3880    3.9781    3.4398 Du        2 SUP2    0.0000
     58 H25       -0.1851    2.5289    2.9242 Du        2 SUP2    0.0000
     59 H26       -0.8106    3.7112    1.1132 Du        2 SUP2    0.0000
     60 H27        0.7104    3.4621    0.9366 Du        2 SUP2    0.0000
     61 H28       -0.9759    5.9396    2.6430 Du        2 SUP2    0.0000
     62 H29       -1.5935    5.8417    1.2233 Du        2 SUP2    0.0000
@<TRIPOS>BOND
     1    1    5 2
     2    2    5 2
     3    3   18 2
     4    4   20 1
     5    5    7 1
     6    6   29 3
     7    7    8 ar
     8    8    9 ar
     9    9   10 ar
    10   10   11 ar
    11   11   12 ar
    12   12    7 ar
    13   13   12 1
    14   14   13 2
    15   15   14 1
    16   16   15 1
    17   17   16 1
    18   18   13 1
    19   19   15 1
    20   20   19 1
    21   21    4 1
    22   22   21 1
    23   23   22 ar
    24   24   23 ar
    25   25   24 ar
    26   26   25 ar
    27   27   22 ar
    28   28   16 1
    29   29   28 1
    30   30    8 1
    31   31    9 1
    32   32   10 1
    33   33   11 1
    34   34   14 1
    35   35   15 1
    36   36   16 1
    37   37   17 1
    38   38   17 1
    39   39   19 1
    40   40   19 1
    41   41   20 1
    42   42   20 1
    43   43   21 1
    44   44   21 1
    45   45   23 1
    46   46   24 1
    47   47   25 1
    48   48   26 1
    49   49   27 1
    50   50   28 1
    51   51   28 1
    52   17   18 1
    53   26   27 ar
@<TRIPOS>SUBSTRUCTURE
     1 RES1 1
     2 SUP2 52

@<TRIPOS>CRYSIN
   5.8560   11.9176   15.3239 109.8300  97.2540  99.9000   2 1

