# MOL2 file generated by ConQuest
# Please check atom types

@<TRIPOS>MOLECULE
OZALEI
    32    34     1
SMALL
NO_CHARGES
****
Generated from CSD

@<TRIPOS>ATOM
      1 N1         1.5562    2.6893    0.8908 N.2       1 RES1    0.0000
      2 N2         2.3590    3.2798    0.0180 N.3       1 RES1    0.0000
      3 N3         3.5634    2.7957   -0.1430 N.2       1 RES1    0.0000
      4 C1         3.5720    1.7488    0.7186 C.2       1 RES1    0.0000
      5 C2         4.5992    0.8400    1.0013 C.2       1 RES1    0.0000
      6 C3         4.3216   -0.1170    1.9289 C.2       1 RES1    0.0000
      7 C4         3.0742   -0.1860    2.5739 C.2       1 RES1    0.0000
      8 C5         2.0638    0.6932    2.3255 C.2       1 RES1    0.0000
      9 C6         2.3395    1.6826    1.3645 C.2       1 RES1    0.0000
     10 C7         1.9245    4.4518   -0.7589 C.3       1 RES1    0.0000
     11 H1         2.7949    4.8970   -0.9670 H         1 RES1    0.0000
     12 C8         1.2912    5.3890   -0.0805 C.3       1 RES1    0.0000
     13 H2         0.3543    5.0850    0.0240 H         1 RES1    0.0000
     14 H3         1.2659    6.1953   -0.6561 H         1 RES1    0.0000
     15 N4         1.7509    5.8334    1.2600 N.pl3     1 RES1    0.0000
     16 O1         2.9126    5.6311    1.5597 O.2       1 RES1    0.0000
     17 O2         0.9504    6.3473    1.9863 O.2       1 RES1    0.0000
     18 C9         1.4431    4.0415   -2.1336 C.ar      1 RES1    0.0000
     19 C10        0.2033    3.4869   -2.3281 C.ar      1 RES1    0.0000
     20 C11       -0.1684    3.1118   -3.6188 C.ar      1 RES1    0.0000
     21 H4        -1.0262    2.7331   -3.7739 H         1 RES1    0.0000
     22 C12        0.7030    3.2844   -4.6638 C.ar      1 RES1    0.0000
     23 C13        1.9135    3.8202   -4.4522 C.ar      1 RES1    0.0000
     24 H5         2.5158    3.9310   -5.1786 H         1 RES1    0.0000
     25 C14        2.2859    4.2092   -3.1931 C.ar      1 RES1    0.0000
     26 H6         5.4753    0.9789    0.5225 H         1 RES1    0.0000
     27 H7         4.9992   -0.7728    2.1670 H         1 RES1    0.0000
     28 H8         2.9425   -0.9789    3.2463 H         1 RES1    0.0000
     29 H9         1.1446    0.5925    2.7409 H         1 RES1    0.0000
     30 H10       -0.3749    3.4003   -1.5589 H         1 RES1    0.0000
     31 H11        0.4193    3.0654   -5.5161 H         1 RES1    0.0000
     32 H12        3.2016    4.5595   -3.0493 H         1 RES1    0.0000
@<TRIPOS>BOND
     1    1    2 1
     2    2    3 1
     3    3    4 2
     4    4    5 1
     5    5    6 2
     6    6    7 1
     7    7    8 2
     8    8    9 1
     9    9    1 2
    10   10    2 1
    11   11   10 1
    12   12   10 1
    13   13   12 1
    14   14   12 1
    15   15   12 1
    16   16   15 2
    17   17   15 2
    18   18   10 1
    19   19   18 ar
    20   20   19 ar
    21   21   20 1
    22   22   20 ar
    23   23   22 ar
    24   24   23 1
    25   25   18 ar
    26   26    5 1
    27   27    6 1
    28   28    7 1
    29   29    8 1
    30   30   19 1
    31   31   22 1
    32   32   25 1
    33    4    9 1
    34   23   25 ar
@<TRIPOS>SUBSTRUCTURE
     1 RES1 1

@<TRIPOS>CRYSIN
   6.0440   25.7600    8.7310  90.0000 101.1800  90.0000 231 1

