# MOL2 file generated by ConQuest
# Please check atom types

@<TRIPOS>MOLECULE
OZERIW
    41    39     2
SMALL
NO_CHARGES
****
Generated from CSD

@<TRIPOS>ATOM
      1 O1         0.8246   19.3205    6.0229 O.3       1 RES1    0.0000
      2 O2         0.1739   21.4414    5.9907 O.2       1 RES1    0.0000
      3 O3         1.0786   20.1881   -0.1419 O.2       1 RES1    0.0000
      4 C1        -0.5087   22.5907    3.4717 C.3       1 RES1    0.0000
      5 H1        -0.7418   23.0808    2.6560 H         1 RES1    0.0000
      6 H2         0.1183   23.1221    4.0053 H         1 RES1    0.0000
      7 H3        -1.3206   22.4228    3.9941 H         1 RES1    0.0000
      8 C2         0.8231   16.6194    2.8841 C.ar      1 RES1    0.0000
      9 H4         1.7678   16.5180    2.8793 H         1 RES1    0.0000
     10 O4        -3.8294   18.0588    3.2001 O.2       1 RES1    0.0000
     11 C3         0.2754   17.8870    3.1332 C.ar      1 RES1    0.0000
     12 C4         1.2297   19.0625    3.3202 C.3       1 RES1    0.0000
     13 H5         1.9501   18.7635    3.9465 H         1 RES1    0.0000
     14 N1         0.2199   21.1259    1.7185 N.am      1 RES1    0.0000
     15 C5         0.1277   21.2868    3.1050 C.2       1 RES1    0.0000
     16 O5        -3.9999   16.1010    2.4843 O.2       1 RES1    0.0000
     17 N2        -3.3370   17.0261    2.8688 N.pl3     1 RES1    0.0000
     18 C6        -1.8709   16.8817    2.8833 C.ar      1 RES1    0.0000
     19 C7        -1.1001   18.0043    3.1372 C.ar      1 RES1    0.0000
     20 H6        -1.5115   18.8417    3.3105 H         1 RES1    0.0000
     21 C8         0.5972   20.3113    3.9239 C.2       1 RES1    0.0000
     22 C9         0.5133   20.4598    5.3886 C.2       1 RES1    0.0000
     23 C10        0.7388   19.3281    7.5013 C.3       1 RES1    0.0000
     24 H7        -0.0075   19.9123    7.7898 H         1 RES1    0.0000
     25 H8         0.5594   18.4117    7.8301 H         1 RES1    0.0000
     26 C11        1.9542   19.8016    8.0462 C.3       1 RES1    0.0000
     27 H9         1.8912   19.8102    9.0247 H         1 RES1    0.0000
     28 H10        2.1256   20.7093    7.7213 H         1 RES1    0.0000
     29 H11        2.6869   19.2109    7.7713 H         1 RES1    0.0000
     30 C12        1.9062   19.4228    1.9886 C.3       1 RES1    0.0000
     31 H12        2.7359   19.9275    2.1772 H         1 RES1    0.0000
     32 H13        2.1619   18.5876    1.5227 H         1 RES1    0.0000
     33 C13        1.0380   20.2366    1.0825 C.2       1 RES1    0.0000
     34 C14        0.0273   15.5159    2.6447 C.ar      1 RES1    0.0000
     35 H14        0.4284   14.6698    2.4819 H         1 RES1    0.0000
     36 C15       -1.3463   15.6375    2.6399 C.ar      1 RES1    0.0000
     37 H15       -1.9073   14.8892    2.4746 H         1 RES1    0.0000
     38 H16       -0.2031   21.5997    1.2494 H         1 RES1    0.0000
     39 H17       -0.5544   22.6682    4.4479 Du        2 SUP2    0.0000
     40 H18       -1.4145   22.6291    3.0985 Du        2 SUP2    0.0000
     41 H19        0.0249   23.3284    3.1090 Du        2 SUP2    0.0000
@<TRIPOS>BOND
     1    1   22 1
     2    2   22 2
     3    3   33 2
     4    4    5 1
     5    6    4 1
     6    7    4 1
     7    8    9 1
     8   10   17 2
     9   11    8 ar
    10   12   11 1
    11   13   12 1
    12   14   15 1
    13   15    4 1
    14   16   17 2
    15   17   18 1
    16   18   19 ar
    17   19   11 ar
    18   20   19 1
    19   21   12 1
    20   22   21 1
    21   23    1 1
    22   24   23 1
    23   25   23 1
    24   26   23 1
    25   27   26 1
    26   28   26 1
    27   29   26 1
    28   30   12 1
    29   31   30 1
    30   32   30 1
    31   33   14 1
    32   34    8 ar
    33   35   34 1
    34   36   18 ar
    35   37   36 1
    36   38   14 1
    37   15   21 2
    38   30   33 1
    39   34   36 ar
@<TRIPOS>SUBSTRUCTURE
     1 RES1 1
     2 SUP2 39

@<TRIPOS>CRYSIN
   8.4730   21.7170    9.0180  90.0000 116.6400  90.0000  14 1

