# MOL2 file generated by ConQuest
# Please check atom types

@<TRIPOS>MOLECULE
OZIKIS
    39    41     1
SMALL
NO_CHARGES
****
Generated from CSD

@<TRIPOS>ATOM
      1 O1         2.4623    7.8861    7.2085 O.3       1 RES1    0.0000
      2 H1         2.3765    7.9490    8.0629 H         1 RES1    0.0000
      3 O2         1.5663    5.7612    3.5433 O.3       1 RES1    0.0000
      4 N1         4.5107    6.2010    2.2363 N.1       1 RES1    0.0000
      5 N2         1.6393    4.3561    3.5004 N.2       1 RES1    0.0000
      6 C1         1.5876    6.4112    4.8571 C.3       1 RES1    0.0000
      7 C2         3.0367    6.3616    5.4143 C.3       1 RES1    0.0000
      8 H2         3.3473    5.4191    5.2933 H         1 RES1    0.0000
      9 C3         3.0919    6.6374    6.9335 C.3       1 RES1    0.0000
     10 H3         2.5788    5.9179    7.4014 H         1 RES1    0.0000
     11 C4         4.5221    6.6190    7.4557 C.3       1 RES1    0.0000
     12 H4         4.5213    6.8433    8.4205 H         1 RES1    0.0000
     13 H5         4.8965    5.7090    7.3530 H         1 RES1    0.0000
     14 C5         5.3983    7.6111    6.7091 C.3       1 RES1    0.0000
     15 H6         5.0434    8.5274    6.8300 H         1 RES1    0.0000
     16 H7         6.3177    7.5858    7.0761 H         1 RES1    0.0000
     17 C6         5.4276    7.2662    5.2361 C.3       1 RES1    0.0000
     18 H8         5.8470    6.3769    5.1212 H         1 RES1    0.0000
     19 H9         5.9881    7.9291    4.7608 H         1 RES1    0.0000
     20 C7         4.0138    7.2453    4.5917 C.3       1 RES1    0.0000
     21 C8         4.2341    6.6394    3.2515 C.1       1 RES1    0.0000
     22 C9         3.4648    8.6675    4.3852 C.3       1 RES1    0.0000
     23 H10        3.4044    9.1256    5.2610 H         1 RES1    0.0000
     24 H11        4.0905    9.1803    3.8143 H         1 RES1    0.0000
     25 C10        2.0918    8.6481    3.7332 C.3       1 RES1    0.0000
     26 H12        2.1668    8.2662    2.8221 H         1 RES1    0.0000
     27 H13        1.7556    9.5759    3.6489 H         1 RES1    0.0000
     28 C11        1.1005    7.8225    4.5475 C.3       1 RES1    0.0000
     29 H14        0.9186    8.2923    5.3995 H         1 RES1    0.0000
     30 H15        0.2472    7.7637    4.0483 H         1 RES1    0.0000
     31 C12        1.1201    3.7470    4.4934 C.2       1 RES1    0.0000
     32 H16        1.1797    2.7985    4.5027 H         1 RES1    0.0000
     33 C13        0.4446    4.3856    5.6136 C.2       1 RES1    0.0000
     34 C14       -0.4291    3.5517    6.5049 C.3       1 RES1    0.0000
     35 H17       -1.1111    3.1020    5.9655 H         1 RES1    0.0000
     36 H18       -0.8640    4.1281    7.1675 H         1 RES1    0.0000
     37 H19        0.1191    2.8818    6.9645 H         1 RES1    0.0000
     38 C15        0.6412    5.6859    5.7672 C.2       1 RES1    0.0000
     39 H20        0.1836    6.1592    6.4522 H         1 RES1    0.0000
@<TRIPOS>BOND
     1    1    2 1
     2    3    5 1
     3    4   21 3
     4    5   31 2
     5    6    3 1
     6    7    6 1
     7    8    7 1
     8    9    1 1
     9   10    9 1
    10   11    9 1
    11   12   11 1
    12   13   11 1
    13   14   11 1
    14   15   14 1
    15   16   14 1
    16   17   14 1
    17   18   17 1
    18   19   17 1
    19   20    7 1
    20   21   20 1
    21   22   20 1
    22   23   22 1
    23   24   22 1
    24   25   22 1
    25   26   25 1
    26   27   25 1
    27   28    6 1
    28   29   28 1
    29   30   28 1
    30   31   32 1
    31   33   31 1
    32   34   33 1
    33   35   34 1
    34   36   34 1
    35   37   34 1
    36   38    6 1
    37   39   38 1
    38    7    9 1
    39   17   20 1
    40   25   28 1
    41   33   38 2
@<TRIPOS>SUBSTRUCTURE
     1 RES1 1

@<TRIPOS>CRYSIN
   8.1582   12.4378   13.4449  90.0000  90.0000  90.0000  19 1

