# MOL2 file generated by ConQuest
# Please check atom types

@<TRIPOS>MOLECULE
OZPSPO
   119   123     2
SMALL
NO_CHARGES
****
Generated from CSD

@<TRIPOS>ATOM
      1 O1        -4.2030    1.3841   -0.2321 O.2       1 RES1    0.0000
      2 O2        -1.6939   -6.7474    4.6802 O.2       1 RES1    0.0000
      3 O3        -0.6527   -1.3491    2.5127 O.2       1 RES1    0.0000
      4 O4        -2.4587   -2.7420    1.1245 O.3       1 RES1    0.0000
      5 O5         0.8441    1.2262    6.5614 O.2       2 RES2    0.0000
      6 O6         4.6874   -7.0537    3.2422 O.2       2 RES2    0.0000
      7 O7         5.3008   -1.3093    5.1852 O.2       2 RES2    0.0000
      8 O8         3.2650   -2.7340    6.1740 O.3       2 RES2    0.0000
      9 N1        -3.4560    0.7369    0.5969 N.3       1 RES1    0.0000
     10 N2        -1.9812   -5.8200    3.8542 N.3       1 RES1    0.0000
     11 N3         1.9510    0.6523    6.2102 N.3       2 RES2    0.0000
     12 N4         4.2886   -6.0408    3.9040 N.3       2 RES2    0.0000
     13 C1        -2.6710    1.5724    1.5375 C.3       1 RES1    0.0000
     14 C2        -1.8233    0.7041    2.4509 C.2       1 RES1    0.0000
     15 C3        -1.6784   -0.7485    2.1962 C.2       1 RES1    0.0000
     16 C4        -2.8392   -1.4238    1.5375 C.3       1 RES1    0.0000
     17 C5        -3.1456   -0.6690    0.2171 C.3       1 RES1    0.0000
     18 C6        -4.0253   -1.5118    2.4946 C.3       1 RES1    0.0000
     19 C7        -3.6098   -2.3090    3.7427 C.3       1 RES1    0.0000
     20 C8        -2.8735   -3.5864    3.3267 C.2       1 RES1    0.0000
     21 C9        -2.3585   -3.7034    2.1223 C.2       1 RES1    0.0000
     22 C10       -1.6310   -4.8715    1.6686 C.2       1 RES1    0.0000
     23 C11       -1.9569   -6.1262    2.4057 C.3       1 RES1    0.0000
     24 C12       -2.6075   -4.5799    4.4270 C.3       1 RES1    0.0000
     25 C13       -1.9160   -0.6831   -0.7130 C.3       1 RES1    0.0000
     26 C14       -4.3462   -1.2609   -0.5291 C.3       1 RES1    0.0000
     27 C15       -1.7969    2.4947    0.7431 C.3       1 RES1    0.0000
     28 C16       -3.6907    2.4128    2.3394 C.3       1 RES1    0.0000
     29 C17       -1.1791    1.2265    3.4503 C.2       1 RES1    0.0000
     30 C18       -0.7922   -4.7940    0.6708 C.2       1 RES1    0.0000
     31 C19       -0.9169   -7.2497    2.1720 C.3       1 RES1    0.0000
     32 C20       -3.3112   -6.6547    1.9354 C.3       1 RES1    0.0000
     33 C21       -1.6000   -4.0332    5.3947 C.3       1 RES1    0.0000
     34 C22       -3.9455   -5.0092    5.1415 C.3       1 RES1    0.0000
     35 C23        2.9522    1.5567    5.6675 C.3       2 RES2    0.0000
     36 C24        4.1746    0.7588    5.1867 C.2       2 RES2    0.0000
     37 C25        4.2232   -0.7093    5.3163 C.2       2 RES2    0.0000
     38 C26        2.9776   -1.4545    5.6057 C.3       2 RES2    0.0000
     39 C27        2.2192   -0.7010    6.7392 C.3       2 RES2    0.0000
     40 C28        2.1384   -1.6199    4.3366 C.3       2 RES2    0.0000
     41 C29        2.8728   -2.4907    3.3251 C.3       2 RES2    0.0000
     42 C30        3.3920   -3.7388    4.0019 C.2       2 RES2    0.0000
     43 C31        3.5723   -3.7701    5.3058 C.2       2 RES2    0.0000
     44 C32        4.0848   -4.9254    6.0428 C.2       2 RES2    0.0000
     45 C33        3.9335   -6.2446    5.3404 C.3       2 RES2    0.0000
     46 C34        3.8412   -4.8632    3.0915 C.3       2 RES2    0.0000
     47 C35        5.2172    1.4039    4.7164 C.2       2 RES2    0.0000
     48 C36        2.3230    2.2960    4.4632 C.3       2 RES2    0.0000
     49 C37        3.3651    2.5913    6.7091 C.3       2 RES2    0.0000
     50 C38        3.0885   -0.6060    7.9767 C.3       2 RES2    0.0000
     51 C39        0.9039   -1.3797    7.0859 C.3       2 RES2    0.0000
     52 C40        4.9929   -4.4385    2.2338 C.3       2 RES2    0.0000
     53 C41        2.7283   -5.3433    2.1781 C.3       2 RES2    0.0000
     54 C42        4.8401   -7.3515    5.8966 C.3       2 RES2    0.0000
     55 C43        2.4655   -6.7256    5.4279 C.3       2 RES2    0.0000
     56 C44        4.5675   -4.7883    7.2668 C.2       2 RES2    0.0000
     57 H1        -4.7465   -2.0297    1.9143 H         1 RES1    0.0000
     58 H2        -4.0585   -0.5306    2.9694 H         1 RES1    0.0000
     59 H3        -4.4704   -2.5650    4.0999 H         1 RES1    0.0000
     60 H4        -2.8692   -1.6567    4.2959 H         1 RES1    0.0000
     61 H5        -1.0676   -0.3690   -0.2412 H         1 RES1    0.0000
     62 H6        -2.0730    0.0018   -1.4772 H         1 RES1    0.0000
     63 H7        -1.9371   -1.5585   -1.1003 H         1 RES1    0.0000
     64 H8        -4.9817   -1.1870    0.1507 H         1 RES1    0.0000
     65 H9        -4.2130   -2.2448   -0.7084 H         1 RES1    0.0000
     66 H10       -4.2983   -0.8368   -1.4470 H         1 RES1    0.0000
     67 H11       -1.0318    2.0817    0.2110 H         1 RES1    0.0000
     68 H12       -1.2478    3.1004    1.4169 H         1 RES1    0.0000
     69 H13       -1.8914    3.2667    0.2713 H         1 RES1    0.0000
     70 H14       -4.1540    2.9560    1.4922 H         1 RES1    0.0000
     71 H15       -4.0935    1.7326    2.9845 H         1 RES1    0.0000
     72 H16       -3.1916    3.0386    2.9091 H         1 RES1    0.0000
     73 H17       -0.6038    1.8752    3.1051 H         1 RES1    0.0000
     74 H18       -1.4190    1.1213    4.3260 H         1 RES1    0.0000
     75 H19       -0.4978   -3.9045    0.0603 H         1 RES1    0.0000
     76 H20       -0.3953   -5.6916    0.3618 H         1 RES1    0.0000
     77 H21       -0.7890   -7.2680    1.1757 H         1 RES1    0.0000
     78 H22       -0.0736   -6.7433    2.6981 H         1 RES1    0.0000
     79 H23       -1.1931   -7.8463    2.8338 H         1 RES1    0.0000
     80 H24       -3.6772   -7.4615    2.6680 H         1 RES1    0.0000
     81 H25       -3.8921   -5.8023    1.9595 H         1 RES1    0.0000
     82 H26       -3.0452   -6.9420    0.8893 H         1 RES1    0.0000
     83 H27       -0.8227   -4.0097    4.9289 H         1 RES1    0.0000
     84 H28       -1.7806   -3.6628    6.2554 H         1 RES1    0.0000
     85 H29       -1.9694   -2.9625    5.6374 H         1 RES1    0.0000
     86 H30       -4.7152   -5.3939    4.4014 H         1 RES1    0.0000
     87 H31       -3.5993   -5.6929    5.6374 H         1 RES1    0.0000
     88 H32       -4.5901   -4.3522    5.6977 H         1 RES1    0.0000
     89 H33        1.2035   -2.1638    4.7481 H         2 RES2    0.0000
     90 H34        2.1707   -0.6591    3.9040 H         2 RES2    0.0000
     91 H35        3.7642   -1.9426    2.8488 H         2 RES2    0.0000
     92 H36        5.3947    1.0061    3.8437 H         2 RES2    0.0000
     93 H37        5.3904    2.5433    4.6576 H         2 RES2    0.0000
     94 H38        1.8499    1.5075    4.0095 H         2 RES2    0.0000
     95 H39        2.9103    3.1095    4.2959 H         2 RES2    0.0000
     96 H40        2.4158    2.1223    3.5723 H         2 RES2    0.0000
     97 H41        3.8214    2.0017    7.5215 H         2 RES2    0.0000
     98 H42        2.5876    3.0999    6.6171 H         2 RES2    0.0000
     99 H43        3.6919    3.4511    6.1951 H         2 RES2    0.0000
    100 H44        3.9400   -0.2168    7.8531 H         2 RES2    0.0000
    101 H45        3.1546   -1.3959    8.4410 H         2 RES2    0.0000
    102 H46        2.6933    0.1232    8.6369 H         2 RES2    0.0000
    103 H47        0.5620   -0.9129    8.0189 H         2 RES2    0.0000
    104 H48        0.2294   -1.2917    6.2554 H         2 RES2    0.0000
    105 H49        1.0764   -2.4254    7.1145 H         2 RES2    0.0000
    106 H50        6.0544   -4.8692    2.0650 H         2 RES2    0.0000
    107 H51        5.0074   -3.5966    1.7183 H         2 RES2    0.0000
    108 H52        5.5561   -4.1583    2.8790 H         2 RES2    0.0000
    109 H53        1.8434   -5.8091    2.6830 H         2 RES2    0.0000
    110 H54        2.1093   -4.6373    1.5978 H         2 RES2    0.0000
    111 H55        3.0303   -6.1699    1.5676 H         2 RES2    0.0000
    112 H56        4.9163   -8.0596    5.1701 H         2 RES2    0.0000
    113 H57        5.7637   -6.9890    5.9388 H         2 RES2    0.0000
    114 H58        4.7047   -7.3577    6.9487 H         2 RES2    0.0000
    115 H59        2.2100   -6.8744    6.4965 H         2 RES2    0.0000
    116 H60        1.9306   -5.8674    5.0947 H         2 RES2    0.0000
    117 H61        2.2248   -7.4706    4.9289 H         2 RES2    0.0000
    118 H62        4.4860   -3.7605    7.7476 H         2 RES2    0.0000
    119 H63        5.1789   -5.3773    7.7627 H         2 RES2    0.0000
@<TRIPOS>BOND
     1    1    9 1
     2    2   10 1
     3    3   15 2
     4    4   16 1
     5    5   11 1
     6    6   12 1
     7    7   37 2
     8    8   38 1
     9    9   13 1
    10   10   23 1
    11   11   35 1
    12   12   45 1
    13   13   14 1
    14   14   15 1
    15   15   16 1
    16   16   17 1
    17   17    9 1
    18   18   16 1
    19   19   18 1
    20   20   19 1
    21   21    4 1
    22   22   21 1
    23   23   22 1
    24   24   10 1
    25   25   17 1
    26   26   17 1
    27   27   13 1
    28   28   13 1
    29   29   14 2
    30   30   22 2
    31   31   23 1
    32   32   23 1
    33   33   24 1
    34   34   24 1
    35   35   36 1
    36   36   37 1
    37   37   38 1
    38   38   39 1
    39   39   11 1
    40   40   38 1
    41   41   40 1
    42   42   41 1
    43   43    8 1
    44   44   43 1
    45   45   44 1
    46   46   12 1
    47   47   36 2
    48   48   35 1
    49   49   35 1
    50   50   39 1
    51   51   39 1
    52   52   46 1
    53   53   46 1
    54   54   45 1
    55   55   45 1
    56   56   44 2
    57   57   18 1
    58   58   18 1
    59   59   19 1
    60   60   19 1
    61   61   25 1
    62   62   25 1
    63   63   25 1
    64   64   26 1
    65   65   26 1
    66   66   26 1
    67   67   27 1
    68   68   27 1
    69   69   27 1
    70   70   28 1
    71   71   28 1
    72   72   28 1
    73   73   29 1
    74   74   29 1
    75   75   30 1
    76   76   30 1
    77   77   31 1
    78   78   31 1
    79   79   31 1
    80   80   32 1
    81   81   32 1
    82   82   32 1
    83   83   33 1
    84   84   33 1
    85   85   33 1
    86   86   34 1
    87   87   34 1
    88   88   34 1
    89   89   40 1
    90   90   40 1
    91   91   41 1
    92   92   47 1
    93   93   47 1
    94   94   48 1
    95   95   48 1
    96   96   48 1
    97   97   49 1
    98   98   49 1
    99   99   49 1
   100  100   50 1
   101  101   50 1
   102  102   50 1
   103  103   51 1
   104  104   51 1
   105  105   51 1
   106  106   52 1
   107  107   52 1
   108  108   52 1
   109  109   53 1
   110  110   53 1
   111  111   53 1
   112  112   54 1
   113  113   54 1
   114  114   54 1
   115  115   55 1
   116  116   55 1
   117  117   55 1
   118  118   56 1
   119  119   56 1
   120   20   21 2
   121   20   24 1
   122   42   43 2
   123   42   46 1
@<TRIPOS>SUBSTRUCTURE
     1 RES1 1
     2 RES2 5

@<TRIPOS>CRYSIN
  11.9620   13.1760   15.1160  88.7000  94.2800 114.6500   2 1

