# MOL2 file generated by ConQuest
# Please check atom types

@<TRIPOS>MOLECULE
OZUHUO
    38    40     1
SMALL
NO_CHARGES
****
Generated from CSD

@<TRIPOS>ATOM
      1 C1         6.2742    5.5869    2.3635 C.ar      1 RES1    0.0000
      2 C2         6.7703    4.2524    2.4894 C.ar      1 RES1    0.0000
      3 C3         5.9425    3.2235    2.0389 C.ar      1 RES1    0.0000
      4 H1         6.2621    2.3294    2.0781 H         1 RES1    0.0000
      5 C4         4.6558    3.4585    1.5304 C.ar      1 RES1    0.0000
      6 C5         4.1982    4.7934    1.4101 C.ar      1 RES1    0.0000
      7 H2         3.3347    4.9703    1.0569 H         1 RES1    0.0000
      8 C6         4.9994    5.8237    1.8032 C.ar      1 RES1    0.0000
      9 H3         4.6955    6.7173    1.6976 H         1 RES1    0.0000
     10 C7         8.7167    2.7833    3.1112 C.ar      1 RES1    0.0000
     11 C8        10.0667    2.7558    2.7608 C.ar      1 RES1    0.0000
     12 H4        10.4757    3.5315    2.3950 H         1 RES1    0.0000
     13 C9        10.8129    1.6038    2.9419 C.ar      1 RES1    0.0000
     14 H5        11.7349    1.5991    2.7146 H         1 RES1    0.0000
     15 C10       10.2264    0.4586    3.4532 C.ar      1 RES1    0.0000
     16 H6        10.7385   -0.3348    3.5638 H         1 RES1    0.0000
     17 C11        8.8822    0.4818    3.8016 C.ar      1 RES1    0.0000
     18 H7         8.4729   -0.2974    4.1583 H         1 RES1    0.0000
     19 C12        8.1343    1.6350    3.6323 C.ar      1 RES1    0.0000
     20 H8         7.2153    1.6412    3.8736 H         1 RES1    0.0000
     21 C13        2.5807    2.3251    0.6981 C.ar      1 RES1    0.0000
     22 C14        1.5724    3.1011    1.2611 C.ar      1 RES1    0.0000
     23 H9         1.7768    3.7106    1.9613 H         1 RES1    0.0000
     24 C15        0.2706    2.9854    0.8009 C.ar      1 RES1    0.0000
     25 H10       -0.4064    3.5393    1.1709 H         1 RES1    0.0000
     26 C16       -0.0592    2.0756   -0.1903 C.ar      1 RES1    0.0000
     27 H11       -0.9535    2.0024   -0.5015 H         1 RES1    0.0000
     28 C17        0.9421    1.2718   -0.7211 C.ar      1 RES1    0.0000
     29 H12        0.7258    0.6337   -1.3905 H         1 RES1    0.0000
     30 C18        2.2556    1.3903   -0.2854 C.ar      1 RES1    0.0000
     31 H13        2.9315    0.8346   -0.6561 H         1 RES1    0.0000
     32 N1         8.0322    4.0217    2.9860 N.pl3     1 RES1    0.0000
     33 H14        8.5292    4.8317    3.2175 H         1 RES1    0.0000
     34 N2         3.9223    2.3735    1.1359 N.pl3     1 RES1    0.0000
     35 H15        4.3592    1.5882    1.0072 H         1 RES1    0.0000
     36 N3         7.0338    6.7284    2.7013 N.pl3     1 RES1    0.0000
     37 O1         8.0991    6.6138    3.3567 O.2       1 RES1    0.0000
     38 O2         6.6481    7.8590    2.3299 O.2       1 RES1    0.0000
@<TRIPOS>BOND
     1    1    2 ar
     2    2    3 ar
     3    3    4 1
     4    5    3 ar
     5    6    5 ar
     6    7    6 1
     7    8    1 ar
     8    9    8 1
     9   10   11 ar
    10   11   12 1
    11   13   11 ar
    12   14   13 1
    13   15   13 ar
    14   16   15 1
    15   17   15 ar
    16   18   17 1
    17   19   10 ar
    18   20   19 1
    19   21   22 ar
    20   22   23 1
    21   24   22 ar
    22   25   24 1
    23   26   24 ar
    24   27   26 1
    25   28   26 ar
    26   29   28 1
    27   30   21 ar
    28   31   30 1
    29   32    2 1
    30   33   32 1
    31   34    5 1
    32   35   34 1
    33   36    1 1
    34   37   36 2
    35   38   36 2
    36    6    8 ar
    37   10   32 1
    38   17   19 ar
    39   21   34 1
    40   28   30 ar
@<TRIPOS>SUBSTRUCTURE
     1 RES1 1

@<TRIPOS>CRYSIN
  13.3470   15.5710    7.2220  90.0000 104.4160  90.0000  14 1

