# MOL2 file generated by ConQuest
# Please check atom types

@<TRIPOS>MOLECULE
OZUQIL
    53    57     1
SMALL
NO_CHARGES
****
Generated from CSD

@<TRIPOS>ATOM
      1 O1         5.3167    7.8275    8.5925 O.2       1 RES1    0.0000
      2 O2         2.2035    6.5838    2.9162 O.2       1 RES1    0.0000
      3 O3         4.0130    5.4103    3.1086 O.2       1 RES1    0.0000
      4 N1         2.2147    6.7103   12.0272 N.2       1 RES1    0.0000
      5 N2         1.3382    6.2460   11.0916 N.pl3     1 RES1    0.0000
      6 N3        -0.4911    5.3747   10.2432 N.2       1 RES1    0.0000
      7 N4        -0.3811    5.7363   12.6090 N.pl3     1 RES1    0.0000
      8 H1        -1.2623    5.4824   12.6866 H         1 RES1    0.0000
      9 H2        -0.0564    6.2628   13.1905 H         1 RES1    0.0000
     10 N5         3.1026    6.0830    3.5724 N.pl3     1 RES1    0.0000
     11 C1         0.1081    5.8005   11.3548 C.2       1 RES1    0.0000
     12 C2         0.4048    5.5466    9.2123 C.2       1 RES1    0.0000
     13 C3         1.5668    6.1205    9.7070 C.2       1 RES1    0.0000
     14 C4         2.7940    6.6144    9.2272 C.2       1 RES1    0.0000
     15 C5         3.7053    7.0925   10.1473 C.2       1 RES1    0.0000
     16 C6         5.0165    7.6526    9.7565 C.2       1 RES1    0.0000
     17 C7         5.9867    7.9470   10.8426 C.3       1 RES1    0.0000
     18 H3         6.6519    8.5664   10.5039 H         1 RES1    0.0000
     19 H4         6.4451    7.1251   11.0788 H         1 RES1    0.0000
     20 C8         5.3676    8.5397   12.1063 C.3       1 RES1    0.0000
     21 C9         4.3304    7.5578   12.5888 C.3       1 RES1    0.0000
     22 H5         4.7865    6.7804   12.9455 H         1 RES1    0.0000
     23 H6         3.8361    7.9658   13.3165 H         1 RES1    0.0000
     24 C10        3.3550    7.0995   11.5533 C.2       1 RES1    0.0000
     25 C11        6.4209    8.6819   13.2050 C.3       1 RES1    0.0000
     26 H7         6.0195    9.0771   13.9830 H         1 RES1    0.0000
     27 H8         7.1346    9.2430   12.8928 H         1 RES1    0.0000
     28 H9         6.7685    7.8166   13.4287 H         1 RES1    0.0000
     29 C12        4.7516    9.8989   11.8021 C.3       1 RES1    0.0000
     30 H10        4.3350   10.2457   12.5950 H         1 RES1    0.0000
     31 H11        4.0932    9.8041   11.1085 H         1 RES1    0.0000
     32 H12        5.4379   10.5035   11.5117 H         1 RES1    0.0000
     33 C13        0.0646    5.0972    7.8642 C.ar      1 RES1    0.0000
     34 C14       -1.0902    5.5229    7.2474 C.ar      1 RES1    0.0000
     35 H13       -1.6872    6.0692    7.7050 H         1 RES1    0.0000
     36 C15       -1.3640    5.1347    5.9416 C.ar      1 RES1    0.0000
     37 H14       -2.1379    5.4379    5.5245 H         1 RES1    0.0000
     38 C16       -0.5028    4.3079    5.2613 C.ar      1 RES1    0.0000
     39 H15       -0.6867    4.0609    4.3839 H         1 RES1    0.0000
     40 C17        0.6146    3.8535    5.8752 C.ar      1 RES1    0.0000
     41 H16        1.1894    3.2786    5.4237 H         1 RES1    0.0000
     42 C18        0.9046    4.2377    7.1660 C.ar      1 RES1    0.0000
     43 H17        1.6749    3.9177    7.5767 H         1 RES1    0.0000
     44 C19        2.9854    6.5680    7.7501 C.ar      1 RES1    0.0000
     45 C20        2.1240    7.2664    6.9420 C.ar      1 RES1    0.0000
     46 H18        1.5039    7.8423    7.3294 H         1 RES1    0.0000
     47 C21        2.1569    7.1330    5.5671 C.ar      1 RES1    0.0000
     48 H19        1.5653    7.6042    5.0252 H         1 RES1    0.0000
     49 C22        3.0808    6.2904    5.0291 C.ar      1 RES1    0.0000
     50 C23        3.9692    5.5990    5.7943 C.ar      1 RES1    0.0000
     51 H20        4.6012    5.0448    5.3962 H         1 RES1    0.0000
     52 C24        3.9230    5.7303    7.1656 C.ar      1 RES1    0.0000
     53 H21        4.5198    5.2572    7.6981 H         1 RES1    0.0000
@<TRIPOS>BOND
     1    1   16 2
     2    2   10 2
     3    3   10 2
     4    4    5 1
     5    5   11 1
     6    6   11 2
     7    7    8 1
     8    9    7 1
     9   10   49 1
    10   11    7 1
    11   12    6 1
    12   13    5 1
    13   14   13 1
    14   15   14 2
    15   16   15 1
    16   17   16 1
    17   18   17 1
    18   19   17 1
    19   20   17 1
    20   21   20 1
    21   22   21 1
    22   23   21 1
    23   24    4 2
    24   25   20 1
    25   26   25 1
    26   27   25 1
    27   28   25 1
    28   29   20 1
    29   30   29 1
    30   31   29 1
    31   32   29 1
    32   33   12 1
    33   34   33 ar
    34   35   34 1
    35   36   34 ar
    36   37   36 1
    37   38   36 ar
    38   39   38 1
    39   40   38 ar
    40   41   40 1
    41   42   33 ar
    42   43   42 1
    43   44   14 1
    44   45   44 ar
    45   46   45 1
    46   47   45 ar
    47   48   47 1
    48   49   47 ar
    49   50   49 ar
    50   51   50 1
    51   52   44 ar
    52   53   52 1
    53   12   13 2
    54   15   24 1
    55   21   24 1
    56   40   42 ar
    57   50   52 ar
@<TRIPOS>SUBSTRUCTURE
     1 RES1 1

@<TRIPOS>CRYSIN
   9.2446    9.8782   23.1850  90.0000  98.9260  90.0000  14 1

