# MOL2 file generated by ConQuest
# Please check atom types

@<TRIPOS>MOLECULE
OZUVIP
    33    34     1
SMALL
NO_CHARGES
****
Generated from CSD

@<TRIPOS>ATOM
      1 O1         1.2407   10.6076    3.7708 O.2       1 RES1    0.0000
      2 N1         2.0775   10.1059    4.5764 N.pl3     1 RES1    0.0000
      3 C1         3.0405    9.0612    4.2075 C.3       1 RES1    0.0000
      4 N2         3.3427    9.9637    6.3951 N.2       1 RES1    0.0000
      5 C2         4.0073    9.7063    3.2229 C.3       1 RES1    0.0000
      6 H1         3.5613    9.8544    2.3870 H         1 RES1    0.0000
      7 H2         4.7599    9.1258    3.0867 H         1 RES1    0.0000
      8 H3         4.3107   10.5453    3.5774 H         1 RES1    0.0000
      9 N3         0.2701   13.4220    6.7555 N.2       1 RES1    0.0000
     10 C3         2.3225    7.9225    3.5248 C.3       1 RES1    0.0000
     11 H4         1.9927    8.2163    2.6734 H         1 RES1    0.0000
     12 H5         1.5875    7.6346    4.0712 H         1 RES1    0.0000
     13 H6         2.9312    7.1904    3.3979 H         1 RES1    0.0000
     14 N4         2.1711   12.5089    7.4047 N.pl3     1 RES1    0.0000
     15 C4         3.6442    8.7768    5.5883 C.3       1 RES1    0.0000
     16 C5         2.9701    7.6193    6.3066 C.3       1 RES1    0.0000
     17 H7         3.3854    7.4877    7.1626 H         1 RES1    0.0000
     18 H8         3.0593    6.8215    5.7818 H         1 RES1    0.0000
     19 H9         2.0391    7.8191    6.4304 H         1 RES1    0.0000
     20 C6         5.1267    8.5395    5.5743 C.3       1 RES1    0.0000
     21 H10        5.4320    8.3667    6.4675 H         1 RES1    0.0000
     22 H11        5.5721    9.3162    5.2291 H         1 RES1    0.0000
     23 H12        5.3240    7.7827    5.0171 H         1 RES1    0.0000
     24 C7         2.4022   10.6182    5.8251 C.2       1 RES1    0.0000
     25 C8         1.7213   11.7733    6.3313 C.2       1 RES1    0.0000
     26 C9         0.5547   12.3550    5.9784 C.2       1 RES1    0.0000
     27 H13        0.0126   12.0577    5.2849 H         1 RES1    0.0000
     28 C10        1.2683   13.4737    7.5929 C.2       1 RES1    0.0000
     29 H14        1.3443   14.1212    8.2570 H         1 RES1    0.0000
     30 C11        3.3923   12.3444    8.1889 C.3       1 RES1    0.0000
     31 H15        3.4205   13.0095    8.8809 H         1 RES1    0.0000
     32 H16        4.1562   12.4443    7.6177 H         1 RES1    0.0000
     33 H17        3.4023   11.4702    8.5868 H         1 RES1    0.0000
@<TRIPOS>BOND
     1    1    2 1
     2    2    3 1
     3    3    5 1
     4    4   15 1
     5    5    6 1
     6    7    5 1
     7    8    5 1
     8    9   26 1
     9   10    3 1
    10   11   10 1
    11   12   10 1
    12   13   10 1
    13   14   25 1
    14   15    3 1
    15   16   15 1
    16   17   16 1
    17   18   16 1
    18   19   16 1
    19   20   15 1
    20   21   20 1
    21   22   20 1
    22   23   20 1
    23   24    2 1
    24   25   24 1
    25   26   25 2
    26   27   26 1
    27   28    9 2
    28   29   28 1
    29   30   14 1
    30   31   30 1
    31   32   30 1
    32   33   30 1
    33    4   24 2
    34   14   28 1
@<TRIPOS>SUBSTRUCTURE
     1 RES1 1

@<TRIPOS>CRYSIN
   6.2820   11.7510   15.4800  90.0000  90.0000  90.0000  19 1

