# MOL2 file generated by ConQuest
# Please check atom types

@<TRIPOS>MOLECULE
PABDIF
    44    46     2
SMALL
USER_CHARGES
****
Generated from CSD

@<TRIPOS>ATOM
      1 O1        -1.2219    2.0650    8.3302 O.3       1 RES1    0.0000
      2 O2         5.3935   -0.8779   12.4353 O.2       1 RES1    0.0000
      3 O3         6.5324    0.5949   11.3535 O.2       1 RES1    0.0000
      4 N1        -0.3792    1.3462    9.2531 N.2       1 RES1    0.0000
      5 N2         0.7827    3.0447    8.2951 N.2       1 RES1    0.0000
      6 N3        -1.0930    3.8274    6.9384 N.2       1 RES1   -1.0000
      7 N4        -0.2627    4.8762    6.3389 N.4       1 RES1    1.0000
      8 N5         5.4772    0.0809   11.6835 N.pl3     1 RES1    0.0000
      9 C1         0.7538    1.9894    9.1641 C.2       1 RES1    0.0000
     10 C2        -0.4426    3.0773    7.7994 C.2       1 RES1    0.0000
     11 C3         1.9451    1.5537    9.9051 C.ar      1 RES1    0.0000
     12 C4         3.1647    2.1681    9.6599 C.ar      1 RES1    0.0000
     13 C5         4.3181    1.7167   10.2608 C.ar      1 RES1    0.0000
     14 C6         4.2293    0.6392   11.1136 C.ar      1 RES1    0.0000
     15 C7         3.0347    0.0535   11.4316 C.ar      1 RES1    0.0000
     16 C8         1.8864    0.5075   10.8186 C.ar      1 RES1    0.0000
     17 C9         0.8508    4.2866    5.4861 C.3       1 RES1    0.0000
     18 C10        0.3908    3.3200    4.4541 C.3       1 RES1    0.0000
     19 C11       -1.2650    5.6120    5.4767 C.3       1 RES1    0.0000
     20 C12       -0.7162    6.7638    4.6683 C.3       1 RES1    0.0000
     21 C13        0.3350    5.8168    7.3615 C.3       1 RES1    0.0000
     22 C14       -0.6393    6.3399    8.3329 C.3       1 RES1    0.0000
     23 O4         5.3710   -2.0011   -0.5510 O.3       2 RES2    0.0000
     24 O5        11.7354   -6.9973    1.9724 O.2       2 RES2    0.0000
     25 O6        12.7936   -5.3798    1.0926 O.2       2 RES2    0.0000
     26 N6         6.7862   -2.2177   -0.4284 N.2       2 RES2    0.0000
     27 N7         5.6602   -3.9422    0.5214 N.2       2 RES2    0.0000
     28 N8         3.4463   -3.0043    0.0552 N.2       2 RES2   -1.0000
     29 N9         2.8077   -4.1835    0.6629 N.4       2 RES2    1.0000
     30 N10       11.7646   -5.9107    1.4375 N.pl3     2 RES2    0.0000
     31 C15        6.8418   -3.3721    0.1913 C.2       2 RES2    0.0000
     32 C16        4.7595   -3.0786    0.0566 C.2       2 RES2    0.0000
     33 C17        8.1308   -3.9996    0.5335 C.ar      2 RES2    0.0000
     34 C18        9.3328   -3.4347    0.1644 C.ar      2 RES2    0.0000
     35 C19       10.5260   -4.0453    0.4769 C.ar      2 RES2    0.0000
     36 C20       10.4967   -5.2284    1.1519 C.ar      2 RES2    0.0000
     37 C21        9.3248   -5.8181    1.5480 C.ar      2 RES2    0.0000
     38 C22        8.1353   -5.1945    1.2395 C.ar      2 RES2    0.0000
     39 C23        3.0425   -5.4293   -0.1549 C.3       2 RES2    0.0000
     40 C24        2.6069   -5.3302   -1.5790 C.3       2 RES2    0.0000
     41 C25        1.3388   -3.7961    0.6494 C.3       2 RES2    0.0000
     42 C26        0.4188   -4.8227    1.2516 C.3       2 RES2    0.0000
     43 C27        3.2691   -4.4640    2.0815 C.3       2 RES2    0.0000
     44 C28        3.2521   -3.2717    2.9734 C.3       2 RES2    0.0000
@<TRIPOS>BOND
     1    1    4 1
     2    2    8 2
     3    3    8 2
     4    4    9 2
     5    5    9 1
     6    6    7 1
     7    7   17 1
     8    8   14 1
     9    9   11 1
    10   10    1 1
    11   11   12 ar
    12   12   13 ar
    13   13   14 ar
    14   14   15 ar
    15   15   16 ar
    16   16   11 ar
    17   17   18 1
    18   19    7 1
    19   20   19 1
    20   21    7 1
    21   22   21 1
    22   23   26 1
    23   24   30 2
    24   25   30 2
    25   26   31 2
    26   27   31 1
    27   28   29 1
    28   29   39 1
    29   30   36 1
    30   31   33 1
    31   32   23 1
    32   33   34 ar
    33   34   35 ar
    34   35   36 ar
    35   36   37 ar
    36   37   38 ar
    37   38   33 ar
    38   39   40 1
    39   41   29 1
    40   42   41 1
    41   43   29 1
    42   44   43 1
    43    5   10 2
    44    6   10 1
    45   27   32 2
    46   28   32 1
@<TRIPOS>SUBSTRUCTURE
     1 RES1 1
     2 RES2 23

@<TRIPOS>CRYSIN
  18.0720   13.0450   14.6460  90.0000 113.0900  90.0000  14 1

