# MOL2 file generated by ConQuest
# Please check atom types

@<TRIPOS>MOLECULE
PABHAB
    38    40     1
SMALL
NO_CHARGES
****
Generated from CSD

@<TRIPOS>ATOM
      1 C1         0.4577    5.3549    9.3359 C.ar      1 RES1    0.0000
      2 C2         1.2708    5.0491    8.2391 C.ar      1 RES1    0.0000
      3 C3         1.5467    3.7028    7.9961 C.ar      1 RES1    0.0000
      4 C4         1.0479    2.7405    8.8498 C.ar      1 RES1    0.0000
      5 C5         0.2404    3.1137    9.9040 C.ar      1 RES1    0.0000
      6 C6        -0.0956    4.4160   10.1991 C.ar      1 RES1    0.0000
      7 C7         1.0762    7.1868    8.2502 C.2       1 RES1    0.0000
      8 C8         1.2212    8.6357    7.9456 C.3       1 RES1    0.0000
      9 C9        -0.5781    7.4838   10.1107 C.ar      1 RES1    0.0000
     10 C10       -0.3157    7.7505   11.4426 C.ar      1 RES1    0.0000
     11 C11       -1.1701    8.4667   12.2601 C.ar      1 RES1    0.0000
     12 C12       -2.3056    8.9806   11.6699 C.ar      1 RES1    0.0000
     13 C13       -2.6281    8.7373   10.3474 C.ar      1 RES1    0.0000
     14 C14       -1.7770    7.9704    9.6042 C.ar      1 RES1    0.0000
     15 N1         0.3472    6.7433    9.3248 N.pl3     1 RES1    0.0000
     16 N2         1.6489    6.2127    7.5858 N.2       1 RES1    0.0000
     17 N3        -0.3186    2.0497   10.7435 N.pl3     1 RES1    0.0000
     18 N4         2.3142    3.2583    6.8425 N.pl3     1 RES1    0.0000
     19 N5         0.9567    7.2894   12.0265 N.pl3     1 RES1    0.0000
     20 N6        -3.1686    9.8863   12.4273 N.pl3     1 RES1    0.0000
     21 N7        -2.1910    7.6861    8.2044 N.pl3     1 RES1    0.0000
     22 O1        -1.2028    2.3468   11.5278 O.2       1 RES1    0.0000
     23 O2         0.1099    0.9184   10.5968 O.2       1 RES1    0.0000
     24 O3         2.4654    2.0527    6.6847 O.2       1 RES1    0.0000
     25 O4         2.7943    4.1014    6.0929 O.2       1 RES1    0.0000
     26 O5         0.8710    6.5068   12.9592 O.2       1 RES1    0.0000
     27 O6         1.9644    7.7330   11.5689 O.2       1 RES1    0.0000
     28 O7        -2.9091   10.0670   13.6125 O.2       1 RES1    0.0000
     29 O8        -4.0860   10.4324   11.8308 O.2       1 RES1    0.0000
     30 O9        -2.9561    8.4667    7.6852 O.2       1 RES1    0.0000
     31 O10       -1.8019    6.6856    7.6852 O.2       1 RES1    0.0000
     32 H1         1.2642    1.8153    8.7126 H         1 RES1    0.0000
     33 H2        -0.6579    4.6554   10.9408 H         1 RES1    0.0000
     34 H3         0.7032    9.1467    8.5721 H         1 RES1    0.0000
     35 H4         0.9122    8.8135    7.0540 H         1 RES1    0.0000
     36 H5         2.1462    8.8829    8.0182 H         1 RES1    0.0000
     37 H6        -0.9856    8.5956   13.1927 H         1 RES1    0.0000
     38 H7        -3.4279    9.1008    9.9608 H         1 RES1    0.0000
@<TRIPOS>BOND
     1    1    2 ar
     2    2    3 ar
     3    3    4 ar
     4    4    5 ar
     5    5    6 ar
     6    6    1 ar
     7    7    8 1
     8    8   34 1
     9    9   10 ar
    10   10   11 ar
    11   11   12 ar
    12   12   13 ar
    13   13   14 ar
    14   14    9 ar
    15   15    1 1
    16   16    2 1
    17   17    5 1
    18   18    3 1
    19   19   10 1
    20   20   12 1
    21   21   14 1
    22   22   17 2
    23   23   17 2
    24   24   18 2
    25   25   18 2
    26   26   19 2
    27   27   19 2
    28   28   20 2
    29   29   20 2
    30   30   21 2
    31   31   21 2
    32   32    4 1
    33   33    6 1
    34   35    8 1
    35   36    8 1
    36   37   11 1
    37   38   13 1
    38    7   15 1
    39    7   16 2
    40    9   15 1
@<TRIPOS>SUBSTRUCTURE
     1 RES1 1

@<TRIPOS>CRYSIN
  11.2610    9.7700   16.4200  90.0000 106.0400  90.0000  14 1

