# MOL2 file generated by ConQuest
# Please check atom types

@<TRIPOS>MOLECULE
PABHAB01
    38    40     1
SMALL
NO_CHARGES
****
Generated from CSD

@<TRIPOS>ATOM
      1 C1         0.7119    9.3114    2.7333 C.ar      1 RES1    0.0000
      2 C2        -0.0796    8.1741    2.9401 C.ar      1 RES1    0.0000
      3 C3         0.2597    7.0239    2.2132 C.ar      1 RES1    0.0000
      4 C4         1.2919    7.0534    1.3082 C.ar      1 RES1    0.0000
      5 C5         2.0007    8.2272    1.1209 C.ar      1 RES1    0.0000
      6 C6         1.7476    9.3845    1.8270 C.ar      1 RES1    0.0000
      7 C7        -0.9288    9.6960    4.1793 C.2       1 RES1    0.0000
      8 C8        -1.8009   10.4427    5.1130 C.3       1 RES1    0.0000
      9 C9         0.7018   11.5634    3.8035 C.ar      1 RES1    0.0000
     10 C10        1.6393   11.7793    4.8256 C.ar      1 RES1    0.0000
     11 C11        2.2331   13.0038    5.0116 C.ar      1 RES1    0.0000
     12 C12        1.8611   14.0396    4.1975 C.ar      1 RES1    0.0000
     13 C13        0.9112   13.9134    3.2288 C.ar      1 RES1    0.0000
     14 C14        0.3570   12.6688    3.0363 C.ar      1 RES1    0.0000
     15 N1         0.1465   10.2775    3.5539 N.pl3     1 RES1    0.0000
     16 N2        -1.0918    8.4419    3.8386 N.2       1 RES1    0.0000
     17 N3         3.0572    8.2485    0.1053 N.pl3     1 RES1    0.0000
     18 N4        -0.4722    5.7758    2.3718 N.pl3     1 RES1    0.0000
     19 N5         2.0499   10.6928    5.7424 N.pl3     1 RES1    0.0000
     20 N6         2.5348   15.3373    4.3497 N.pl3     1 RES1    0.0000
     21 N7        -0.6235   12.5626    1.9466 N.pl3     1 RES1    0.0000
     22 O1         3.8153    9.1969    0.0910 O.2       1 RES1    0.0000
     23 O2         3.1163    7.3047   -0.6697 O.2       1 RES1    0.0000
     24 O3        -0.1845    4.8344    1.6801 O.2       1 RES1    0.0000
     25 O4        -1.3559    5.7357    3.1599 O.2       1 RES1    0.0000
     26 O5         1.4405    9.6676    5.7762 O.2       1 RES1    0.0000
     27 O6         3.0359   10.8981    6.4068 O.2       1 RES1    0.0000
     28 O7         3.5866   15.3644    4.9452 O.2       1 RES1    0.0000
     29 O8         2.0115   16.3082    3.8516 O.2       1 RES1    0.0000
     30 O9        -1.2175   13.5253    1.6293 O.2       1 RES1    0.0000
     31 O10       -0.7345   11.5339    1.3849 O.2       1 RES1    0.0000
     32 H1         1.5209    6.2654    0.8088 H         1 RES1    0.0000
     33 H2         2.2575   10.1867    1.6944 H         1 RES1    0.0000
     34 H3        -1.4784   11.3416    5.2040 H         1 RES1    0.0000
     35 H4        -1.7949   10.0133    5.9725 H         1 RES1    0.0000
     36 H5        -2.6968   10.4580    4.7697 H         1 RES1    0.0000
     37 H6         2.8942   13.1301    5.6955 H         1 RES1    0.0000
     38 H7         0.6386   14.6660    2.6982 H         1 RES1    0.0000
@<TRIPOS>BOND
     1    1    2 ar
     2    2    3 ar
     3    3    4 ar
     4    4    5 ar
     5    5    6 ar
     6    6    1 ar
     7    7    8 1
     8    8   34 1
     9    9   10 ar
    10   10   11 ar
    11   11   12 ar
    12   12   13 ar
    13   13   14 ar
    14   14    9 ar
    15   15    1 1
    16   16    2 1
    17   17    5 1
    18   18    3 1
    19   19   10 1
    20   20   12 1
    21   21   14 1
    22   22   17 2
    23   23   17 2
    24   24   18 2
    25   25   18 2
    26   26   19 2
    27   27   19 2
    28   28   20 2
    29   29   20 2
    30   30   21 2
    31   31   21 2
    32   32    4 1
    33   33    6 1
    34   35    8 1
    35   36    8 1
    36   37   11 1
    37   38   13 1
    38    7   15 1
    39    7   16 2
    40    9   15 1
@<TRIPOS>SUBSTRUCTURE
     1 RES1 1

@<TRIPOS>CRYSIN
  10.9630   11.7970   13.2380  90.0000 100.8000  90.0000  14 2

