# MOL2 file generated by ConQuest
# Please check atom types

@<TRIPOS>MOLECULE
PABHUV
    46    48     1
SMALL
NO_CHARGES
****
Generated from CSD

@<TRIPOS>ATOM
      1 O1         2.4269  -21.3815    1.1671 O.2       1 RES1    0.0000
      2 O2         4.1939  -20.1924    0.9340 O.2       1 RES1    0.0000
      3 O3        -0.8993  -19.3226   -0.2676 O.3       1 RES1    0.0000
      4 O4         0.4036  -17.7942    0.7162 O.2       1 RES1    0.0000
      5 O5        -2.8976  -17.6029   -0.4179 O.3       1 RES1    0.0000
      6 O6        -4.9117  -16.6718   -0.6437 O.2       1 RES1    0.0000
      7 N1         3.1040  -20.5893    0.5337 N.pl3     1 RES1    0.0000
      8 C1         2.6202  -20.1166   -0.7595 C.ar      1 RES1    0.0000
      9 C2         3.5655  -19.7376   -1.6891 C.ar      1 RES1    0.0000
     10 C3         3.1776  -19.3713   -2.9412 C.ar      1 RES1    0.0000
     11 C4         1.8472  -19.3767   -3.2674 C.ar      1 RES1    0.0000
     12 C5         0.8993  -19.7268   -2.3210 C.ar      1 RES1    0.0000
     13 C6         1.2463  -20.0949   -1.0351 C.ar      1 RES1    0.0000
     14 C7         0.1354  -20.3331   -0.0271 C.3       1 RES1    0.0000
     15 C8        -0.5640  -21.6720   -0.2163 C.3       1 RES1    0.0000
     16 C9        -0.5824  -18.0847    0.0990 C.2       1 RES1    0.0000
     17 C10       -1.5395  -17.0615   -0.4399 C.3       1 RES1    0.0000
     18 C11       -3.7206  -16.5382   -0.5718 C.2       1 RES1    0.0000
     19 C12       -2.8674  -15.2949   -0.6723 C.3       1 RES1    0.0000
     20 C13       -3.5983  -14.0029   -0.4105 C.3       1 RES1    0.0000
     21 C14       -2.2284  -15.4772   -2.0835 C.3       1 RES1    0.0000
     22 C15       -1.2950  -16.6790   -1.9156 C.3       1 RES1    0.0000
     23 C16       -1.7065  -15.7046    0.2720 C.3       1 RES1    0.0000
     24 C17       -0.4917  -14.7825    0.2023 C.3       1 RES1    0.0000
     25 C18       -2.1390  -15.8507    1.7352 C.3       1 RES1    0.0000
     26 H1         4.4963  -19.7322   -1.4537 H         1 RES1    0.0000
     27 H2         3.8337  -19.1097   -3.5922 H         1 RES1    0.0000
     28 H3         1.5724  -19.1367   -4.1559 H         1 RES1    0.0000
     29 H4        -0.0289  -19.7124   -2.5659 H         1 RES1    0.0000
     30 H5         0.5430  -20.1815    0.9567 H         1 RES1    0.0000
     31 H6         0.0473  -22.3993   -0.0689 H         1 RES1    0.0000
     32 H7        -0.8835  -21.7009   -1.1209 H         1 RES1    0.0000
     33 H8        -1.3055  -21.7496    0.3878 H         1 RES1    0.0000
     34 H9        -2.9318  -13.3353   -0.5799 H         1 RES1    0.0000
     35 H10       -3.9612  -13.8784    0.4699 H         1 RES1    0.0000
     36 H11       -4.3004  -13.9271   -1.0601 H         1 RES1    0.0000
     37 H12       -1.7328  -14.6940   -2.3371 H         1 RES1    0.0000
     38 H13       -2.9015  -15.6558   -2.7425 H         1 RES1    0.0000
     39 H14       -1.5369  -17.3936   -2.5072 H         1 RES1    0.0000
     40 H15       -0.3786  -16.4336   -2.0666 H         1 RES1    0.0000
     41 H16       -0.2708  -14.6453   -0.7214 H         1 RES1    0.0000
     42 H17        0.2603  -15.1686    0.6583 H         1 RES1    0.0000
     43 H18       -0.7139  -13.9416    0.6070 H         1 RES1    0.0000
     44 H19       -2.8950  -16.4408    1.7829 H         1 RES1    0.0000
     45 H20       -2.3875  -14.9846    2.0695 H         1 RES1    0.0000
     46 H21       -1.4225  -16.2044    2.2660 H         1 RES1    0.0000
@<TRIPOS>BOND
     1    1    7 2
     2    2    7 2
     3    3   14 1
     4    4   16 2
     5    5   17 1
     6    6   18 2
     7    7    8 1
     8    8    9 ar
     9    9   10 ar
    10   10   11 ar
    11   11   12 ar
    12   12   13 ar
    13   13    8 ar
    14   14   13 1
    15   15   14 1
    16   16    3 1
    17   17   16 1
    18   18    5 1
    19   19   18 1
    20   20   19 1
    21   21   19 1
    22   22   17 1
    23   23   17 1
    24   24   23 1
    25   25   23 1
    26   26    9 1
    27   27   10 1
    28   28   11 1
    29   29   12 1
    30   30   14 1
    31   31   15 1
    32   32   15 1
    33   33   15 1
    34   34   20 1
    35   35   20 1
    36   36   20 1
    37   37   21 1
    38   38   21 1
    39   39   22 1
    40   40   22 1
    41   41   24 1
    42   42   24 1
    43   43   24 1
    44   44   25 1
    45   45   25 1
    46   46   25 1
    47   19   23 1
    48   21   22 1
@<TRIPOS>SUBSTRUCTURE
     1 RES1 1

@<TRIPOS>CRYSIN
  13.1470   18.0450    7.3310  90.0000  90.0000  90.0000  19 1

