# MOL2 file generated by ConQuest
# Please check atom types

@<TRIPOS>MOLECULE
PABMAI
    91    64     2
SMALL
NO_CHARGES
****
Generated from CSD

@<TRIPOS>ATOM
      1 C1         0.3178    6.2635    7.7923 C.ar      1 RES1    0.0000
      2 C2        -0.7005    5.8127    6.9139 C.ar      1 RES1    0.0000
      3 H1        -0.4748    5.2992    6.1483 H         1 RES1    0.0000
      4 C3        -1.9987    6.1148    7.1695 C.ar      1 RES1    0.0000
      5 H2        -2.6714    5.7921    6.5818 H         1 RES1    0.0000
      6 C4        -2.3768    6.8883    8.2736 C.ar      1 RES1    0.0000
      7 C5        -3.7330    7.1801    8.5855 C.ar      1 RES1    0.0000
      8 H3        -4.4174    6.8565    8.0098 H         1 RES1    0.0000
      9 C6        -4.0806    7.9059    9.6788 C.ar      1 RES1    0.0000
     10 H4        -4.9935    8.0847    9.8740 H         1 RES1    0.0000
     11 C7        -3.0497    8.3900   10.5194 C.ar      1 RES1    0.0000
     12 H5        -3.2817    8.9179   11.2754 H         1 RES1    0.0000
     13 C8        -1.7400    8.1237   10.2827 C.ar      1 RES1    0.0000
     14 H6        -1.0715    8.4409   10.8792 H         1 RES1    0.0000
     15 C9        -1.3776    7.3717    9.1395 C.ar      1 RES1    0.0000
     16 C10       -0.0157    7.0346    8.8589 C.ar      1 RES1    0.0000
     17 H7         0.6702    7.3581    9.4299 H         1 RES1    0.0000
     18 C11        1.8398    5.8946    7.6947 C.3       1 RES1    0.0000
     19 H8         1.9473    5.0138    7.2546 H         1 RES1    0.0000
     20 H9         2.2339    5.8414    8.6002 H         1 RES1    0.0000
     21 C12        2.5717    7.0115    6.8530 C.3       1 RES1    0.0000
     22 H10        1.9465    7.3748    6.1775 H         1 RES1    0.0000
     23 H11        2.8432    7.7493    7.4514 H         1 RES1    0.0000
     24 C13        3.7949    6.4408    6.1587 C.2       1 RES1    0.0000
     25 C14        5.6481    5.9845    5.1090 C.2       1 RES1    0.0000
     26 C15        4.4205    6.6880    4.9846 C.2       1 RES1    0.0000
     27 C16        6.7154    5.7412    4.0943 C.2       1 RES1    0.0000
     28 C17        3.9765    7.5434    3.8794 C.2       1 RES1    0.0000
     29 C18        4.9933    8.3709    3.1459 C.3       1 RES1    0.0000
     30 H12        4.7144    9.3106    3.1513 H         1 RES1    0.0000
     31 H13        5.0640    8.0569    2.2205 H         1 RES1    0.0000
     32 H14        5.8641    8.2859    3.5874 H         1 RES1    0.0000
     33 C19        1.0373    8.4894    2.2511 C.ar      1 RES1    0.0000
     34 C20        0.0170    7.7954    2.9412 C.ar      1 RES1    0.0000
     35 H15        0.2501    7.2397    3.6751 H         1 RES1    0.0000
     36 C21       -1.2948    7.9059    2.5750 C.ar      1 RES1    0.0000
     37 H16       -1.9684    7.4384    3.0555 H         1 RES1    0.0000
     38 C22       -1.6374    8.7112    1.4908 C.ar      1 RES1    0.0000
     39 C23       -0.6999    9.4115    0.7991 C.ar      1 RES1    0.0000
     40 H17       -0.9570    9.9640    0.0691 H         1 RES1    0.0000
     41 C24        0.6368    9.3145    1.1645 C.ar      1 RES1    0.0000
     42 N1         5.7587    5.3636    6.2480 N.2       1 RES1    0.0000
     43 N2         2.7099    7.5537    3.6395 N.2       1 RES1    0.0000
     44 N3         2.3263    8.3725    2.6066 N.pl3     1 RES1    0.0000
     45 H18        2.9382    8.8304    2.1700 H         1 RES1    0.0000
     46 N4         1.5723   10.0880    0.3962 N.pl3     1 RES1    0.0000
     47 N5        -3.0405    8.8018    1.0682 N.pl3     1 RES1    0.0000
     48 O1         4.5686    5.6506    6.9291 O.3       1 RES1    0.0000
     49 O2         7.8860    5.7245    4.3347 O.2       1 RES1    0.0000
     50 O3         6.1729    5.5441    2.9196 O.3       1 RES1    0.0000
     51 O4         2.7839    9.9338    0.5861 O.2       1 RES1    0.0000
     52 O5         1.1545   10.8719   -0.4375 O.2       1 RES1    0.0000
     53 O6        -3.2860    9.3106   -0.0301 O.2       1 RES1    0.0000
     54 O7        -3.8854    8.3789    1.8288 O.2       1 RES1    0.0000
     55 C25        6.8967    5.2523    1.6754 C.3       1 RES1    0.0000
     56 H19        6.5177    5.7825    0.9308 H         1 RES1    0.0000
     57 H20        7.8514    5.4916    1.7764 H         1 RES1    0.0000
     58 C26        6.7647    3.8373    1.3961 C.3       1 RES1    0.0000
     59 H21        7.4453    3.5686    0.7446 H         1 RES1    0.0000
     60 H22        5.8734    3.6584    1.0291 H         1 RES1    0.0000
     61 H23        6.8855    3.3277    2.2258 H         1 RES1    0.0000
     62 C27        0.4197    6.4320    7.9353 Du        2 SUP2    0.0000
     63 C28        1.5457    5.8127    7.0126 Du        2 SUP2    0.0000
     64 C29        2.4161    6.7095    6.5871 Du        2 SUP2    0.0000
     65 C30        0.6562    7.1419    9.1419 Du        2 SUP2    0.0000
     66 C31        7.2425    5.2332    1.9626 Du        2 SUP2    0.0000
     67 C32        7.3932    3.8007    1.8163 Du        2 SUP2    0.0000
     68 C33       -0.3850    7.6563    9.8421 Du        2 SUP2    0.0000
     69 C34       -1.7118    7.4917    9.4267 Du        2 SUP2    0.0000
     70 C35       -2.8153    8.0593   10.1213 Du        2 SUP2    0.0000
     71 C36       -4.0917    7.9130    9.6852 Du        2 SUP2    0.0000
     72 C37       -4.3150    7.1610    8.5044 Du        2 SUP2    0.0000
     73 C38       -3.2998    6.6149    7.7891 Du        2 SUP2    0.0000
     74 C39       -1.9684    6.7627    8.2489 Du        2 SUP2    0.0000
     75 C40       -0.8572    6.2357    7.5189 Du        2 SUP2    0.0000
     76 H24        2.0286    5.1124    7.5178 Du        2 SUP2    0.0000
     77 H25        1.1190    5.3811    6.2281 Du        2 SUP2    0.0000
     78 H26        2.4782    7.3836    7.3104 Du        2 SUP2    0.0000
     79 H27        1.9756    7.1682    5.8265 Du        2 SUP2    0.0000
     80 H28        1.5444    7.2572    9.4591 Du        2 SUP2    0.0000
     81 H29        7.0297    5.6363    1.0850 Du        2 SUP2    0.0000
     82 H30        8.0951    5.6243    2.2817 Du        2 SUP2    0.0000
     83 H31        7.8050    3.6028    0.9494 Du        2 SUP2    0.0000
     84 H32        6.5127    3.3730    1.8642 Du        2 SUP2    0.0000
     85 H33        7.9628    3.4557    2.5343 Du        2 SUP2    0.0000
     86 H34       -0.2094    8.1436   10.6398 Du        2 SUP2    0.0000
     87 H35       -2.6537    8.5554   10.9164 Du        2 SUP2    0.0000
     88 H36       -4.8157    8.3057   10.1585 Du        2 SUP2    0.0000
     89 H37       -5.2082    7.0338    8.2039 Du        2 SUP2    0.0000
     90 H38       -3.4799    6.1379    6.9886 Du        2 SUP2    0.0000
     91 H39       -1.0154    5.7380    6.7254 Du        2 SUP2    0.0000
@<TRIPOS>BOND
     1    1    2 ar
     2    2    3 1
     3    4    2 ar
     4    5    4 1
     5    6    4 ar
     6    7    6 ar
     7    8    7 1
     8    9    7 ar
     9   10    9 1
    10   11    9 ar
    11   12   11 1
    12   13   11 ar
    13   14   13 1
    14   15    6 ar
    15   16    1 ar
    16   17   16 1
    17   18    1 1
    18   19   18 1
    19   20   18 1
    20   21   18 1
    21   22   21 1
    22   23   21 1
    23   24   21 1
    24   25   26 1
    25   26   24 2
    26   27   25 1
    27   28   26 1
    28   29   28 1
    29   30   29 1
    30   31   29 1
    31   32   29 1
    32   33   34 ar
    33   34   35 1
    34   36   34 ar
    35   37   36 1
    36   38   36 ar
    37   39   38 ar
    38   40   39 1
    39   41   33 ar
    40   42   25 2
    41   43   28 2
    42   44   33 1
    43   45   44 1
    44   46   41 1
    45   47   38 1
    46   48   24 1
    47   49   27 2
    48   50   27 1
    49   51   46 2
    50   52   46 2
    51   53   47 2
    52   54   47 2
    53   55   50 1
    54   56   55 1
    55   57   55 1
    56   58   55 1
    57   59   58 1
    58   60   58 1
    59   61   58 1
    60   13   15 ar
    61   15   16 ar
    62   39   41 ar
    63   42   48 1
    64   43   44 1
@<TRIPOS>SUBSTRUCTURE
     1 RES1 1
     2 SUP2 62

@<TRIPOS>CRYSIN
  11.8462    7.9496   26.6840  90.0000  94.7340  90.0000  14 1

