# MOL2 file generated by ConQuest
# Please check atom types

@<TRIPOS>MOLECULE
PABPIR
    38    39     1
SMALL
NO_CHARGES
****
Generated from CSD

@<TRIPOS>ATOM
      1 O1         0.1848   -0.8618    1.0943 O.2       1 RES1    0.0000
      2 O2        -0.0677   -2.6092    2.2190 O.2       1 RES1    0.0000
      3 N1         0.8655    0.3703    3.7636 N.ar      1 RES1    0.0000
      4 N2         4.5956    1.1742    5.5510 N.3       1 RES1    0.0000
      5 N3         4.4056    4.6426    8.2455 N.3       1 RES1    0.0000
      6 N4         0.5531   -1.6538    1.9071 N.pl3     1 RES1    0.0000
      7 C1         1.0438    1.3310    4.6539 C.ar      1 RES1    0.0000
      8 C2         2.2581    1.6222    5.2660 C.ar      1 RES1    0.0000
      9 C3         3.4086    0.9080    4.9793 C.ar      1 RES1    0.0000
     10 C4         3.2590   -0.1766    4.0486 C.ar      1 RES1    0.0000
     11 H1         5.2841    0.6194    5.3790 H         1 RES1    0.0000
     12 H2         0.2473    1.9240    4.9068 H         1 RES1    0.0000
     13 H3         2.1475    2.2798    5.8848 H         1 RES1    0.0000
     14 H4         5.1149   -0.9093    3.9288 H         1 RES1    0.0000
     15 H5         4.8936   -2.6092    2.6979 H         1 RES1    0.0000
     16 H6         2.6681   -3.0573    1.5344 H         1 RES1    0.0000
     17 H7         3.9956    2.1348    7.1664 H         1 RES1    0.0000
     18 H8         5.6615    1.8449    7.1326 H         1 RES1    0.0000
     19 H9         5.7266    3.5317    5.4464 H         1 RES1    0.0000
     20 C5         4.3002   -1.0542    3.6945 C.ar      1 RES1    0.0000
     21 C6         4.1062   -2.0663    2.7940 C.ar      1 RES1    0.0000
     22 C7         2.8750   -2.2758    2.2174 C.ar      1 RES1    0.0000
     23 C8         1.8650   -1.4245    2.5428 C.ar      1 RES1    0.0000
     24 C9         1.9718   -0.3663    3.4567 C.ar      1 RES1    0.0000
     25 C10        4.8129    2.1731    6.5644 C.3       1 RES1    0.0000
     26 C11        4.9197    3.5897    6.0366 C.3       1 RES1    0.0000
     27 C12        5.3062    4.6110    7.1073 C.3       1 RES1    0.0000
     28 C13        4.9808    5.5176    9.2724 C.3       1 RES1    0.0000
     29 C14        3.0598    5.0841    7.8998 C.3       1 RES1    0.0000
     30 H10        4.1127    3.8084    5.5307 H         1 RES1    0.0000
     31 H11        6.1951    4.2829    7.5542 H         1 RES1    0.0000
     32 H12        5.3622    5.5611    6.6436 H         1 RES1    0.0000
     33 H13        4.5422    5.4293   10.0835 H         1 RES1    0.0000
     34 H14        4.8156    6.6549    8.8694 H         1 RES1    0.0000
     35 H15        6.0390    5.1526    9.4596 H         1 RES1    0.0000
     36 H16        2.5640    4.8759    8.8357 H         1 RES1    0.0000
     37 H17        2.7592    4.2960    7.1664 H         1 RES1    0.0000
     38 H18        3.0065    5.9960    7.6722 H         1 RES1    0.0000
@<TRIPOS>BOND
     1    1    6 2
     2    2    6 2
     3    3    7 ar
     4    4    9 1
     5    5   27 1
     6    6   23 1
     7    7    8 ar
     8    8    9 ar
     9    9   10 ar
    10   10   20 ar
    11   11    4 1
    12   12    7 1
    13   13    8 1
    14   14   20 1
    15   15   21 1
    16   16   22 1
    17   17   25 1
    18   18   25 1
    19   19   26 1
    20   20   21 ar
    21   21   22 ar
    22   22   23 ar
    23   23   24 ar
    24   24    3 ar
    25   25    4 1
    26   26   25 1
    27   27   26 1
    28   28    5 1
    29   29    5 1
    30   30   26 1
    31   31   27 1
    32   32   27 1
    33   33   28 1
    34   34   28 1
    35   35   28 1
    36   36   29 1
    37   37   29 1
    38   38   29 1
    39   10   24 ar
@<TRIPOS>SUBSTRUCTURE
     1 RES1 1

@<TRIPOS>CRYSIN
  13.0150   13.1780   16.8620  90.0000  90.0000  90.0000  61 1

