# MOL2 file generated by ConQuest
# Please check atom types

@<TRIPOS>MOLECULE
PABPOX
    41    42     1
SMALL
NO_CHARGES
****
Generated from CSD

@<TRIPOS>ATOM
      1 O1        12.9401   11.4059   -0.1349 O.2       1 RES1    0.0000
      2 O2        11.7317   13.1762   -0.0144 O.2       1 RES1    0.0000
      3 N1        10.1330    9.9973    2.6965 N.ar      1 RES1    0.0000
      4 N2         9.2315   11.6395   -1.0538 N.3       1 RES1    0.0000
      5 N3         6.9400   12.1359   -2.7145 N.3       1 RES1    0.0000
      6 N4        11.9006   11.9818    0.1448 N.pl3     1 RES1    0.0000
      7 C1        11.0703   10.6415    2.0257 C.ar      1 RES1    0.0000
      8 C2        10.8092   11.1988    0.7580 C.ar      1 RES1    0.0000
      9 C3         9.5753   11.1522    0.1385 C.ar      1 RES1    0.0000
     10 C4         8.5459   10.4498    0.8982 C.ar      1 RES1    0.0000
     11 C5         7.2175   10.3172    0.4307 C.ar      1 RES1    0.0000
     12 H1         8.3691   11.6109   -1.3757 H         1 RES1    0.0000
     13 H2         7.0499   10.4999   -0.3327 H         1 RES1    0.0000
     14 H3         5.4536    9.5145    0.8901 H         1 RES1    0.0000
     15 H4         6.0087    8.6544    2.8862 H         1 RES1    0.0000
     16 H5         8.2005    8.9411    3.7584 H         1 RES1    0.0000
     17 H6        10.9898   11.5392   -2.0860 H         1 RES1    0.0000
     18 H7        10.2567   12.9905   -2.0141 H         1 RES1    0.0000
     19 H8         9.0807   10.8225   -3.6415 H         1 RES1    0.0000
     20 H9         9.8355   12.0767   -4.1720 H         1 RES1    0.0000
     21 H10        8.0639   13.6356   -3.2908 H         1 RES1    0.0000
     22 C6         6.2805    9.6524    1.1653 C.ar      1 RES1    0.0000
     23 C7         6.6206    9.1167    2.3980 C.ar      1 RES1    0.0000
     24 C8         7.8818    9.2367    2.8799 C.ar      1 RES1    0.0000
     25 C9         8.8956    9.9122    2.1426 C.ar      1 RES1    0.0000
     26 C10       10.0535   12.1197   -2.1840 C.3       1 RES1    0.0000
     27 C11        9.3178   11.9047   -3.4554 C.3       1 RES1    0.0000
     28 C12        7.9879   12.7039   -3.5795 C.3       1 RES1    0.0000
     29 C13        6.4195   10.9121   -3.2549 C.3       1 RES1    0.0000
     30 C14        5.8350   13.1429   -2.6138 C.3       1 RES1    0.0000
     31 C15       12.3677   10.8028    2.7136 C.3       1 RES1    0.0000
     32 H11        7.8487   12.4888   -4.4417 H         1 RES1    0.0000
     33 H12        6.0194   10.9300   -4.2439 H         1 RES1    0.0000
     34 H13        5.7299   10.4999   -2.6255 H         1 RES1    0.0000
     35 H14        7.1239   10.1058   -3.2369 H         1 RES1    0.0000
     36 H15        6.2339   14.0477   -2.2478 H         1 RES1    0.0000
     37 H16        5.1207   12.6143   -2.1489 H         1 RES1    0.0000
     38 H17        5.4989   13.3310   -3.5426 H         1 RES1    0.0000
     39 H18       12.3694   10.0878    3.6505 H         1 RES1    0.0000
     40 H19       12.7019   11.5034    2.6524 H         1 RES1    0.0000
     41 H20       13.0561   10.1774    2.3108 H         1 RES1    0.0000
@<TRIPOS>BOND
     1    1    6 2
     2    2    6 2
     3    3    7 ar
     4    4    9 1
     5    5   28 1
     6    6    8 1
     7    7    8 ar
     8    8    9 ar
     9    9   10 ar
    10   10   11 ar
    11   11   13 1
    12   12    4 1
    13   14   22 1
    14   15   23 1
    15   16   24 1
    16   17   26 1
    17   18   26 1
    18   19   27 1
    19   20   27 1
    20   21   28 1
    21   22   11 ar
    22   23   22 ar
    23   24   23 ar
    24   25    3 ar
    25   26    4 1
    26   27   26 1
    27   28   27 1
    28   29    5 1
    29   30    5 1
    30   31    7 1
    31   32   28 1
    32   33   29 1
    33   34   29 1
    34   35   29 1
    35   36   30 1
    36   37   30 1
    37   38   30 1
    38   39   31 1
    39   40   31 1
    40   41   31 1
    41   10   25 ar
    42   24   25 ar
@<TRIPOS>SUBSTRUCTURE
     1 RES1 1

@<TRIPOS>CRYSIN
   9.4580   17.9180    9.0120  90.0000  93.8800  90.0000  14 1

