# MOL2 file generated by ConQuest
# Please check atom types

@<TRIPOS>MOLECULE
PABROA
    37    31     2
SMALL
NO_CHARGES
****
Generated from CSD

@<TRIPOS>ATOM
      1 O1         0.8943    9.4546    8.4404 O.2       1 RES1    0.0000
      2 O2         5.1056    9.6927   10.5155 O.3       1 RES1    0.0000
      3 H1         5.3002    9.9853    9.5197 H         1 RES1    0.0000
      4 O3         4.9733   10.1320    8.1181 O.2       1 RES1    0.0000
      5 O4         3.3761    7.5222    7.2726 O.2       1 RES1    0.0000
      6 O5         2.3037    7.0085    5.5119 O.2       1 RES1    0.0000
      7 N1         2.7919    7.8240    6.2629 N.pl3     1 RES1    0.0000
      8 C1         1.6004    9.4560    9.4282 C.2       1 RES1    0.0000
      9 C2         0.9903    9.2499   10.7870 C.3       1 RES1    0.0000
     10 H2         0.7772    8.3083   10.8855 H         1 RES1    0.0000
     11 H3         0.1555    9.7420   10.8248 H         1 RES1    0.0000
     12 H4         0.6331   10.0985   11.0904 Du        2 SUP2    0.0000
     13 H5         0.2430    8.6390   10.6915 Du        2 SUP2    0.0000
     14 C3         1.8437    9.6692   11.9588 C.3       1 RES1    0.0000
     15 H6         1.7993   10.6344   12.0454 H         1 RES1    0.0000
     16 H7         1.4701    9.2858   12.7676 H         1 RES1    0.0000
     17 C4         1.8284    8.7597   11.7808 Du        2 SUP2    0.0000
     18 H8         1.8787    7.7972   11.6753 Du        2 SUP2    0.0000
     19 H9         1.4018    8.9303   12.6353 Du        2 SUP2    0.0000
     20 C5         3.2256    9.2801   11.8623 C.3       1 RES1    0.0000
     21 H10        3.2999    8.3318   12.0533 H         1 RES1    0.0000
     22 H11        3.7356    9.7582   12.5338 H         1 RES1    0.0000
     23 H12        3.2235   10.0995   12.3796 Du        2 SUP2    0.0000
     24 H13        3.7803    8.6357   12.3289 Du        2 SUP2    0.0000
     25 C6         3.8132    9.5502   10.5254 C.2       1 RES1    0.0000
     26 C7         3.0445    9.6582    9.3705 C.2       1 RES1    0.0000
     27 C8         3.7369    9.9527    8.1370 C.2       1 RES1    0.0000
     28 C9         3.0446   10.2031    6.8240 C.ar      1 RES1    0.0000
     29 C10        2.8867   11.5191    6.4360 C.ar      1 RES1    0.0000
     30 H14        3.1415   12.2009    7.0149 H         1 RES1    0.0000
     31 C11        2.3573   11.8356    5.2005 C.ar      1 RES1    0.0000
     32 H15        2.2496   12.7283    4.9638 H         1 RES1    0.0000
     33 C12        1.9901   10.8566    4.3222 C.ar      1 RES1    0.0000
     34 H16        1.6427   11.0811    3.4886 H         1 RES1    0.0000
     35 C13        2.1361    9.5448    4.6763 C.ar      1 RES1    0.0000
     36 H17        1.8859    8.8698    4.0884 H         1 RES1    0.0000
     37 C14        2.6582    9.2322    5.9138 C.ar      1 RES1    0.0000
@<TRIPOS>BOND
     1    1    8 2
     2    2    3 1
     3    4   27 2
     4    5    7 2
     5    6    7 2
     6    7   37 1
     7    8    9 1
     8    9   10 1
     9   11    9 1
    10   14    9 1
    11   15   14 1
    12   16   14 1
    13   20   14 1
    14   21   20 1
    15   22   20 1
    16   25    2 1
    17   26    8 1
    18   27   26 1
    19   28   27 1
    20   29   28 ar
    21   30   29 1
    22   31   29 ar
    23   32   31 1
    24   33   31 ar
    25   34   33 1
    26   35   33 ar
    27   36   35 1
    28   37   28 ar
    29   20   25 1
    30   25   26 2
    31   35   37 ar
@<TRIPOS>SUBSTRUCTURE
     1 RES1 1
     2 SUP2 12

@<TRIPOS>CRYSIN
   7.5000    8.1030   10.5080  71.7900  85.3600  89.5900   2 1

