# MOL2 file generated by ConQuest
# Please check atom types

@<TRIPOS>MOLECULE
PACCEB
    42    44     1
SMALL
NO_CHARGES
****
Generated from CSD

@<TRIPOS>ATOM
      1 C1         1.4125    6.3770   12.9003 C.ar      1 RES1    0.0000
      2 C2         0.0272    6.2993   12.7158 C.ar      1 RES1    0.0000
      3 C3        -0.5534    6.5072   11.4818 C.ar      1 RES1    0.0000
      4 C4         0.2117    6.8363   10.3763 C.ar      1 RES1    0.0000
      5 C5         1.5864    6.9120   10.5175 C.ar      1 RES1    0.0000
      6 C6         2.1732    6.6526   11.7496 C.ar      1 RES1    0.0000
      7 C7         1.2807    5.5512   15.2415 C.3       1 RES1    0.0000
      8 C8         0.4691    6.6052   16.0014 C.3       1 RES1    0.0000
      9 C9         1.2710    7.7661   16.5424 C.3       1 RES1    0.0000
     10 C10        2.1995    8.3122   15.4496 C.3       1 RES1    0.0000
     11 C11        2.9655    7.2371   14.6608 C.3       1 RES1    0.0000
     12 C12        2.3093    4.7709   16.0738 C.3       1 RES1    0.0000
     13 C13        3.5145    5.5755   16.5533 C.3       1 RES1    0.0000
     14 C14        4.0310    6.4658   15.4297 C.3       1 RES1    0.0000
     15 N1         2.0124    6.2256   14.1542 N.3       1 RES1    0.0000
     16 N2         3.6313    6.5466   11.7297 N.pl3     1 RES1    0.0000
     17 N3         5.9283    7.9730   15.3573 N.pl3     1 RES1    0.0000
     18 N4        -1.3141    5.2645   16.9350 N.pl3     1 RES1    0.0000
     19 O1         4.1759    5.6461   12.3539 O.2       1 RES1    0.0000
     20 O2         4.2523    7.3451   11.0458 O.2       1 RES1    0.0000
     21 O3         4.9243    7.3946   16.1335 O.3       1 RES1    0.0000
     22 O4         6.6943    8.6282   16.0214 O.2       1 RES1    0.0000
     23 O5         5.9485    7.7449   14.1795 O.2       1 RES1    0.0000
     24 O6        -0.1704    6.0116   17.2010 O.3       1 RES1    0.0000
     25 O7        -1.7937    4.8032   17.9428 O.2       1 RES1    0.0000
     26 O8        -1.7102    5.1585   15.7988 O.2       1 RES1    0.0000
     27 H1        -0.6035    6.0691   13.5625 H         1 RES1    0.0000
     28 H2        -1.6242    6.4113   11.3769 H         1 RES1    0.0000
     29 H3        -0.2582    7.0322    9.4210 H         1 RES1    0.0000
     30 H4         2.2030    7.1725    9.6707 H         1 RES1    0.0000
     31 H5         0.5956    4.8284   14.8236 H         1 RES1    0.0000
     32 H6        -0.3215    6.9474   15.3501 H         1 RES1    0.0000
     33 H7         0.5270    8.5030   16.8084 H         1 RES1    0.0000
     34 H8         1.8051    7.4582   17.4308 H         1 RES1    0.0000
     35 H9         2.9049    9.0239   15.8513 H         1 RES1    0.0000
     36 H10        1.5328    8.8129   14.7621 H         1 RES1    0.0000
     37 H11        3.3572    7.8085   13.8321 H         1 RES1    0.0000
     38 H12        1.7577    4.3651   16.9097 H         1 RES1    0.0000
     39 H13        2.5939    3.9704   15.4080 H         1 RES1    0.0000
     40 H14        4.2761    4.8345   16.7433 H         1 RES1    0.0000
     41 H15        3.3195    6.1327   17.4579 H         1 RES1    0.0000
     42 H16        4.6757    5.9409   14.7404 H         1 RES1    0.0000
@<TRIPOS>BOND
     1    1    2 ar
     2    2    3 ar
     3    3    4 ar
     4    4    5 ar
     5    5    6 ar
     6    6    1 ar
     7    7    8 1
     8    8    9 1
     9    9   10 1
    10   10   11 1
    11   11   14 1
    12   12    7 1
    13   13   12 1
    14   14   13 1
    15   15    1 1
    16   16    6 1
    17   17   21 1
    18   18   24 1
    19   19   16 2
    20   20   16 2
    21   21   14 1
    22   22   17 2
    23   23   17 2
    24   24    8 1
    25   25   18 2
    26   26   18 2
    27   27    2 1
    28   28    3 1
    29   29    4 1
    30   30    5 1
    31   31    7 1
    32   32    8 1
    33   33    9 1
    34   34    9 1
    35   35   10 1
    36   36   10 1
    37   37   11 1
    38   38   12 1
    39   39   12 1
    40   40   13 1
    41   41   13 1
    42   42   14 1
    43    7   15 1
    44   11   15 1
@<TRIPOS>SUBSTRUCTURE
     1 RES1 1

@<TRIPOS>CRYSIN
   8.7840   10.0950   18.0930  90.0000  90.0000  90.0000  19 1

