# MOL2 file generated by ConQuest
# Please check atom types

@<TRIPOS>MOLECULE
PACNOY
    49    51     1
SMALL
NO_CHARGES
****
Generated from CSD

@<TRIPOS>ATOM
      1 O1         7.0294    6.5196   16.7487 O.3       1 RES1    0.0000
      2 H1         7.6873    6.7290   17.1903 H         1 RES1    0.0000
      3 O2         3.3965    2.3755   17.0666 O.3       1 RES1    0.0000
      4 O3         4.9619    3.9747   17.2001 O.2       1 RES1    0.0000
      5 O4        -1.4455    4.2514    9.3376 O.3       1 RES1    0.0000
      6 N1         7.3868    5.5268   15.8125 N.2       1 RES1    0.0000
      7 N2         3.9986    4.9876   14.6662 N.pl3     1 RES1    0.0000
      8 N3         3.3187    5.2171   13.5225 N.2       1 RES1    0.0000
      9 C1         6.4409    5.2188   15.0104 C.2       1 RES1    0.0000
     10 C2         6.7621    4.1806   14.0117 C.ar      1 RES1    0.0000
     11 C3         7.4604    3.0403   14.3844 C.ar      1 RES1    0.0000
     12 H2         7.6931    2.9076   15.2745 H         1 RES1    0.0000
     13 C4         7.8112    2.1024   13.4322 C.ar      1 RES1    0.0000
     14 H3         8.2797    1.3403   13.6867 H         1 RES1    0.0000
     15 C5         7.4739    2.2882   12.1109 C.ar      1 RES1    0.0000
     16 H4         7.7158    1.6541   11.4746 H         1 RES1    0.0000
     17 C6         6.7850    3.4049   11.7359 C.ar      1 RES1    0.0000
     18 H5         6.5639    3.5347   10.8421 H         1 RES1    0.0000
     19 C7         6.4152    4.3387   12.6757 C.ar      1 RES1    0.0000
     20 H6         5.9270    5.0855   12.4134 H         1 RES1    0.0000
     21 C8         5.0908    5.8860   15.0335 C.3       1 RES1    0.0000
     22 H7         4.9266    6.2341   15.9237 H         1 RES1    0.0000
     23 H8         5.1008    6.6376   14.4207 H         1 RES1    0.0000
     24 C9         3.5237    3.8845   15.3196 C.2       1 RES1    0.0000
     25 C10        2.5006    3.3943   14.5600 C.2       1 RES1    0.0000
     26 H9         1.9800    2.6457   14.7419 H         1 RES1    0.0000
     27 C11        2.3940    4.2437   13.4551 C.2       1 RES1    0.0000
     28 C12        4.0604    3.4450   16.6154 C.2       1 RES1    0.0000
     29 C13        3.8124    1.8912   18.3732 C.3       1 RES1    0.0000
     30 H10        3.6966    2.5861   19.0395 H         1 RES1    0.0000
     31 H11        4.7491    1.6382   18.3537 H         1 RES1    0.0000
     32 C14        2.9694    0.7102   18.7116 C.3       1 RES1    0.0000
     33 H12        2.0468    0.9710   18.7316 H         1 RES1    0.0000
     34 H13        3.2252    0.3705   19.5721 H         1 RES1    0.0000
     35 H14        3.0950    0.0271   18.0491 H         1 RES1    0.0000
     36 C15        1.4138    4.2060   12.3584 C.ar      1 RES1    0.0000
     37 C16        1.3272    5.2247   11.4244 C.ar      1 RES1    0.0000
     38 H15        1.9208    5.9385   11.4746 H         1 RES1    0.0000
     39 C17        0.3835    5.2053   10.4252 C.ar      1 RES1    0.0000
     40 H16        0.3502    5.8966    9.8035 H         1 RES1    0.0000
     41 C18       -0.5160    4.1600   10.3421 C.ar      1 RES1    0.0000
     42 C19       -0.4425    3.1353   11.2488 C.ar      1 RES1    0.0000
     43 H17       -1.0370    2.4221   11.1950 H         1 RES1    0.0000
     44 C20        0.5180    3.1625   12.2444 C.ar      1 RES1    0.0000
     45 H18        0.5606    2.4599   12.8528 H         1 RES1    0.0000
     46 C21       -2.4065    3.2061    9.2360 C.3       1 RES1    0.0000
     47 H19       -1.9557    2.3708    9.0911 H         1 RES1    0.0000
     48 H20       -2.9956    3.3837    8.4986 H         1 RES1    0.0000
     49 H21       -2.9153    3.1589   10.0482 H         1 RES1    0.0000
@<TRIPOS>BOND
     1    1    2 1
     2    3   28 1
     3    4   28 2
     4    5   41 1
     5    6    1 1
     6    7    8 1
     7    8   27 2
     8    9    6 2
     9   10    9 1
    10   11   10 ar
    11   12   11 1
    12   13   11 ar
    13   14   13 1
    14   15   13 ar
    15   16   15 1
    16   17   15 ar
    17   18   17 1
    18   19   10 ar
    19   20   19 1
    20   21    7 1
    21   22   21 1
    22   23   21 1
    23   24    7 1
    24   25   24 2
    25   26   25 1
    26   27   25 1
    27   28   24 1
    28   29    3 1
    29   30   29 1
    30   31   29 1
    31   32   29 1
    32   33   32 1
    33   34   32 1
    34   35   32 1
    35   36   27 1
    36   37   36 ar
    37   38   37 1
    38   39   37 ar
    39   40   39 1
    40   41   39 ar
    41   42   41 ar
    42   43   42 1
    43   44   36 ar
    44   45   44 1
    45   46    5 1
    46   47   46 1
    47   48   46 1
    48   49   46 1
    49    9   21 1
    50   17   19 ar
    51   42   44 ar
@<TRIPOS>SUBSTRUCTURE
     1 RES1 1

@<TRIPOS>CRYSIN
  19.8731    5.8990   16.7014  90.0000  94.7370  90.0000  14 1

