# MOL2 file generated by ConQuest
# Please check atom types

@<TRIPOS>MOLECULE
PACVEX
    84    90     2
SMALL
NO_CHARGES
****
Generated from CSD

@<TRIPOS>ATOM
      1 C1        14.2283   11.3950   10.0159 C.3       1 RES1    0.0000
      2 C2        14.7127   12.6343    9.2797 C.2       1 RES1    0.0000
      3 C3        14.1805   12.6881    8.0275 C.2       1 RES1    0.0000
      4 C4        13.3712   11.4798    7.8043 C.ar      1 RES1    0.0000
      5 C5        12.6807   11.0671    6.6766 C.ar      1 RES1    0.0000
      6 H1        12.6775   11.5822    5.8776 H         1 RES1    0.0000
      7 C6        11.9928    9.8618    6.7693 C.ar      1 RES1    0.0000
      8 C7        11.9693    9.0735    7.9169 C.ar      1 RES1    0.0000
      9 H2        11.4843    8.2570    7.9328 H         1 RES1    0.0000
     10 C8        12.6721    9.5058    9.0446 C.ar      1 RES1    0.0000
     11 H3        12.6630    9.0003    9.8485 H         1 RES1    0.0000
     12 C9        13.3814   10.6887    8.9569 C.ar      1 RES1    0.0000
     13 C10       13.2793   11.7101   11.1934 C.2       1 RES1    0.0000
     14 C11       13.3606   10.8132   12.3172 C.2       1 RES1    0.0000
     15 H4        12.7272   10.9081   13.0185 H         1 RES1    0.0000
     16 C12       14.2824    9.8584   12.4208 C.2       1 RES1    0.0000
     17 O1        15.2610    9.6497   11.4624 O.3       1 RES1    0.0000
     18 C13       15.3903   10.4747   10.3706 C.2       1 RES1    0.0000
     19 O2        12.4801   12.6186   11.1038 O.2       1 RES1    0.0000
     20 C14       14.4059    8.9202   13.5694 C.3       1 RES1    0.0000
     21 H5        15.0469    8.2136   13.3472 H         1 RES1    0.0000
     22 H6        13.5316    8.5212   13.7607 H         1 RES1    0.0000
     23 H7        14.7205    9.4092   14.3584 H         1 RES1    0.0000
     24 O3        16.3744   10.3557    9.7151 O.2       1 RES1    0.0000
     25 C15       15.6886   13.5444    9.9063 C.ar      1 RES1    0.0000
     26 C16       15.8004   13.6459   11.3080 C.ar      1 RES1    0.0000
     27 H8        15.2002   13.1567   11.8589 H         1 RES1    0.0000
     28 C17       16.7624   14.4401   11.8958 C.ar      1 RES1    0.0000
     29 H9        16.8198   14.4958   12.8422 H         1 RES1    0.0000
     30 C18       17.6534   15.1621   11.0988 C.ar      1 RES1    0.0000
     31 H10       18.3249   15.7028   11.4983 H         1 RES1    0.0000
     32 C19       17.5494   15.0822    9.7240 C.ar      1 RES1    0.0000
     33 H11       18.1501   15.5777    9.1791 H         1 RES1    0.0000
     34 C20       16.5855   14.2933    9.1333 C.ar      1 RES1    0.0000
     35 H12       16.5279   14.2557    8.1849 H         1 RES1    0.0000
     36 C21       14.3154   13.7458    6.9755 C.3       1 RES1    0.0000
     37 H13       15.0747   13.5330    6.3937 H         1 RES1    0.0000
     38 H14       14.4671   14.6145    7.4038 H         1 RES1    0.0000
     39 H15       13.4947   13.7836    6.4425 H         1 RES1    0.0000
     40 N1        11.2621    9.3759    5.5947 N.pl3     1 RES1    0.0000
     41 O4        11.6145    9.7898    4.4929 O.2       1 RES1    0.0000
     42 O5        10.3389    8.5877    5.7661 O.2       1 RES1    0.0000
     43 C22        5.7162    5.6365    5.6186 C.3       2 RES2    0.0000
     44 C23        5.2796    4.3561    6.3399 C.2       2 RES2    0.0000
     45 C24        5.7894    4.3224    7.5881 C.2       2 RES2    0.0000
     46 C25        6.5737    5.5300    7.8322 C.ar      2 RES2    0.0000
     47 C26        7.2608    5.9621    8.9709 C.ar      2 RES2    0.0000
     48 H16        7.2674    5.4512    9.7718 H         2 RES2    0.0000
     49 C27        7.9314    7.1706    8.8743 C.ar      2 RES2    0.0000
     50 C28        7.9684    7.9619    7.7336 C.ar      2 RES2    0.0000
     51 H17        8.4632    8.7719    7.7167 H         2 RES2    0.0000
     52 C29        7.2587    7.5321    6.6168 C.ar      2 RES2    0.0000
     53 H18        7.2483    8.0520    5.8219 H         2 RES2    0.0000
     54 C30        6.5704    6.3404    6.6816 C.ar      2 RES2    0.0000
     55 C31        4.5205    6.5492    5.3088 C.2       2 RES2    0.0000
     56 C32        4.6389    7.3481    4.1034 C.2       2 RES2    0.0000
     57 H19        3.9733    8.0011    3.9201 H         2 RES2    0.0000
     58 C33        5.6475    7.2012    3.2447 C.2       2 RES2    0.0000
     59 O6         6.6642    6.2912    3.4100 O.3       2 RES2    0.0000
     60 C34        6.6697    5.3852    4.4580 C.2       2 RES2    0.0000
     61 O7         3.5700    6.5913    6.0639 O.2       2 RES2    0.0000
     62 C35        5.8323    7.9787    1.9924 C.3       2 RES2    0.0000
     63 H20        5.0574    8.5624    1.8530 H         2 RES2    0.0000
     64 H21        5.9171    7.3617    1.2353 H         2 RES2    0.0000
     65 H22        6.6430    8.5228    2.0622 H         2 RES2    0.0000
     66 O8         7.4857    4.5178    4.4242 O.2       2 RES2    0.0000
     67 C36        4.3271    3.4301    5.6993 C.ar      2 RES2    0.0000
     68 C37        4.2668    3.2952    4.3046 C.ar      2 RES2    0.0000
     69 H23        4.8899    3.7637    3.7617 H         2 RES2    0.0000
     70 C38        3.3078    2.4864    3.7069 C.ar      2 RES2    0.0000
     71 H24        3.2881    2.4008    2.7615 H         2 RES2    0.0000
     72 C39        2.3840    1.8048    4.4760 C.ar      2 RES2    0.0000
     73 H25        1.7227    1.2613    4.0645 H         2 RES2    0.0000
     74 C40        2.4363    1.9251    5.8667 C.ar      2 RES2    0.0000
     75 H26        1.8129    1.4524    6.4046 H         2 RES2    0.0000
     76 C41        3.3899    2.7283    6.4694 C.ar      2 RES2    0.0000
     77 H27        3.4093    2.8047    7.4168 H         2 RES2    0.0000
     78 C42        5.6361    3.2719    8.6521 C.3       2 RES2    0.0000
     79 H28        4.8917    3.5115    9.2429 H         2 RES2    0.0000
     80 H29        6.4625    3.2133    9.1751 H         2 RES2    0.0000
     81 H30        5.4532    2.4057    8.2317 H         2 RES2    0.0000
     82 N2         8.6796    7.6400   10.0617 N.pl3     2 RES2    0.0000
     83 O9         8.3181    7.2435   11.1566 O.2       2 RES2    0.0000
     84 O10        9.6125    8.4017    9.8764 O.2       2 RES2    0.0000
@<TRIPOS>BOND
     1    1    2 1
     2    2    3 2
     3    3    4 1
     4    4    5 ar
     5    5    6 1
     6    7    5 ar
     7    8    7 ar
     8    9    8 1
     9   10    8 ar
    10   11   10 1
    11   12    1 1
    12   13    1 1
    13   14   13 1
    14   15   14 1
    15   16   14 2
    16   17   16 1
    17   18    1 1
    18   19   13 2
    19   20   16 1
    20   21   20 1
    21   22   20 1
    22   23   20 1
    23   24   18 2
    24   25    2 1
    25   26   25 ar
    26   27   26 1
    27   28   26 ar
    28   29   28 1
    29   30   28 ar
    30   31   30 1
    31   32   30 ar
    32   33   32 1
    33   34   25 ar
    34   35   34 1
    35   36    3 1
    36   37   36 1
    37   38   36 1
    38   39   36 1
    39   40    7 1
    40   41   40 2
    41   42   40 2
    42   43   44 1
    43   44   45 2
    44   45   46 1
    45   46   47 ar
    46   47   48 1
    47   49   47 ar
    48   50   49 ar
    49   51   50 1
    50   52   50 ar
    51   53   52 1
    52   54   43 1
    53   55   43 1
    54   56   55 1
    55   57   56 1
    56   58   56 2
    57   59   58 1
    58   60   43 1
    59   61   55 2
    60   62   58 1
    61   63   62 1
    62   64   62 1
    63   65   62 1
    64   66   60 2
    65   67   44 1
    66   68   67 ar
    67   69   68 1
    68   70   68 ar
    69   71   70 1
    70   72   70 ar
    71   73   72 1
    72   74   72 ar
    73   75   74 1
    74   76   67 ar
    75   77   76 1
    76   78   45 1
    77   79   78 1
    78   80   78 1
    79   81   78 1
    80   82   49 1
    81   83   82 2
    82   84   82 2
    83    4   12 ar
    84   10   12 ar
    85   17   18 1
    86   32   34 ar
    87   46   54 ar
    88   52   54 ar
    89   59   60 1
    90   74   76 ar
@<TRIPOS>SUBSTRUCTURE
     1 RES1 1
     2 RES2 43

@<TRIPOS>CRYSIN
   9.4729    9.8869   11.0490  66.7540  70.6210  64.0390   1 1

