# MOL2 file generated by ConQuest
# Please check atom types

@<TRIPOS>MOLECULE
PADBIF
    41    41     2
SMALL
NO_CHARGES
****
Generated from CSD

@<TRIPOS>ATOM
      1 O1         1.0675    5.3801    7.0381 O.3       1 RES1    0.0000
      2 O2         2.2881    4.9985    4.4349 O.3       1 RES1    0.0000
      3 O3         4.1348    3.6582    2.6190 O.3       1 RES1    0.0000
      4 O4         2.4183    7.1985    8.4730 O.2       1 RES1    0.0000
      5 O5         3.2908    6.0965   10.1079 O.2       1 RES1    0.0000
      6 O6         2.9228    1.3513    1.7905 O.2       1 RES1    0.0000
      7 O7         3.4563    1.4174   -0.2952 O.2       1 RES1    0.0000
      8 N1         2.3643    6.3427    9.3048 N.pl3     1 RES1    0.0000
      9 N2         3.7096    1.5742    0.9016 N.pl3     1 RES1    0.0000
     10 C1         0.3689    5.0296    5.8476 C.3       1 RES1    0.0000
     11 C2         1.0662    5.6930    4.7079 C.3       1 RES1    0.0000
     12 C3         2.9907    5.5880    3.3651 C.3       1 RES1    0.0000
     13 C4         4.3362    4.9337    3.2254 C.3       1 RES1    0.0000
     14 C5         5.2487    3.0175    2.1841 C.ar      1 RES1    0.0000
     15 C6         5.0838    2.0030    1.2444 C.ar      1 RES1    0.0000
     16 C7         0.5196    5.0646    8.2381 C.ar      1 RES1    0.0000
     17 C8         1.1739    5.5051    9.3936 C.ar      1 RES1    0.0000
     18 C9         0.6921    5.2045   10.6476 C.ar      1 RES1    0.0000
     19 C10       -0.4837    4.4718   10.8000 C.ar      1 RES1    0.0000
     20 C11       -1.1322    4.0521    9.6667 C.ar      1 RES1    0.0000
     21 C12       -0.6387    4.3118    8.3968 C.ar      1 RES1    0.0000
     22 C13        6.1516    1.3921    0.6254 C.ar      1 RES1    0.0000
     23 C14        7.4399    1.7277    0.9968 C.ar      1 RES1    0.0000
     24 C15        7.6443    2.6690    1.9524 C.ar      1 RES1    0.0000
     25 C16        6.5757    3.3103    2.5397 C.ar      1 RES1    0.0000
     26 H1         5.9270    0.6867    0.0000 H         1 RES1    0.0000
     27 H2         8.1367    1.3474    0.6667 H         1 RES1    0.0000
     28 H3         8.4670    3.2391    2.3175 H         1 RES1    0.0000
     29 H4         6.7353    4.0488    3.3016 H         1 RES1    0.0000
     30 H5         4.7482    5.4870    2.7302 H         1 RES1    0.0000
     31 H6         4.7858    4.7485    4.0635 H         1 RES1    0.0000
     32 H7         2.6199    5.6683    2.6349 H         1 RES1    0.0000
     33 H8         3.0964    6.5818    3.5873 H         1 RES1    0.0000
     34 H9         0.5153    5.9404    3.9683 H         1 RES1    0.0000
     35 H10        2.9775    6.5688    4.9841 Du        2 SUP2    0.0000
     36 H11        0.2804    4.0164    5.7460 H         1 RES1    0.0000
     37 H12       -0.5062    5.3963    5.9682 H         1 RES1    0.0000
     38 H13       -0.9012    3.8869    7.7143 H         1 RES1    0.0000
     39 H14       -1.7384    3.6083    9.7143 H         1 RES1    0.0000
     40 H15       -0.8870    4.8586   11.9048 H         1 RES1    0.0000
     41 H16        1.1275    5.3963   11.2381 H         1 RES1    0.0000
@<TRIPOS>BOND
     1    1   10 1
     2    2   11 1
     3    3   13 1
     4    4    8 2
     5    5    8 2
     6    6    9 2
     7    7    9 2
     8    8   17 1
     9    9   15 1
    10   10   11 1
    11   11   34 1
    12   12    2 1
    13   13   12 1
    14   14    3 1
    15   15   14 ar
    16   16    1 1
    17   17   16 ar
    18   18   17 ar
    19   19   18 ar
    20   20   19 ar
    21   21   16 ar
    22   22   15 ar
    23   23   22 ar
    24   24   23 ar
    25   25   14 ar
    26   26   22 1
    27   27   23 1
    28   28   24 1
    29   29   25 1
    30   30   13 1
    31   31   13 1
    32   32   12 1
    33   33   12 1
    34   36   10 1
    35   37   10 1
    36   38   21 1
    37   39   20 1
    38   40   19 1
    39   41   18 1
    40   20   21 ar
    41   24   25 ar
@<TRIPOS>SUBSTRUCTURE
     1 RES1 1
     2 SUP2 35

@<TRIPOS>CRYSIN
   7.8540    7.2980   31.7460  90.0000  90.0000 117.4200  14 3

