# MOL2 file generated by ConQuest
# Please check atom types

@<TRIPOS>MOLECULE
PADCEF
   116   120     2
SMALL
NO_CHARGES
****
Generated from CSD

@<TRIPOS>ATOM
      1 C1        -1.4117   -4.2636    6.3267 C.3       1 RES1    0.0000
      2 C2        -2.2426   -4.9570    5.2595 C.3       1 RES1    0.0000
      3 H1        -2.4056   -5.8793    5.5097 H         1 RES1    0.0000
      4 H2        -3.0976   -4.5096    5.1592 H         1 RES1    0.0000
      5 C3        -1.4868   -4.8984    3.9954 C.3       1 RES1    0.0000
      6 H3        -1.9824   -4.3779    3.3440 H         1 RES1    0.0000
      7 H4        -1.3741   -5.7949    3.6425 H         1 RES1    0.0000
      8 C4        -0.1368   -4.2732    4.2190 C.3       1 RES1    0.0000
      9 C5         0.0724   -4.3668    5.7973 C.3       1 RES1    0.0000
     10 C6         0.6907   -5.7073    6.1853 C.3       1 RES1    0.0000
     11 H5         0.0508   -6.4124    6.0016 H         1 RES1    0.0000
     12 H6         1.4711   -5.8642    5.6317 H         1 RES1    0.0000
     13 C7         1.0946   -5.7836    7.6282 C.2       1 RES1    0.0000
     14 H7         1.1651   -6.6259    8.0138 H         1 RES1    0.0000
     15 C8         1.3578   -4.7364    8.3848 C.2       1 RES1    0.0000
     16 C9         1.2071   -3.3452    7.8627 C.3       1 RES1    0.0000
     17 H8         2.0083   -2.8415    8.0778 H         1 RES1    0.0000
     18 H9         0.4623   -2.9204    8.3147 H         1 RES1    0.0000
     19 C10        0.9734   -3.2741    6.3581 C.3       1 RES1    0.0000
     20 H10        1.8326   -3.3211    5.9097 H         1 RES1    0.0000
     21 H11        0.5808   -2.4121    6.1478 H         1 RES1    0.0000
     22 C11        0.9088   -4.9953    3.4213 C.3       1 RES1    0.0000
     23 H12        0.8613   -5.9359    3.6099 H         1 RES1    0.0000
     24 H13        1.7780   -4.6653    3.6606 H         1 RES1    0.0000
     25 H14        0.7569   -4.8476    2.4847 H         1 RES1    0.0000
     26 C12       -0.1786   -2.8715    3.7017 C.3       1 RES1    0.0000
     27 H15        0.7018   -2.4939    3.7247 H         1 RES1    0.0000
     28 H16       -0.7679   -2.3445    4.2492 H         1 RES1    0.0000
     29 H17       -0.5040   -2.8734    2.7977 H         1 RES1    0.0000
     30 C13       -1.7159   -4.8080    7.7249 C.2       1 RES1    0.0000
     31 C14       -1.9318   -6.2778    7.9763 C.3       1 RES1    0.0000
     32 H18       -1.6464   -6.4953    8.8658 H         1 RES1    0.0000
     33 H19       -1.4229   -6.7880    7.3418 H         1 RES1    0.0000
     34 H20       -2.8641   -6.4837    7.8784 H         1 RES1    0.0000
     35 C15        1.7555   -4.9006    9.8060 C.3       1 RES1    0.0000
     36 H21        1.7973   -5.8424   10.0393 H         1 RES1    0.0000
     37 H22        2.6270   -4.5047    9.9619 H         1 RES1    0.0000
     38 O1        -1.8243   -2.9041    6.3001 O.3       1 RES1    0.0000
     39 H23       -1.8430   -2.6088    7.0639 H         1 RES1    0.0000
     40 C16        1.0096   -4.0765   11.9028 C.2       1 RES1    0.0000
     41 C17       -0.0515   -3.3280   12.6219 C.ar      1 RES1    0.0000
     42 C18        0.1812   -2.9922   13.9452 C.ar      1 RES1    0.0000
     43 H24        0.9724   -3.2453   14.3634 H         1 RES1    0.0000
     44 C19       -0.7704   -2.2821   14.6292 C.ar      1 RES1    0.0000
     45 C20       -1.9527   -1.8827   14.0516 C.ar      1 RES1    0.0000
     46 H25       -2.5866   -1.3983   14.5314 H         1 RES1    0.0000
     47 C21       -2.1588   -2.2251   12.7403 C.ar      1 RES1    0.0000
     48 C22       -1.2454   -2.9399   11.9983 C.ar      1 RES1    0.0000
     49 H26       -1.4147   -3.1582   11.1100 H         1 RES1    0.0000
     50 O2        -1.9419   -4.0129    8.6301 O.2       1 RES1    0.0000
     51 O3         0.7341   -4.2201   10.6121 O.3       1 RES1    0.0000
     52 O4         2.0068   -4.4872   12.4297 O.2       1 RES1    0.0000
     53 N1        -0.5418   -1.9302   16.0420 N.pl3     1 RES1    0.0000
     54 O5         0.5088   -2.2282   16.5460 O.2       1 RES1    0.0000
     55 O6        -1.4187   -1.3327   16.6306 O.2       1 RES1    0.0000
     56 N2        -3.3891   -1.7724   12.0950 N.pl3     1 RES1    0.0000
     57 O7        -4.2210   -1.2016   12.7814 O.2       1 RES1    0.0000
     58 O8        -3.5277   -1.9814   10.9034 O.2       1 RES1    0.0000
     59 C23       -0.0274    1.0293    9.4265 C.3       2 RES2    0.0000
     60 C24       -0.1568    0.1100   10.6592 C.3       2 RES2    0.0000
     61 H27       -0.8567   -0.5456   10.5142 H         2 RES2    0.0000
     62 H28        0.6770   -0.3597   10.8139 H         2 RES2    0.0000
     63 C25       -0.4943    0.9737   11.8484 C.3       2 RES2    0.0000
     64 H29        0.0164    0.6917   12.6243 H         2 RES2    0.0000
     65 H30       -1.4389    0.9030   12.0587 H         2 RES2    0.0000
     66 C26       -0.1383    2.4185   11.4714 C.3       2 RES2    0.0000
     67 C27       -0.5258    2.4681    9.9486 C.3       2 RES2    0.0000
     68 C28       -2.0171    2.6724    9.7770 C.3       2 RES2    0.0000
     69 H31       -2.4797    1.9053   10.1504 H         2 RES2    0.0000
     70 H32       -2.2831    3.4516   10.2894 H         2 RES2    0.0000
     71 C29       -2.4613    2.8556    8.3666 C.2       2 RES2    0.0000
     72 H33       -3.3487    2.6805    8.1491 H         2 RES2    0.0000
     73 C30       -1.6365    3.2592    7.4095 C.2       2 RES2    0.0000
     74 C31       -0.2173    3.5973    7.6790 C.3       2 RES2    0.0000
     75 H34       -0.0287    4.4729    7.3068 H         2 RES2    0.0000
     76 H35        0.3491    2.9549    7.2234 H         2 RES2    0.0000
     77 C32        0.1439    3.6053    9.1594 C.3       2 RES2    0.0000
     78 H36       -0.1223    4.4555    9.5438 H         2 RES2    0.0000
     79 H37        1.1065    3.5287    9.2501 H         2 RES2    0.0000
     80 C33       -0.8329    3.4303   12.3367 C.3       2 RES2    0.0000
     81 H38       -0.6333    4.3139   12.0188 H         2 RES2    0.0000
     82 H39       -0.5294    3.3388   13.2431 H         2 RES2    0.0000
     83 H40       -1.7811    3.2848   12.3004 H         2 RES2    0.0000
     84 C34        1.3924    2.5709   11.6587 C.3       2 RES2    0.0000
     85 H41        1.6438    3.4848   11.5088 H         2 RES2    0.0000
     86 H42        1.8491    2.0066   11.0315 H         2 RES2    0.0000
     87 H43        1.6321    2.3165   12.5530 H         2 RES2    0.0000
     88 C35       -0.7876    0.3777    8.2530 C.2       2 RES2    0.0000
     89 C36       -2.1633   -0.1893    8.3582 C.3       2 RES2    0.0000
     90 H44       -2.6415   -0.0233    7.5424 H         2 RES2    0.0000
     91 H45       -2.6253    0.2252    9.0894 H         2 RES2    0.0000
     92 H46       -2.1084   -1.1368    8.5093 H         2 RES2    0.0000
     93 C37       -2.1204    3.3445    5.9834 C.3       2 RES2    0.0000
     94 H47       -3.0357    3.0311    5.9133 H         2 RES2    0.0000
     95 H48       -2.0759    4.2570    5.6608 H         2 RES2    0.0000
     96 O9         1.3111    1.1257    9.0253 O.3       2 RES2    0.0000
     97 H49        1.3667    0.9781    8.2204 H         2 RES2    0.0000
     98 C38       -1.5918    2.1497    4.0099 C.2       2 RES2    0.0000
     99 C39       -0.5532    1.3067    3.3307 C.ar      2 RES2    0.0000
    100 C40       -0.7615    0.9461    2.0025 C.ar      2 RES2    0.0000
    101 H50       -1.5487    1.1724    1.5614 H         2 RES2    0.0000
    102 C41        0.2411    0.2394    1.3620 C.ar      2 RES2    0.0000
    103 C42        1.4114   -0.1355    1.9808 C.ar      2 RES2    0.0000
    104 H51        2.0756   -0.6004    1.5252 H         2 RES2    0.0000
    105 C43        1.5525    0.2082    3.2993 C.ar      2 RES2    0.0000
    106 C44        0.5988    0.9136    3.9990 C.ar      2 RES2    0.0000
    107 H52        0.7222    1.1212    4.8970 H         2 RES2    0.0000
    108 O10       -0.1539    0.2032    7.2125 O.2       2 RES2    0.0000
    109 O11       -1.2181    2.4801    5.2196 O.3       2 RES2    0.0000
    110 O12       -2.5999    2.4775    3.4902 O.2       2 RES2    0.0000
    111 N3         0.0439   -0.1132   -0.0471 N.pl3     2 RES2    0.0000
    112 O13       -1.0394    0.0982   -0.5632 O.2       2 RES2    0.0000
    113 O14        0.9769   -0.6073   -0.6586 O.2       2 RES2    0.0000
    114 N4         2.7757   -0.2248    4.0039 N.pl3     2 RES2    0.0000
    115 O15        3.6007   -0.8468    3.3670 O.2       2 RES2    0.0000
    116 O16        2.8937    0.0928    5.1822 O.2       2 RES2    0.0000
@<TRIPOS>BOND
     1    1    2 1
     2    2    3 1
     3    4    2 1
     4    5    2 1
     5    6    5 1
     6    7    5 1
     7    8    5 1
     8    9    1 1
     9   10    9 1
    10   11   10 1
    11   12   10 1
    12   13   10 1
    13   14   13 1
    14   15   13 2
    15   16   15 1
    16   17   16 1
    17   18   16 1
    18   19    9 1
    19   20   19 1
    20   21   19 1
    21   22    8 1
    22   23   22 1
    23   24   22 1
    24   25   22 1
    25   26    8 1
    26   27   26 1
    27   28   26 1
    28   29   26 1
    29   30    1 1
    30   31   30 1
    31   32   31 1
    32   33   31 1
    33   34   31 1
    34   35   15 1
    35   36   35 1
    36   37   35 1
    37   38    1 1
    38   39   38 1
    39   40   41 1
    40   41   42 ar
    41   42   43 1
    42   44   42 ar
    43   45   44 ar
    44   46   45 1
    45   47   45 ar
    46   48   41 ar
    47   49   48 1
    48   50   30 2
    49   51   35 1
    50   52   40 2
    51   53   44 1
    52   54   53 2
    53   55   53 2
    54   56   47 1
    55   57   56 2
    56   58   56 2
    57   59   60 1
    58   60   61 1
    59   62   60 1
    60   63   60 1
    61   64   63 1
    62   65   63 1
    63   66   63 1
    64   67   59 1
    65   68   67 1
    66   69   68 1
    67   70   68 1
    68   71   68 1
    69   72   71 1
    70   73   71 2
    71   74   73 1
    72   75   74 1
    73   76   74 1
    74   77   67 1
    75   78   77 1
    76   79   77 1
    77   80   66 1
    78   81   80 1
    79   82   80 1
    80   83   80 1
    81   84   66 1
    82   85   84 1
    83   86   84 1
    84   87   84 1
    85   88   59 1
    86   89   88 1
    87   90   89 1
    88   91   89 1
    89   92   89 1
    90   93   73 1
    91   94   93 1
    92   95   93 1
    93   96   59 1
    94   97   96 1
    95   98   99 1
    96   99  100 ar
    97  100  101 1
    98  102  100 ar
    99  103  102 ar
   100  104  103 1
   101  105  103 ar
   102  106   99 ar
   103  107  106 1
   104  108   88 2
   105  109   93 1
   106  110   98 2
   107  111  102 1
   108  112  111 2
   109  113  111 2
   110  114  105 1
   111  115  114 2
   112  116  114 2
   113    8    9 1
   114   16   19 1
   115   40   51 1
   116   47   48 ar
   117   66   67 1
   118   74   77 1
   119   98  109 1
   120  105  106 ar
@<TRIPOS>SUBSTRUCTURE
     1 RES1 1
     2 RES2 59

@<TRIPOS>CRYSIN
   6.8446   13.4597   13.8980 116.6530  96.0360 102.4170   1 1

