# MOL2 file generated by ConQuest
# Please check atom types

@<TRIPOS>MOLECULE
PADQUJ01
    38    39     1
SMALL
NO_CHARGES
****
Generated from CSD

@<TRIPOS>ATOM
      1 O1        10.4874    8.8041    9.5960 O.2       1 RES1    0.0000
      2 O2        11.5327    9.8014    8.0719 O.2       1 RES1    0.0000
      3 O3        10.1749    5.3559    7.9644 O.2       1 RES1    0.0000
      4 O4         7.0496    6.3287    4.8302 O.2       1 RES1    0.0000
      5 N1        11.2824    8.8133    8.7533 N.pl3     1 RES1    0.0000
      6 N2        11.0571    8.5095    4.5734 N.pl3     1 RES1    0.0000
      7 H1        10.7985    8.9913    3.8908 H         1 RES1    0.0000
      8 H2        11.8493    8.5208    4.8689 H         1 RES1    0.0000
      9 N3         9.0287    7.4447    4.7486 N.am      1 RES1    0.0000
     10 N4         8.6070    5.8561    6.4102 N.am      1 RES1    0.0000
     11 C1        12.0968    7.2319    6.9777 C.3       1 RES1    0.0000
     12 H3        12.4729    8.0226    6.5381 H         1 RES1    0.0000
     13 C2         7.7207    4.8618    6.9971 C.3       1 RES1    0.0000
     14 H4         7.4511    5.1493    7.8731 H         1 RES1    0.0000
     15 H5         8.1811    4.0220    7.0637 H         1 RES1    0.0000
     16 H6         6.9451    4.7575    6.4414 H         1 RES1    0.0000
     17 C3        14.3533    6.1456    7.2916 C.ar      1 RES1    0.0000
     18 H7        14.6022    6.8892    7.7924 H         1 RES1    0.0000
     19 C4        14.9119    4.0077    6.3629 C.ar      1 RES1    0.0000
     20 H8        15.5189    3.3162    6.2329 H         1 RES1    0.0000
     21 C5        15.2658    5.1165    7.0927 C.ar      1 RES1    0.0000
     22 H9        16.1203    5.1789    7.4550 H         1 RES1    0.0000
     23 C6        13.6440    3.9320    5.8266 C.ar      1 RES1    0.0000
     24 H10       13.3965    3.1843    5.3322 H         1 RES1    0.0000
     25 C7         8.1507    6.5261    5.3021 C.2       1 RES1    0.0000
     26 C8        12.0360    7.5326    8.4782 C.3       1 RES1    0.0000
     27 H11       11.5991    6.7982    8.9361 H         1 RES1    0.0000
     28 H12       12.9375    7.6094    8.8275 H         1 RES1    0.0000
     29 C9         9.8694    6.0372    6.9799 C.2       1 RES1    0.0000
     30 C10        8.5697    8.1658    3.5663 C.3       1 RES1    0.0000
     31 H13        7.6944    7.8559    3.3223 H         1 RES1    0.0000
     32 H14        9.1780    8.0103    2.8397 H         1 RES1    0.0000
     33 H15        8.5337    9.1059    3.7586 H         1 RES1    0.0000
     34 C11       10.2966    7.6585    5.2494 C.2       1 RES1    0.0000
     35 C12       12.7342    4.9641    6.0190 C.ar      1 RES1    0.0000
     36 H16       11.8839    4.9038    5.6471 H         1 RES1    0.0000
     37 C13       13.0799    6.0760    6.7542 C.ar      1 RES1    0.0000
     38 C14       10.7169    7.0058    6.3930 C.2       1 RES1    0.0000
@<TRIPOS>BOND
     1    1    5 2
     2    2    5 2
     3    3   29 2
     4    4   25 2
     5    5   26 1
     6    6    7 1
     7    8    6 1
     8    9   25 1
     9   10   13 1
    10   11   12 1
    11   13   14 1
    12   15   13 1
    13   16   13 1
    14   17   18 1
    15   19   20 1
    16   21   17 ar
    17   22   21 1
    18   23   19 ar
    19   24   23 1
    20   25   10 1
    21   26   11 1
    22   27   26 1
    23   28   26 1
    24   29   10 1
    25   30    9 1
    26   31   30 1
    27   32   30 1
    28   33   30 1
    29   34    6 1
    30   35   23 ar
    31   36   35 1
    32   37   11 1
    33   38   11 1
    34    9   34 1
    35   17   37 ar
    36   19   21 ar
    37   29   38 1
    38   34   38 2
    39   35   37 ar
@<TRIPOS>SUBSTRUCTURE
     1 RES1 1

@<TRIPOS>CRYSIN
  13.8265   10.2290   10.7482  90.0000  90.0000  90.0000  33 1

