# MOL2 file generated by ConQuest
# Please check atom types

@<TRIPOS>MOLECULE
PADXID
    59    62     1
SMALL
NO_CHARGES
****
Generated from CSD

@<TRIPOS>ATOM
      1 O1         6.4966    5.0666    6.9133 O.3       1 RES1    0.0000
      2 N1         5.5197    3.9392    6.9351 N.3       1 RES1    0.0000
      3 N2         9.0285    6.4161    8.5337 N.am      1 RES1    0.0000
      4 N3         8.5945    4.3503    7.7704 N.am      1 RES1    0.0000
      5 O2         6.8645    7.1452    8.9459 O.2       1 RES1    0.0000
      6 C1         5.0973    3.9711    8.3573 C.3       1 RES1    0.0000
      7 O3        10.7942    5.0060    7.9491 O.2       1 RES1    0.0000
      8 C2         7.2989    4.9185    8.0638 C.3       1 RES1    0.0000
      9 C3         9.8004    7.5393    8.9781 C.ar      1 RES1    0.0000
     10 C4         3.2034    2.8432    9.5423 C.ar      1 RES1    0.0000
     11 C5         7.6536    6.3210    8.5741 C.2       1 RES1    0.0000
     12 C6         4.3651    2.7173    8.7973 C.ar      1 RES1    0.0000
     13 C7         9.3838    8.2672   10.0696 C.ar      1 RES1    0.0000
     14 C8         9.6073    5.2042    8.0492 C.2       1 RES1    0.0000
     15 C9         4.5253    4.3179    5.8867 C.3       1 RES1    0.0000
     16 C10        6.4488    4.1067    9.0538 C.3       1 RES1    0.0000
     17 C11        4.1806    0.3176    8.9793 C.ar      1 RES1    0.0000
     18 C12        8.7485    3.1093    6.9793 C.3       1 RES1    0.0000
     19 C13       10.9749    7.8817    8.3074 C.ar      1 RES1    0.0000
     20 C14       11.7343    8.9414    8.7754 C.ar      1 RES1    0.0000
     21 C15        4.8622    1.4509    8.5308 C.ar      1 RES1    0.0000
     22 C16        3.0195    0.4619    9.7105 C.ar      1 RES1    0.0000
     23 C17        2.5437    1.7031   10.0066 C.ar      1 RES1    0.0000
     24 C18       10.1608    9.3255   10.5137 C.ar      1 RES1    0.0000
     25 C19        5.3025    4.3319    4.5736 C.3       1 RES1    0.0000
     26 C20        3.4842    3.2054    5.8331 C.3       1 RES1    0.0000
     27 C21        9.2611    3.4038    5.5906 C.3       1 RES1    0.0000
     28 C22        9.5877    2.0894    7.7163 C.3       1 RES1    0.0000
     29 C23       11.3387    9.6532    9.8763 C.ar      1 RES1    0.0000
     30 C24        3.8565    5.6603    6.1228 C.3       1 RES1    0.0000
     31 H1         6.3700    4.5812    9.9139 H         1 RES1    0.0000
     32 H2         4.5308    4.7531    8.5447 H         1 RES1    0.0000
     33 H3         6.8507    3.2461    9.1853 H         1 RES1    0.0000
     34 H4         2.8588    3.7441    9.7207 H         1 RES1    0.0000
     35 H5         4.5796   -0.5284    8.7453 H         1 RES1    0.0000
     36 H6         5.6886    1.3422    7.9942 H         1 RES1    0.0000
     37 H7         1.7327    1.8712   10.5481 H         1 RES1    0.0000
     38 H8         2.5546   -0.3442    9.9793 H         1 RES1    0.0000
     39 H9        11.2525    7.3596    7.5328 H         1 RES1    0.0000
     40 H10        7.7929    2.8128    6.8772 H         1 RES1    0.0000
     41 H11        4.6695    4.4176    3.8415 H         1 RES1    0.0000
     42 H12        2.9285    3.3700    5.0433 H         1 RES1    0.0000
     43 H13       11.8837   10.4017   10.2154 H         1 RES1    0.0000
     44 H14        9.8633    9.8107   11.2670 H         1 RES1    0.0000
     45 H15        8.5520    8.0616   10.5448 H         1 RES1    0.0000
     46 H16        9.2800    2.6133    5.0541 H         1 RES1    0.0000
     47 H17        5.8490    3.4784    4.5283 H         1 RES1    0.0000
     48 H18        8.6560    4.0435    5.1184 H         1 RES1    0.0000
     49 H19       12.5750    9.1794    8.3161 H         1 RES1    0.0000
     50 H20        5.9333    5.1294    4.5497 H         1 RES1    0.0000
     51 H21       10.1188    3.7451    5.6335 H         1 RES1    0.0000
     52 H22        2.9109    3.2217    6.6207 H         1 RES1    0.0000
     53 H23        3.3728    5.7419    6.9426 H         1 RES1    0.0000
     54 H24        3.2707    5.8375    5.3652 H         1 RES1    0.0000
     55 H25        4.5496    6.4131    6.3202 H         1 RES1    0.0000
     56 H26        3.9323    2.2936    5.7301 H         1 RES1    0.0000
     57 H27        9.6007    1.2637    7.2431 H         1 RES1    0.0000
     58 H28       10.5443    2.4821    7.7903 H         1 RES1    0.0000
     59 H29        9.1552    1.9688    8.5736 H         1 RES1    0.0000
@<TRIPOS>BOND
     1    1    2 1
     2    2    6 1
     3    3    9 1
     4    4    8 1
     5    5   11 2
     6    6   12 1
     7    7   14 2
     8    8    1 1
     9    9   13 ar
    10   10   12 ar
    11   11    3 1
    12   12   21 ar
    13   13   24 ar
    14   14    3 1
    15   15    2 1
    16   16    6 1
    17   17   21 ar
    18   18    4 1
    19   19    9 ar
    20   20   19 ar
    21   21   36 1
    22   22   17 ar
    23   23   10 ar
    24   24   29 ar
    25   25   15 1
    26   26   15 1
    27   27   18 1
    28   28   18 1
    29   29   20 ar
    30   30   15 1
    31   31   16 1
    32   32    6 1
    33   33   16 1
    34   34   10 1
    35   35   17 1
    36   37   23 1
    37   38   22 1
    38   39   19 1
    39   40   18 1
    40   41   25 1
    41   42   26 1
    42   43   29 1
    43   44   24 1
    44   45   13 1
    45   46   27 1
    46   47   25 1
    47   48   27 1
    48   49   20 1
    49   50   25 1
    50   51   27 1
    51   52   26 1
    52   53   30 1
    53   54   30 1
    54   55   30 1
    55   56   26 1
    56   57   28 1
    57   58   28 1
    58   59   28 1
    59    4   14 1
    60    8   11 1
    61    8   16 1
    62   22   23 ar
@<TRIPOS>SUBSTRUCTURE
     1 RES1 1

@<TRIPOS>CRYSIN
   9.9760   10.7350   11.1340  74.7270  84.8060  79.2710   2 1

