# MOL2 file generated by ConQuest
# Please check atom types

@<TRIPOS>MOLECULE
PAFHAH
   140   148     2
SMALL
NO_CHARGES
****
Generated from CSD

@<TRIPOS>ATOM
      1 O1         6.8364    4.3711    5.4997 O.2       1 RES1    0.0000
      2 O2         2.7846   -1.6221    6.4288 O.2       2 RES2    0.0000
      3 O3         8.5691    5.4217    1.8499 O.3       1 RES1    0.0000
      4 O4         0.6942   -0.2866    9.9812 O.3       2 RES2    0.0000
      5 O5         0.7896   -4.7702    7.7407 O.2       2 RES2    0.0000
      6 O6        10.5920    3.2666    5.7843 O.3       1 RES1    0.0000
      7 O7        -0.4939   -2.3266    5.6098 O.3       2 RES2    0.0000
      8 O8         8.3048    1.0617    4.3551 O.2       1 RES1    0.0000
      9 N1         6.6627    3.7898    3.2233 N.am      1 RES1    0.0000
     10 N2         2.7298   -1.9701    8.7575 N.am      2 RES2    0.0000
     11 N3        -0.2763   -3.5978    6.1499 N.am      2 RES2    0.0000
     12 N4         9.7860    2.1279    5.6450 N.am      1 RES1    0.0000
     13 C1         5.6063    4.0480   -1.5649 C.ar      1 RES1    0.0000
     14 H1         5.7194    4.0599   -2.5078 H         1 RES1    0.0000
     15 C2         3.9104   -1.6467   10.8450 C.ar      2 RES2    0.0000
     16 C3         5.3165    4.0384    1.2156 C.ar      1 RES1    0.0000
     17 C4         1.4492   -2.4754    9.3358 C.3       2 RES2    0.0000
     18 H2         1.5364   -3.4283    9.6261 H         2 RES2    0.0000
     19 C5         0.7708   -1.6502   10.3931 C.3       2 RES2    0.0000
     20 H3        -0.1415   -2.0013   10.5540 H         2 RES2    0.0000
     21 H4         1.2786   -1.7135   11.2397 H         2 RES2    0.0000
     22 C6         8.5938    3.3960    3.9476 C.3       1 RES1    0.0000
     23 H5         9.3505    4.0504    3.9559 H         1 RES1    0.0000
     24 C7         5.5443    2.8539    0.5131 C.ar      1 RES1    0.0000
     25 H6         5.6018    2.0324    0.9854 H         1 RES1    0.0000
     26 C8         3.6483   -0.4144   12.9055 C.ar      2 RES2    0.0000
     27 H7         3.6237    0.4179   13.3615 H         2 RES2    0.0000
     28 C9         5.6671   -4.8098    7.6422 C.ar      2 RES2    0.0000
     29 H8         5.4605   -5.4343    6.9577 H         2 RES2    0.0000
     30 C10        0.8632   -2.3798    7.9095 C.3       2 RES2    0.0000
     31 H9         0.1646   -1.6694    7.8232 H         2 RES2    0.0000
     32 C11        7.1610   -3.9907    9.3082 C.ar      2 RES2    0.0000
     33 H10        7.9873   -4.0516    9.7724 H         2 RES2    0.0000
     34 C12        3.7078   -2.8205   11.5621 C.ar      2 RES2    0.0000
     35 H11        3.7267   -3.6528   11.1054 H         2 RES2    0.0000
     36 C13        4.7633    5.2803    3.4081 C.ar      1 RES1    0.0000
     37 C14        5.6880    2.8635   -0.8701 C.ar      1 RES1    0.0000
     38 H12        5.8422    2.0503   -1.3354 H         1 RES1    0.0000
     39 C15        7.2517    3.9740    4.4402 C.2       1 RES1    0.0000
     40 C16        1.4989    3.9740   10.6086 C.ar      2 RES2    0.0000
     41 H13        2.3319    4.4134   10.7386 H         2 RES2    0.0000
     42 C17        0.4562   -3.6838    7.2705 C.2       2 RES2    0.0000
     43 C18        5.3593    5.2122   -0.8816 C.ar      1 RES1    0.0000
     44 H14        5.2877    6.0302   -1.3594 H         1 RES1    0.0000
     45 C19        2.2571   -1.9034    7.4830 C.2       2 RES2    0.0000
     46 C20        4.0864   -1.7028    9.3092 C.3       2 RES2    0.0000
     47 C21        5.8944   -0.1373    8.3583 C.ar      2 RES2    0.0000
     48 H15        6.5411   -0.8156    8.5113 H         2 RES2    0.0000
     49 C22        3.8825   -0.4430   11.5439 C.ar      2 RES2    0.0000
     50 H16        4.0263    0.3726   11.0766 H         2 RES2    0.0000
     51 C23       10.2013    0.9756    6.4204 C.3       1 RES1    0.0000
     52 H17        9.8105    0.1648    6.0346 H         1 RES1    0.0000
     53 H18        9.8949    1.0771    7.3461 H         1 RES1    0.0000
     54 H19       11.1785    0.9063    6.4062 H         1 RES1    0.0000
     55 C24        3.9887    0.7284    4.3911 C.ar      1 RES1    0.0000
     56 H20        4.2881    0.0728    5.0109 H         1 RES1    0.0000
     57 C25        4.5690   -0.3594    8.7084 C.ar      2 RES2    0.0000
     58 C26        5.2665    3.9704    2.7658 C.3       1 RES1    0.0000
     59 C27        2.3107    1.5583    2.9216 C.ar      1 RES1    0.0000
     60 H21        1.4535    1.4771    2.5222 H         1 RES1    0.0000
     61 C28        8.8963    2.0945    4.6366 C.2       1 RES1    0.0000
     62 C29        4.4009    2.7655    3.1552 C.ar      1 RES1    0.0000
     63 C30        5.1248    7.6207    3.8404 C.ar      1 RES1    0.0000
     64 H22        5.6700    8.3933    3.7546 H         1 RES1    0.0000
     65 C31        3.5442    5.3639    4.0703 C.ar      1 RES1    0.0000
     66 H23        2.9978    4.5925    4.1621 H         1 RES1    0.0000
     67 C32        3.6560    0.6687    8.5062 C.ar      2 RES2    0.0000
     68 H24        2.7488    0.5493    8.7606 H         2 RES2    0.0000
     69 C33        6.2595   -2.9900    9.6400 C.ar      2 RES2    0.0000
     70 H25        6.4694   -2.3786   10.3358 H         2 RES2    0.0000
     71 C34        3.4500   -1.5917   13.6096 C.ar      2 RES2    0.0000
     72 H26        3.2953   -1.5714   14.5459 H         2 RES2    0.0000
     73 C35        3.9122    7.7151    4.4805 C.ar      1 RES1    0.0000
     74 H27        3.6194    8.5462    4.8358 H         1 RES1    0.0000
     75 C36        5.0373   -2.8718    8.9541 C.ar      2 RES2    0.0000
     76 C37        4.7496   -3.8020    7.9694 C.ar      2 RES2    0.0000
     77 H28        3.9194   -3.7566    7.5091 H         2 RES2    0.0000
     78 C38        4.0557    1.8676    7.9363 C.ar      2 RES2    0.0000
     79 H29        3.4186    2.5602    7.8064 H         2 RES2    0.0000
     80 C39       -0.6996   -4.7167    5.3341 C.3       2 RES2    0.0000
     81 H30       -0.3329   -5.5466    5.7038 H         2 RES2    0.0000
     82 H31       -0.3736   -4.5937    4.4187 H         2 RES2    0.0000
     83 H32       -1.6780   -4.7657    5.3297 H         2 RES2    0.0000
     84 C40        5.2139    5.2111    0.4975 C.ar      1 RES1    0.0000
     85 H33        5.0410    6.0266    0.9518 H         1 RES1    0.0000
     86 C41       -0.7917    4.0468    9.9846 C.ar      2 RES2    0.0000
     87 H34       -1.5499    4.5340    9.6837 H         2 RES2    0.0000
     88 C42        3.1286    2.6270    2.5889 C.ar      1 RES1    0.0000
     89 H35        2.8208    3.2766    1.9660 H         1 RES1    0.0000
     90 C43        1.3858    2.6330   10.8630 C.ar      2 RES2    0.0000
     91 H36        2.1445    2.1530   11.1749 H         2 RES2    0.0000
     92 C44        8.5082    4.0611    1.4436 C.3       1 RES1    0.0000
     93 H37        9.4183    3.7304    1.2371 H         1 RES1    0.0000
     94 H38        7.9536    3.9775    0.6282 H         1 RES1    0.0000
     95 C45        6.8699   -4.8958    8.3125 C.ar      2 RES2    0.0000
     96 H39        7.4945   -5.5753    8.0893 H         2 RES2    0.0000
     97 C46        0.1925    1.9643   10.6765 C.ar      2 RES2    0.0000
     98 C47        2.7354    0.6173    3.8274 C.ar      1 RES1    0.0000
     99 H40        2.1674   -0.1063    4.0638 H         1 RES1    0.0000
    100 C48        9.9291    8.2966    1.9521 C.ar      1 RES1    0.0000
    101 H41       10.7332    7.8297    2.1434 H         1 RES1    0.0000
    102 C49        0.4075    4.6880   10.1641 C.ar      2 RES2    0.0000
    103 H42        0.4855    5.6182    9.9834 H         2 RES2    0.0000
    104 C50        5.5606    6.4171    3.3216 C.ar      1 RES1    0.0000
    105 H43        6.4111    6.3657    2.9034 H         1 RES1    0.0000
    106 C51        3.4792   -2.8014   12.9263 C.ar      2 RES2    0.0000
    107 H44        3.3428   -3.6145   13.3975 H         2 RES2    0.0000
    108 C52        7.7910    8.3718    0.9617 C.ar      1 RES1    0.0000
    109 H45        7.0963    7.9587    0.4627 H         1 RES1    0.0000
    110 C53       -1.8688   -1.9571    5.7565 C.3       2 RES2    0.0000
    111 H46       -2.0073   -1.0592    5.3873 H         2 RES2    0.0000
    112 H47       -2.1086   -1.9607    6.7059 H         2 RES2    0.0000
    113 H48       -2.4320   -2.5984    5.2746 H         2 RES2    0.0000
    114 C54        8.9429    7.6685    1.2364 C.ar      1 RES1    0.0000
    115 C55        4.8181    1.7959    4.0566 C.ar      1 RES1    0.0000
    116 H49        5.6803    1.8616    4.4498 H         1 RES1    0.0000
    117 C56        0.0695    0.5135   10.9937 C.3       2 RES2    0.0000
    118 H50        0.4944    0.3308   11.8678 H         2 RES2    0.0000
    119 H51       -0.8879    0.2711   11.0623 H         2 RES2    0.0000
    120 C57        7.9024    3.2420    2.5673 C.3       1 RES1    0.0000
    121 H52        7.7940    2.2819    2.3112 H         1 RES1    0.0000
    122 C58        9.7803    9.5791    2.3966 C.ar      1 RES1    0.0000
    123 H53       10.4790    9.9922    2.8914 H         1 RES1    0.0000
    124 C59        5.3688    2.0682    7.5566 C.ar      2 RES2    0.0000
    125 H54        5.6362    2.8814    7.1447 H         2 RES2    0.0000
    126 C60        3.1251    6.5855    4.5997 C.ar      1 RES1    0.0000
    127 H55        2.2897    6.6404    5.0468 H         1 RES1    0.0000
    128 C61       -0.8992    2.6843   10.2409 C.ar      2 RES2    0.0000
    129 H56       -1.7323    2.2449   10.1152 H         2 RES2    0.0000
    130 C62        6.2818    1.0663    7.7872 C.ar      2 RES2    0.0000
    131 H57        7.1921    1.2001    7.5523 H         2 RES2    0.0000
    132 C63       10.2109    3.9608    6.9797 C.3       1 RES1    0.0000
    133 H58       10.7506    4.7740    7.0704 H         1 RES1    0.0000
    134 H59       10.3589    3.3805    7.7560 H         1 RES1    0.0000
    135 H60        9.2618    4.2020    6.9289 H         1 RES1    0.0000
    136 C64        7.6346    9.6770    1.4071 C.ar      1 RES1    0.0000
    137 H61        6.8402   10.1606    1.2108 H         1 RES1    0.0000
    138 C65        9.0761    6.2356    0.7746 C.3       1 RES1    0.0000
    139 C66        8.6459   10.2633    2.1379 C.ar      1 RES1    0.0000
    140 H62        8.5445   11.1517    2.4599 H         1 RES1    0.0000
@<TRIPOS>BOND
     1    1   39 2
     2    2   45 2
     3    3   92 1
     4    4   19 1
     5    5   42 2
     6    6   12 1
     7    7   11 1
     8    8   61 2
     9    9   39 1
    10   10   17 1
    11   11   42 1
    12   12   51 1
    13   13   14 1
    14   15   34 ar
    15   16   24 ar
    16   17   18 1
    17   19   17 1
    18   20   19 1
    19   21   19 1
    20   22   23 1
    21   24   25 1
    22   26   27 1
    23   28   29 1
    24   30   17 1
    25   31   30 1
    26   32   33 1
    27   34   35 1
    28   36   58 1
    29   37   13 ar
    30   38   37 1
    31   39   22 1
    32   40   41 1
    33   42   30 1
    34   43   13 ar
    35   44   43 1
    36   45   10 1
    37   46   10 1
    38   47   48 1
    39   49   15 ar
    40   50   49 1
    41   51   52 1
    42   53   51 1
    43   54   51 1
    44   55   56 1
    45   57   46 1
    46   58    9 1
    47   59   60 1
    48   61   12 1
    49   62   58 1
    50   63   64 1
    51   65   36 ar
    52   66   65 1
    53   67   57 ar
    54   68   67 1
    55   69   32 ar
    56   70   69 1
    57   71   26 ar
    58   72   71 1
    59   73   63 ar
    60   74   73 1
    61   75   46 1
    62   76   28 ar
    63   77   76 1
    64   78   67 ar
    65   79   78 1
    66   80   11 1
    67   81   80 1
    68   82   80 1
    69   83   80 1
    70   84   16 ar
    71   85   84 1
    72   86   87 1
    73   88   59 ar
    74   89   88 1
    75   90   40 ar
    76   91   90 1
    77   92   93 1
    78   94   92 1
    79   95   28 ar
    80   96   95 1
    81   97   90 ar
    82   98   55 ar
    83   99   98 1
    84  100  101 1
    85  102   40 ar
    86  103  102 1
    87  104   36 ar
    88  105  104 1
    89  106   34 ar
    90  107  106 1
    91  108  109 1
    92  110    7 1
    93  111  110 1
    94  112  110 1
    95  113  110 1
    96  114  100 ar
    97  115   55 ar
    98  116  115 1
    99  117    4 1
   100  118  117 1
   101  119  117 1
   102  120    9 1
   103  121  120 1
   104  122  100 ar
   105  123  122 1
   106  124   78 ar
   107  125  124 1
   108  126   65 ar
   109  127  126 1
   110  128   86 ar
   111  129  128 1
   112  130   47 ar
   113  131  130 1
   114  132    6 1
   115  133  132 1
   116  134  132 1
   117  135  132 1
   118  136  108 ar
   119  137  136 1
   120  138    3 1
   121  139  122 ar
   122  140  139 1
   123   15   46 1
   124   16   58 1
   125   22   61 1
   126   22  120 1
   127   24   37 ar
   128   26   49 ar
   129   30   45 1
   130   32   95 ar
   131   43   84 ar
   132   47   57 ar
   133   59   98 ar
   134   62   88 ar
   135   62  115 ar
   136   63  104 ar
   137   69   75 ar
   138   71  106 ar
   139   73  126 ar
   140   75   76 ar
   141   86  102 ar
   142   92  120 1
   143   97  117 1
   144   97  128 ar
   145  108  114 ar
   146  114  138 1
   147  124  130 ar
   148  136  139 ar
@<TRIPOS>SUBSTRUCTURE
     1 RES1 1
     2 RES2 2

@<TRIPOS>CRYSIN
   9.5100   11.9410   23.9920  90.0000  92.1300  90.0000   4 1

