# MOL2 file generated by ConQuest
# Please check atom types

@<TRIPOS>MOLECULE
PAFHIP
    66    66     2
SMALL
NO_CHARGES
****
Generated from CSD

@<TRIPOS>ATOM
      1 O1         0.8869    7.2604    4.5329 O.2       1 RES1    0.0000
      2 O2         2.3018    4.8940    6.2081 O.3       1 RES1    0.0000
      3 C1         2.2915    9.1007    4.8349 C.2       1 RES1    0.0000
      4 O3         4.6184    9.1420    4.8909 O.2       1 RES1    0.0000
      5 O4        -0.0103   10.5714    4.7651 O.3       1 RES1    0.0000
      6 N1         2.4090   10.3792    5.1848 N.1       1 RES1    0.0000
      7 N2        -0.1390    9.2056    5.0333 N.am      1 RES1    0.0000
      8 N3         4.9020    7.0476    3.1541 N.3       1 RES1    0.0000
      9 H1         5.7217    6.9293    3.4503 H         1 RES1    0.0000
     10 C2         6.0360    7.5516   -0.3705 C.ar      1 RES1    0.0000
     11 H2         5.2386    7.7852   -0.8308 H         1 RES1    0.0000
     12 O5         2.7569    6.9234    7.0404 O.2       1 RES1    0.0000
     13 C3         3.8798    8.5375    1.4988 C.ar      1 RES1    0.0000
     14 C4         5.9801    7.2250    0.9767 C.ar      1 RES1    0.0000
     15 C5         3.8602    5.9774    1.1956 C.ar      1 RES1    0.0000
     16 C6         3.7697    7.0845    4.0678 C.3       1 RES1    0.0000
     17 H3         2.9369    6.8155    3.5850 H         1 RES1    0.0000
     18 C7         2.4762    8.6055    1.4838 C.ar      1 RES1    0.0000
     19 H4         1.9725    7.8014    1.5268 H         1 RES1    0.0000
     20 C8         3.0740    6.0203    0.0524 C.ar      1 RES1    0.0000
     21 H5         2.9863    6.8377   -0.4229 H         1 RES1    0.0000
     22 C9         4.0514    6.0942    5.2054 C.3       1 RES1    0.0000
     23 H6         4.1605    5.1896    4.8200 H         1 RES1    0.0000
     24 H7         4.9076    6.3410    5.6376 H         1 RES1    0.0000
     25 C10        3.3855    3.6095    1.3472 C.ar      1 RES1    0.0000
     26 H8         3.5161    2.7773    1.7869 H         1 RES1    0.0000
     27 C11        3.6065    8.5006    4.6347 C.2       1 RES1    0.0000
     28 C12        0.9802    8.4695    4.7526 C.2       1 RES1    0.0000
     29 C13       -1.4540    8.6912    4.6852 C.3       1 RES1    0.0000
     30 H9        -1.5174    7.7497    4.9509 H         1 RES1    0.0000
     31 H10       -1.5892    8.7681    3.7179 H         1 RES1    0.0000
     32 H11       -2.1413    9.2100    5.1530 H         1 RES1    0.0000
     33 C14        4.5634    9.7436    1.4464 C.ar      1 RES1    0.0000
     34 H12        5.5138    9.7362    1.4613 H         1 RES1    0.0000
     35 C15        8.3732    6.8746    0.9150 C.ar      1 RES1    0.0000
     36 H13        9.1762    6.6455    1.3696 H         1 RES1    0.0000
     37 C16        2.4146    4.8896   -0.4079 C.ar      1 RES1    0.0000
     38 H14        1.8588    4.9442   -1.1769 H         1 RES1    0.0000
     39 C17        4.0206    4.7447    1.8168 C.ar      1 RES1    0.0000
     40 H15        4.5811    4.6811    2.5802 H         1 RES1    0.0000
     41 C18        4.6222    7.2161    1.7046 C.3       1 RES1    0.0000
     42 C19        1.8103    9.8116    1.4071 C.ar      1 RES1    0.0000
     43 H16        0.8608    9.8279    1.3902 H         1 RES1    0.0000
     44 C20        7.2466    7.5368   -1.0553 C.ar      1 RES1    0.0000
     45 H17        7.2643    7.7556   -1.9796 H         1 RES1    0.0000
     46 C21        7.1664    6.8643    1.5960 C.ar      1 RES1    0.0000
     47 H18        7.1515    6.6027    2.5091 H         1 RES1    0.0000
     48 C22        8.4105    7.2146   -0.4173 C.ar      1 RES1    0.0000
     49 H19        9.2359    7.2250   -0.8869 H         1 RES1    0.0000
     50 C23        2.5163   10.9882    1.3565 C.ar      1 RES1    0.0000
     51 H20        2.2234   11.5425    2.1218 Du        2 SUP2    0.0000
     52 H21        2.2383   11.4641    0.5333 Du        2 SUP2    0.0000
     53 C24        3.8994   10.9601    1.3696 C.ar      1 RES1    0.0000
     54 H22        4.3927   11.7716    1.3266 H         1 RES1    0.0000
     55 C25        2.9695    6.0454    6.2607 C.2       1 RES1    0.0000
     56 C26       -0.4486   11.3577    5.8977 C.3       1 RES1    0.0000
     57 H23       -0.2042   12.2963    5.7574 H         1 RES1    0.0000
     58 H24       -0.0177   11.0266    6.7116 H         1 RES1    0.0000
     59 H25       -1.4213   11.2838    5.9894 H         1 RES1    0.0000
     60 C27        2.5648    3.6849    0.2489 C.ar      1 RES1    0.0000
     61 H26        2.1050    2.9119   -0.0580 H         1 RES1    0.0000
     62 C28        1.1947    4.8083    7.1420 C.3       1 RES1    0.0000
     63 H27        0.7834    3.9214    7.0802 H         1 RES1    0.0000
     64 H28        0.5288    5.4926    6.9231 H         1 RES1    0.0000
     65 H29        1.5249    4.9531    8.0532 H         1 RES1    0.0000
     66 N4         2.6552   11.4405    5.4561 N.2       1 RES1    0.0000
@<TRIPOS>BOND
     1    1   28 2
     2    2   55 1
     3    3    6 2
     4    4   27 2
     5    5    7 1
     6    6   66 2
     7    7   28 1
     8    8    9 1
     9   10   11 1
    10   12   55 2
    11   13   18 ar
    12   14   10 ar
    13   15   20 ar
    14   16    8 1
    15   17   16 1
    16   18   19 1
    17   20   21 1
    18   22   16 1
    19   23   22 1
    20   24   22 1
    21   25   26 1
    22   27    3 1
    23   28    3 1
    24   29    7 1
    25   30   29 1
    26   31   29 1
    27   32   29 1
    28   33   13 ar
    29   34   33 1
    30   35   36 1
    31   37   20 ar
    32   38   37 1
    33   39   15 ar
    34   40   39 1
    35   41    8 1
    36   42   18 ar
    37   43   42 1
    38   44   10 ar
    39   45   44 1
    40   46   14 ar
    41   47   46 1
    42   48   35 ar
    43   49   48 1
    44   50   42 ar
    45   53   33 ar
    46   54   53 1
    47   55   22 1
    48   56    5 1
    49   57   56 1
    50   58   56 1
    51   59   56 1
    52   60   25 ar
    53   61   60 1
    54   62    2 1
    55   63   62 1
    56   64   62 1
    57   65   62 1
    58   13   41 1
    59   14   41 1
    60   15   41 1
    61   16   27 1
    62   25   39 ar
    63   35   46 ar
    64   37   60 ar
    65   44   48 ar
    66   50   53 ar
@<TRIPOS>SUBSTRUCTURE
     1 RES1 1
     2 SUP2 51

@<TRIPOS>CRYSIN
   9.3264   14.7810   18.7110  90.0000  90.0000  90.0000  19 1

