# MOL2 file generated by ConQuest
# Please check atom types

@<TRIPOS>MOLECULE
PAFMER
    94    98     2
SMALL
NO_CHARGES
****
Generated from CSD

@<TRIPOS>ATOM
      1 O1        11.0143    6.6459    6.4009 O.3       1 RES1    0.0000
      2 O2        10.7625    9.1974    6.0673 O.3       1 RES1    0.0000
      3 C1         8.9629    5.4783   11.1254 C.ar      1 RES1    0.0000
      4 O3         7.4589    7.2843   11.1659 O.2       1 RES1    0.0000
      5 C2         6.3584   10.6621   11.3685 C.ar      1 RES1    0.0000
      6 H1         6.7924   10.7467   12.1876 H         1 RES1    0.0000
      7 C3         7.0490   10.1567   10.2735 C.ar      1 RES1    0.0000
      8 C4         9.1110    8.8875    9.3820 C.ar      1 RES1    0.0000
      9 C5        10.2627    8.7069    7.2393 C.ar      1 RES1    0.0000
     10 C6         9.1527    7.4954    9.5136 C.ar      1 RES1    0.0000
     11 C7         9.7954    6.7267    8.5210 C.ar      1 RES1    0.0000
     12 H2         9.8409    5.8038    8.6170 H         1 RES1    0.0000
     13 C8        10.3617    7.3203    7.4067 C.ar      1 RES1    0.0000
     14 C9         9.6703    9.4722    8.2336 C.ar      1 RES1    0.0000
     15 H3         9.6420   10.3974    8.1377 H         1 RES1    0.0000
     16 C10        4.4006   10.9331   10.0422 C.ar      1 RES1    0.0000
     17 C11        6.3681   10.0276    9.0680 C.ar      1 RES1    0.0000
     18 H4         6.8102    9.6727    8.3308 H         1 RES1    0.0000
     19 C12        8.4644    6.7993   10.6358 C.2       1 RES1    0.0000
     20 C13        8.0265    4.5574   11.6199 C.ar      1 RES1    0.0000
     21 H5         7.1231    4.7775   11.6273 H         1 RES1    0.0000
     22 C14        5.0417   10.4159    8.9448 C.ar      1 RES1    0.0000
     23 H6         4.5964   10.3283    8.1343 H         1 RES1    0.0000
     24 C15        8.5159    9.8193   10.4304 C.3       1 RES1    0.0000
     25 H7         8.6419    9.4147   11.3032 H         1 RES1    0.0000
     26 H8         9.0197   10.6476   10.4204 H         1 RES1    0.0000
     27 C16       10.3074    5.1284   11.1609 C.ar      1 RES1    0.0000
     28 H9        10.9477    5.7236   10.8446 H         1 RES1    0.0000
     29 C17        5.0222   11.0462   11.2537 C.ar      1 RES1    0.0000
     30 H10        4.5598   11.3730   11.9911 H         1 RES1    0.0000
     31 C18       10.6343   10.5913    5.8085 C.3       1 RES1    0.0000
     32 H11        9.7160   10.8527    5.9067 H         1 RES1    0.0000
     33 H12       10.9263   10.7796    4.9137 H         1 RES1    0.0000
     34 H13       11.1750   11.0836    6.4309 H         1 RES1    0.0000
     35 C19        8.4333    3.3371   12.0919 C.ar      1 RES1    0.0000
     36 H14        7.8021    2.7248   12.3962 H         1 RES1    0.0000
     37 C20        9.7662    3.0124   12.1187 C.ar      1 RES1    0.0000
     38 H15       10.0330    2.1841   12.4480 H         1 RES1    0.0000
     39 C21       11.1822    5.2356    6.5671 C.3       1 RES1    0.0000
     40 H16       11.6112    5.0619    7.4084 H         1 RES1    0.0000
     41 H17       11.7253    4.8926    5.8533 H         1 RES1    0.0000
     42 H18       10.3229    4.8068    6.5498 H         1 RES1    0.0000
     43 C22       10.7039    3.8970   11.6652 C.ar      1 RES1    0.0000
     44 H19       11.6063    3.6743   11.6963 H         1 RES1    0.0000
     45 O4         2.4941   11.4172    8.8067 O.2       1 RES1    0.0000
     46 N1         2.9996   11.3848    9.9222 N.pl3     1 RES1    0.0000
     47 O5         2.4312   11.7644   10.9204 O.2       1 RES1    0.0000
     48 O6         8.9317    3.9194   19.9666 O.3       2 RES2    0.0000
     49 O7         9.0596    1.3456   19.6973 O.3       2 RES2    0.0000
     50 C23        7.9984    1.4565   17.4971 C.ar      2 RES2    0.0000
     51 H20        8.0136    0.5306   17.4099 H         2 RES2    0.0000
     52 C24        7.4313    3.6252   16.5827 C.ar      2 RES2    0.0000
     53 C25        7.4590    2.2327   16.4513 C.ar      2 RES2    0.0000
     54 C26        6.9120    1.5506   15.2456 C.2       2 RES2    0.0000
     55 C27        5.4304    4.8523   15.5103 C.ar      2 RES2    0.0000
     56 C28        7.9265    4.1912   17.7601 C.ar      2 RES2    0.0000
     57 H21        7.9028    5.1164   17.8564 H         2 RES2    0.0000
     58 C29        8.5045    2.0302   18.6435 C.ar      2 RES2    0.0000
     59 C30        8.4525    3.4269   18.7890 C.ar      2 RES2    0.0000
     60 C31        2.7547    5.5466   15.4651 C.ar      2 RES2    0.0000
     61 C32        4.7981    5.2008   14.3186 C.ar      2 RES2    0.0000
     62 H22        5.2855    5.2007   13.5255 H         2 RES2    0.0000
     63 C33        6.9171    4.5692   15.5070 C.3       2 RES2    0.0000
     64 H23        7.3852    5.4135   15.5962 H         2 RES2    0.0000
     65 H24        7.1516    4.1992   14.6427 H         2 RES2    0.0000
     66 C34        3.4605    5.5478   14.2922 C.ar      2 RES2    0.0000
     67 H25        3.0460    5.7762   13.4910 H         2 RES2    0.0000
     68 C35        4.6645    4.8281   16.6687 C.ar      2 RES2    0.0000
     69 H26        5.0596    4.5668   17.4685 H         2 RES2    0.0000
     70 N2         1.3359    5.9736   15.4496 N.pl3     2 RES2    0.0000
     71 C36        7.4336    0.2084   14.8369 C.ar      2 RES2    0.0000
     72 C37        6.5649   -0.6888   14.2279 C.ar      2 RES2    0.0000
     73 H27        5.6835   -0.4417   14.0652 H         2 RES2    0.0000
     74 C38        3.3228    5.1819   16.6610 C.ar      2 RES2    0.0000
     75 H28        2.8230    5.1734   17.4444 H         2 RES2    0.0000
     76 C39        8.7671   -0.1615   15.0191 C.ar      2 RES2    0.0000
     77 H29        9.3661    0.4382   15.4031 H         2 RES2    0.0000
     78 C40        9.2644   -0.0619   19.5047 C.3       2 RES2    0.0000
     79 H30        8.4156   -0.4975   19.4064 H         2 RES2    0.0000
     80 H31        9.7250   -0.4248   20.2633 H         2 RES2    0.0000
     81 H32        9.7898   -0.2035   18.7133 H         2 RES2    0.0000
     82 C41        7.0016   -1.9432   13.8652 C.ar      2 RES2    0.0000
     83 H33        6.4113   -2.5499   13.4807 H         2 RES2    0.0000
     84 C42        8.3208   -2.2965   14.0721 C.ar      2 RES2    0.0000
     85 H34        8.6116   -3.1457   13.8290 H         2 RES2    0.0000
     86 C43        9.2029   -1.4173   14.6289 C.ar      2 RES2    0.0000
     87 H35       10.0928   -1.6611   14.7462 H         2 RES2    0.0000
     88 O8         6.0169    2.0637   14.5776 O.2       2 RES2    0.0000
     89 O9         0.7119    5.9964   16.5065 O.2       2 RES2    0.0000
     90 O10        0.8637    6.3477   14.3841 O.2       2 RES2    0.0000
     91 C44        9.0562    5.3353   20.1012 C.3       2 RES2    0.0000
     92 H36        9.6185    5.6757   19.4012 H         2 RES2    0.0000
     93 H37        9.4471    5.5433   20.9546 H         2 RES2    0.0000
     94 H38        8.1885    5.7410   20.0391 H         2 RES2    0.0000
@<TRIPOS>BOND
     1    1   13 1
     2    2    9 1
     3    3   19 1
     4    4   19 2
     5    5    6 1
     6    7    5 ar
     7    8   10 ar
     8    9   13 ar
     9   10   11 ar
    10   11   12 1
    11   13   11 ar
    12   14    8 ar
    13   15   14 1
    14   16   22 ar
    15   17    7 ar
    16   18   17 1
    17   19   10 1
    18   20    3 ar
    19   21   20 1
    20   22   17 ar
    21   23   22 1
    22   24    7 1
    23   25   24 1
    24   26   24 1
    25   27    3 ar
    26   28   27 1
    27   29    5 ar
    28   30   29 1
    29   31    2 1
    30   32   31 1
    31   33   31 1
    32   34   31 1
    33   35   20 ar
    34   36   35 1
    35   37   35 ar
    36   38   37 1
    37   39    1 1
    38   40   39 1
    39   41   39 1
    40   42   39 1
    41   43   27 ar
    42   44   43 1
    43   45   46 2
    44   46   16 1
    45   47   46 2
    46   48   59 1
    47   49   58 1
    48   50   51 1
    49   52   53 ar
    50   53   50 ar
    51   54   53 1
    52   55   61 ar
    53   56   52 ar
    54   57   56 1
    55   58   50 ar
    56   59   56 ar
    57   60   66 ar
    58   61   62 1
    59   63   52 1
    60   64   63 1
    61   65   63 1
    62   66   61 ar
    63   67   66 1
    64   68   55 ar
    65   69   68 1
    66   70   60 1
    67   71   54 1
    68   72   71 ar
    69   73   72 1
    70   74   60 ar
    71   75   74 1
    72   76   71 ar
    73   77   76 1
    74   78   49 1
    75   79   78 1
    76   80   78 1
    77   81   78 1
    78   82   72 ar
    79   83   82 1
    80   84   82 ar
    81   85   84 1
    82   86   76 ar
    83   87   86 1
    84   88   54 2
    85   89   70 2
    86   90   70 2
    87   91   48 1
    88   92   91 1
    89   93   91 1
    90   94   91 1
    91    8   24 1
    92    9   14 ar
    93   16   29 ar
    94   37   43 ar
    95   55   63 1
    96   58   59 ar
    97   68   74 ar
    98   84   86 ar
@<TRIPOS>SUBSTRUCTURE
     1 RES1 1
     2 RES2 48

@<TRIPOS>CRYSIN
   9.5340   12.5290   17.3090  85.6400  85.9980  68.9120   2 1

