# MOL2 file generated by ConQuest
# Please check atom types

@<TRIPOS>MOLECULE
PAGNUJ
    29    30     1
SMALL
NO_CHARGES
****
Generated from CSD

@<TRIPOS>ATOM
      1 O1         4.4825    2.4925    4.6182 O.2       1 RES1    0.0000
      2 N1         6.2015    4.4349    3.8495 N.2       1 RES1    0.0000
      3 C1         7.0680    5.4071    3.9017 C.2       1 RES1    0.0000
      4 H1         7.4092    5.8388    3.1524 H         1 RES1    0.0000
      5 O2         4.9046    2.8539    6.6920 O.2       1 RES1    0.0000
      6 N2         7.4176    5.7152    5.1815 N.pl3     1 RES1    0.0000
      7 C2         6.0029    4.1065    5.1504 C.2       1 RES1    0.0000
      8 O3         9.7711    4.4672    4.9272 O.2       1 RES1    0.0000
      9 N3         5.0885    3.0845    5.5031 N.pl3     1 RES1    0.0000
     10 C3         6.7255    4.8703    5.9923 C.2       1 RES1    0.0000
     11 H2         6.7469    4.8297    6.9210 H         1 RES1    0.0000
     12 N4        10.3963    5.4661    5.2396 N.pl3     1 RES1    0.0000
     13 C4         8.2757    6.7649    5.5916 C.ar      1 RES1    0.0000
     14 O4        11.6051    5.5049    5.2733 O.2       1 RES1    0.0000
     15 C5         9.6636    6.6745    5.6017 C.ar      1 RES1    0.0000
     16 O5        11.7923    9.7442    7.0616 O.2       1 RES1    0.0000
     17 N5        10.6435    9.9877    6.9244 N.pl3     1 RES1    0.0000
     18 C6        10.4116    7.7555    6.0344 C.ar      1 RES1    0.0000
     19 H3        11.3397    7.7002    6.0504 H         1 RES1    0.0000
     20 N6         7.7667   10.1778    6.8554 N.pl3     1 RES1    0.0000
     21 H4         8.2166   10.8566    7.1349 H         1 RES1    0.0000
     22 H5         6.9078   10.2110    6.8368 H         1 RES1    0.0000
     23 O6        10.2144   11.0356    7.2098 O.2       1 RES1    0.0000
     24 C7         9.7869    8.9122    6.4394 C.ar      1 RES1    0.0000
     25 N7         6.2480    8.0599    5.8938 N.pl3     1 RES1    0.0000
     26 O7         5.7388    8.3330    4.8767 O.2       1 RES1    0.0000
     27 C8         8.4001    9.0783    6.4529 C.ar      1 RES1    0.0000
     28 O8         5.5865    7.7980    6.8419 O.2       1 RES1    0.0000
     29 C9         7.7045    7.9456    5.9679 C.ar      1 RES1    0.0000
@<TRIPOS>BOND
     1    1    9 2
     2    2    3 2
     3    3    4 1
     4    5    9 2
     5    6    3 1
     6    7    2 1
     7    8   12 2
     8    9    7 1
     9   10    6 1
    10   11   10 1
    11   12   14 2
    12   13    6 1
    13   15   12 1
    14   16   17 2
    15   17   23 2
    16   18   15 ar
    17   19   18 1
    18   20   21 1
    19   22   20 1
    20   24   17 1
    21   25   26 2
    22   27   20 1
    23   28   25 2
    24   29   13 ar
    25    7   10 2
    26   13   15 ar
    27   18   24 ar
    28   24   27 ar
    29   25   29 1
    30   27   29 ar
@<TRIPOS>SUBSTRUCTURE
     1 RES1 1

@<TRIPOS>CRYSIN
   8.3830   18.4480    8.5850  90.0000 101.2600  90.0000 231 1

