# MOL2 file generated by ConQuest
# Please check atom types

@<TRIPOS>MOLECULE
PAGPOF
    72    72     2
SMALL
NO_CHARGES
****
Generated from CSD

@<TRIPOS>ATOM
      1 O1         3.9963    4.5385   14.1559 O.2       1 RES1    0.0000
      2 C1         2.2471    6.0134   14.2696 C.ar      1 RES1    0.0000
      3 N1         3.5752    5.6116   14.5815 N.pl3     1 RES1    0.0000
      4 O2         4.2828    6.3075   15.3344 O.2       1 RES1    0.0000
      5 C2         1.5757    6.9218   15.1204 C.ar      1 RES1    0.0000
      6 N2         2.2275    7.7013   15.9382 N.3       1 RES1    0.0000
      7 H1         3.0864    7.6705   15.9694 H         1 RES1    0.0000
      8 H2         1.7986    8.2463   16.4469 H         1 RES1    0.0000
      9 O3        -0.0247    8.7328   16.4676 O.2       1 RES1    0.0000
     10 N3        -0.5995    7.8264   15.8536 N.pl3     1 RES1    0.0000
     11 C3         0.1235    6.9165   15.0733 C.ar      1 RES1    0.0000
     12 C4        -0.5618    5.9228   14.3015 C.ar      1 RES1    0.0000
     13 O4        -1.8343    7.7786   15.9308 O.2       1 RES1    0.0000
     14 N4        -1.8520    5.7268   14.4764 N.3       1 RES1    0.0000
     15 H3        -2.2719    5.1599   13.9838 H         1 RES1    0.0000
     16 H4        -2.2754    6.1651   15.0834 H         1 RES1    0.0000
     17 C5         0.1644    5.2069   13.3011 C.ar      1 RES1    0.0000
     18 O5        -1.7410    4.1930   12.4946 O.2       1 RES1    0.0000
     19 N5        -0.5314    4.4243   12.3714 N.pl3     1 RES1    0.0000
     20 N6         2.2144    5.0014   12.0706 N.pl3     1 RES1    0.0000
     21 H5         1.7823    4.3676   11.6820 H         1 RES1    0.0000
     22 C6         1.6017    5.3919   13.1683 C.ar      1 RES1    0.0000
     23 O6         0.0705    3.8822   11.4113 O.2       1 RES1    0.0000
     24 C7         3.4588    5.3569   11.3087 C.3       1 RES1    0.0000
     25 C8         4.3161    4.1073   11.1843 C.3       1 RES1    0.0000
     26 H6         4.6570    3.8649   12.0485 H         1 RES1    0.0000
     27 H7         5.0494    4.2800   10.5891 H         1 RES1    0.0000
     28 H8         3.7841    3.3877   10.8363 H         1 RES1    0.0000
     29 C9         2.9191    5.7597    9.9401 C.3       1 RES1    0.0000
     30 H9         2.3959    6.5595   10.0259 H         1 RES1    0.0000
     31 H10        2.3693    5.0537    9.5921 H         1 RES1    0.0000
     32 H11        3.6515    5.9186    9.3416 H         1 RES1    0.0000
     33 C10        4.2064    6.5237   11.8922 C.3       1 RES1    0.0000
     34 H12        4.5636    6.2792   12.7480 H         1 RES1    0.0000
     35 H13        3.6080    7.2672   11.9947 H         1 RES1    0.0000
     36 H14        4.9244    6.7694   11.3037 H         1 RES1    0.0000
     37 O7         8.8215   -1.5465   11.3826 O.2       2 RES2    0.0000
     38 N7         9.5689   -0.6855   11.8421 N.pl3     2 RES2    0.0000
     39 O8        10.8028   -0.8396   11.7716 O.2       2 RES2    0.0000
     40 N8        11.0781    1.0442   13.4995 N.pl3     2 RES2    0.0000
     41 H15       11.4872    0.5638   12.9161 H         2 RES2    0.0000
     42 H16       11.5275    1.4728   14.0947 H         2 RES2    0.0000
     43 N9         9.7265    2.6688   15.4013 N.pl3     2 RES2    0.0000
     44 O9        10.9670    2.6410   15.4307 O.2       2 RES2    0.0000
     45 O10        9.1287    3.3897   16.2020 O.2       2 RES2    0.0000
     46 N10        6.9318    2.3824   15.4877 N.pl3     2 RES2    0.0000
     47 H17        6.0720    2.3614   15.4835 H         2 RES2    0.0000
     48 H18        7.3486    2.7788   16.1275 H         2 RES2    0.0000
     49 N11        5.5057    1.1318   13.4743 N.pl3     2 RES2    0.0000
     50 O11        4.8487    1.4266   14.4729 O.2       2 RES2    0.0000
     51 C11        9.0236    0.4157   12.5008 C.ar      2 RES2    0.0000
     52 O12        4.8774    0.7580   12.4512 O.2       2 RES2    0.0000
     53 C12        9.7675    1.1228   13.4844 C.ar      2 RES2    0.0000
     54 N12        7.0456    0.5920   11.1346 N.pl3     2 RES2    0.0000
     55 H19        6.2066    0.4246   11.2180 H         2 RES2    0.0000
     56 C13        9.0349    1.8961   14.4512 C.ar      2 RES2    0.0000
     57 C14        7.6038    1.8139   14.5235 C.ar      2 RES2    0.0000
     58 C15        6.9065    1.1534   13.4592 C.ar      2 RES2    0.0000
     59 C16        7.6402    0.7039   12.3108 C.ar      2 RES2    0.0000
     60 C17        7.4496    0.6814    9.7014 C.3       2 RES2    0.0000
     61 C18        6.6652    1.8951    9.2087 C.3       2 RES2    0.0000
     62 H20        5.7259    1.7441    9.3382 H         2 RES2    0.0000
     63 H21        6.8404    2.0320    8.2756 H         2 RES2    0.0000
     64 H22        6.9357    2.6724    9.7031 H         2 RES2    0.0000
     65 C19        6.9709   -0.5579    9.0103 C.3       2 RES2    0.0000
     66 H23        7.4713   -1.3139    9.3264 H         2 RES2    0.0000
     67 H24        7.0954   -0.4648    8.0637 H         2 RES2    0.0000
     68 H25        6.0386   -0.6893    9.1987 H         2 RES2    0.0000
     69 C20        8.9268    0.9276    9.4727 C.3       2 RES2    0.0000
     70 H26        9.4288    0.1648    9.7703 H         2 RES2    0.0000
     71 H27        9.2020    1.7042    9.9654 H         2 RES2    0.0000
     72 H28        9.0872    1.0695    8.5362 H         2 RES2    0.0000
@<TRIPOS>BOND
     1    1    3 2
     2    2    3 1
     3    3    4 2
     4    5    2 ar
     5    6    5 1
     6    7    6 1
     7    8    6 1
     8    9   10 2
     9   10   11 1
    10   11    5 ar
    11   12   11 ar
    12   13   10 2
    13   14   12 1
    14   15   14 1
    15   16   14 1
    16   17   12 ar
    17   18   19 2
    18   19   17 1
    19   20   21 1
    20   22    2 ar
    21   23   19 2
    22   24   20 1
    23   25   24 1
    24   26   25 1
    25   27   25 1
    26   28   25 1
    27   29   24 1
    28   30   29 1
    29   31   29 1
    30   32   29 1
    31   33   24 1
    32   34   33 1
    33   35   33 1
    34   36   33 1
    35   37   38 2
    36   38   39 2
    37   40   41 1
    38   42   40 1
    39   43   44 2
    40   45   43 2
    41   46   47 1
    42   48   46 1
    43   49   50 2
    44   51   38 1
    45   52   49 2
    46   53   40 1
    47   54   55 1
    48   56   43 1
    49   57   46 1
    50   58   49 1
    51   59   51 ar
    52   60   54 1
    53   61   60 1
    54   62   61 1
    55   63   61 1
    56   64   61 1
    57   65   60 1
    58   66   65 1
    59   67   65 1
    60   68   65 1
    61   69   60 1
    62   70   69 1
    63   71   69 1
    64   72   69 1
    65   17   22 ar
    66   20   22 1
    67   51   53 ar
    68   53   56 ar
    69   54   59 1
    70   56   57 ar
    71   57   58 ar
    72   58   59 ar
@<TRIPOS>SUBSTRUCTURE
     1 RES1 1
     2 RES2 37

@<TRIPOS>CRYSIN
   9.0040    9.1020   17.1050  99.3900  93.7600  96.5400   2 1

