# MOL2 file generated by ConQuest
# Please check atom types

@<TRIPOS>MOLECULE
PAHBEG
    38    39     1
SMALL
NO_CHARGES
****
Generated from CSD

@<TRIPOS>ATOM
      1 C1         6.7427    0.8311    7.4948 C.ar      1 RES1    0.0000
      2 C2         7.8478    1.5804    7.1140 C.ar      1 RES1    0.0000
      3 H1         8.4229    1.9124    7.7651 H         1 RES1    0.0000
      4 C3         8.1028    1.8386    5.7884 C.ar      1 RES1    0.0000
      5 H2         8.8452    2.3399    5.5364 H         1 RES1    0.0000
      6 C4         7.2342    1.3388    4.8379 C.ar      1 RES1    0.0000
      7 C5         6.1160    0.6184    5.1707 C.ar      1 RES1    0.0000
      8 H3         5.5391    0.3052    4.5122 H         1 RES1    0.0000
      9 C6         5.8650    0.3674    6.5062 C.ar      1 RES1    0.0000
     10 H4         5.1072   -0.1128    6.7512 H         1 RES1    0.0000
     11 C7         6.5198    0.4890    8.9116 C.2       1 RES1    0.0000
     12 H5         5.7729   -0.0137    9.1455 H         1 RES1    0.0000
     13 C8         7.0693    0.4137   11.1772 C.3       1 RES1    0.0000
     14 H6         6.2582   -0.1172   11.2053 H         1 RES1    0.0000
     15 H7         6.9501    1.1819   11.7579 H         1 RES1    0.0000
     16 N1         7.5402    1.5753    3.4152 N.pl3     1 RES1    0.0000
     17 N2         7.3174    0.8622    9.8138 N.2       1 RES1    0.0000
     18 O1         6.8435    1.0235    2.5775 O.2       1 RES1    0.0000
     19 O2         8.5001    2.2892    3.1388 O.2       1 RES1    0.0000
     20 C8B        8.2388   -0.4137   11.6581 C.3       1 RES1    0.0000
     21 H6B        9.0499    0.1172   11.6300 H         1 RES1    0.0000
     22 H7B        8.3580   -1.1819   11.0774 H         1 RES1    0.0000
     23 N2B        7.9907   -0.8622   13.0215 N.2       1 RES1    0.0000
     24 C7B        8.7883   -0.4890   13.9237 C.2       1 RES1    0.0000
     25 C1B        8.5654   -0.8311   15.3405 C.ar      1 RES1    0.0000
     26 C2B        7.4603   -1.5804   15.7213 C.ar      1 RES1    0.0000
     27 H1B        6.8852   -1.9124   15.0701 H         1 RES1    0.0000
     28 C3B        7.2054   -1.8386   17.0469 C.ar      1 RES1    0.0000
     29 H2B        6.4629   -2.3399   17.2989 H         1 RES1    0.0000
     30 C4B        8.0739   -1.3388   17.9974 C.ar      1 RES1    0.0000
     31 C5B        9.1921   -0.6184   17.6646 C.ar      1 RES1    0.0000
     32 H3B        9.7690   -0.3052   18.3230 H         1 RES1    0.0000
     33 C6B        9.4431   -0.3674   16.3290 C.ar      1 RES1    0.0000
     34 H4B       10.2009    0.1128   16.0840 H         1 RES1    0.0000
     35 N1B        7.7679   -1.5753   19.4200 N.pl3     1 RES1    0.0000
     36 O1B        8.4647   -1.0235   20.2577 O.2       1 RES1    0.0000
     37 O2B        6.8080   -2.2892   19.6965 O.2       1 RES1    0.0000
     38 H5B        9.5352    0.0137   13.6897 H         1 RES1    0.0000
@<TRIPOS>BOND
     1    1    2 ar
     2    2    3 1
     3    4    2 ar
     4    5    4 1
     5    6    4 ar
     6    7    6 ar
     7    8    7 1
     8    9    1 ar
     9   10    9 1
    10   11    1 1
    11   12   11 1
    12   13   14 1
    13   15   13 1
    14   16    6 1
    15   17   11 2
    16   18   16 2
    17   19   16 2
    18   20   13 1
    19   21   20 1
    20   22   20 1
    21   23   20 1
    22   24   23 2
    23   25   24 1
    24   26   25 ar
    25   27   26 1
    26   28   26 ar
    27   29   28 1
    28   30   28 ar
    29   31   30 ar
    30   32   31 1
    31   33   25 ar
    32   34   33 1
    33   35   30 1
    34   36   35 2
    35   37   35 2
    36   38   24 1
    37    7    9 ar
    38   13   17 1
    39   31   33 ar
@<TRIPOS>SUBSTRUCTURE
     1 RES1 1

@<TRIPOS>CRYSIN
   9.1560    7.2330   11.5160  90.0000  97.4940  90.0000 231 1

