# MOL2 file generated by ConQuest
# Please check atom types

@<TRIPOS>MOLECULE
PAHBIK
   116   120     2
SMALL
NO_CHARGES
****
Generated from CSD

@<TRIPOS>ATOM
      1 O1         5.8156    9.1954    1.7510 O.3       1 RES1    0.0000
      2 O2         3.9624    8.0643    0.2233 O.3       1 RES1    0.0000
      3 O3         2.2002    8.6848   -3.7957 O.2       1 RES1    0.0000
      4 O4         0.7493    8.1018   -2.1888 O.3       1 RES1    0.0000
      5 O5        11.3533    5.7656    9.2860 O.3       2 RES2    0.0000
      6 O6         9.3789    4.0064    9.4950 O.3       2 RES2    0.0000
      7 O7         7.7497    2.1081   12.9988 O.2       2 RES2    0.0000
      8 O8         6.3846    2.8299   11.3872 O.3       2 RES2    0.0000
      9 N1         6.9060    9.5494    2.5971 N.2       1 RES1    0.0000
     10 N2         6.6461    7.3118    2.5736 N.2       1 RES1    0.0000
     11 N3         4.4317   11.0182   -1.3447 N.3       1 RES1    0.0000
     12 N4         3.6851    5.0810    0.4147 N.3       1 RES1    0.0000
     13 N5        12.4298    6.6262    8.9378 N.2       2 RES2    0.0000
     14 N6        12.0827    5.1093    7.3027 N.2       2 RES2    0.0000
     15 N7        10.1562    5.3962   12.8057 N.3       2 RES2    0.0000
     16 N8         9.0525    2.0859    7.2171 N.3       2 RES2    0.0000
     17 C1         9.9231    6.9747    5.3167 C.ar      1 RES1    0.0000
     18 H1        10.2045    6.1408    5.6172 H         1 RES1    0.0000
     19 C2         8.8918    7.0559    4.4135 C.ar      1 RES1    0.0000
     20 H2         8.4834    6.2819    4.0979 H         1 RES1    0.0000
     21 C3         8.4634    8.3033    3.9703 C.ar      1 RES1    0.0000
     22 C4         9.1018    9.4390    4.4269 C.ar      1 RES1    0.0000
     23 H3         8.8273   10.2748    4.1281 H         1 RES1    0.0000
     24 C5        10.1700    9.3368    5.3436 C.ar      1 RES1    0.0000
     25 H4        10.6126   10.0972    5.6441 H         1 RES1    0.0000
     26 C6        10.5372    8.1007    5.7767 C.ar      1 RES1    0.0000
     27 H5        11.2224    8.0216    6.4012 H         1 RES1    0.0000
     28 C7         7.3312    8.4044    3.0252 C.2       1 RES1    0.0000
     29 C8         5.7327    7.8277    1.7997 C.2       1 RES1    0.0000
     30 C9         4.7006    7.2340    1.0392 C.2       1 RES1    0.0000
     31 C10        2.7791    8.6100    0.7269 C.ar      1 RES1    0.0000
     32 C11        2.3386    8.3838    2.0095 C.ar      1 RES1    0.0000
     33 H6         2.8421    7.8594    2.5887 H         1 RES1    0.0000
     34 C12        1.1528    8.9365    2.4325 C.ar      1 RES1    0.0000
     35 H7         0.8618    8.7969    3.3038 H         1 RES1    0.0000
     36 C13        0.3911    9.6991    1.5646 C.ar      1 RES1    0.0000
     37 H8        -0.4232   10.0582    1.8349 H         1 RES1    0.0000
     38 C14        0.8679    9.9134    0.2904 C.ar      1 RES1    0.0000
     39 H9         0.3727   10.4531   -0.2837 H         1 RES1    0.0000
     40 C15        2.0490    9.3637   -0.1746 C.ar      1 RES1    0.0000
     41 C16        2.5189    9.5255   -1.5713 C.2       1 RES1    0.0000
     42 C17        1.8453    8.7559   -2.6306 C.2       1 RES1    0.0000
     43 C18        0.0351    7.3500   -3.1779 C.3       1 RES1    0.0000
     44 H10       -0.7191    6.9183   -2.7683 H         1 RES1    0.0000
     45 H11        0.6165    6.6875   -3.5573 H         1 RES1    0.0000
     46 H12       -0.2708    7.9414   -3.8696 H         1 RES1    0.0000
     47 C19        3.6342   10.1692   -1.9826 C.2       1 RES1    0.0000
     48 H13        3.8845    9.9882   -2.8590 H         1 RES1    0.0000
     49 C20        5.7088   11.4141   -1.9356 C.3       1 RES1    0.0000
     50 H14        5.8095   10.9932   -2.7918 H         1 RES1    0.0000
     51 H15        6.4265   11.1432   -1.3581 H         1 RES1    0.0000
     52 H16        5.7288   12.3685   -2.0431 H         1 RES1    0.0000
     53 C21        4.1394   11.5877   -0.0504 C.3       1 RES1    0.0000
     54 H17        3.2843   11.2729    0.2535 H         1 RES1    0.0000
     55 H18        4.1221   12.5459   -0.1175 H         1 RES1    0.0000
     56 H19        4.8182   11.3247    0.5758 H         1 RES1    0.0000
     57 C22        4.5528    5.8715    1.0526 C.2       1 RES1    0.0000
     58 H20        5.1587    5.4206    1.5965 H         1 RES1    0.0000
     59 C23        3.7374    3.6452    0.6262 C.3       1 RES1    0.0000
     60 H21        4.3992    3.4429    1.2910 H         1 RES1    0.0000
     61 H22        3.9671    3.2082   -0.1981 H         1 RES1    0.0000
     62 H23        2.8790    3.3330    0.9233 H         1 RES1    0.0000
     63 C24        2.7161    5.5378   -0.5372 C.3       1 RES1    0.0000
     64 H24        2.7581    6.4942   -0.6027 H         1 RES1    0.0000
     65 H25        1.8378    5.2747   -0.2501 H         1 RES1    0.0000
     66 H26        2.9014    5.1493   -1.3951 H         1 RES1    0.0000
     67 C25       15.4250    8.6243    6.7017 C.ar      2 RES2    0.0000
     68 H27       15.7660    9.4440    6.9753 H         2 RES2    0.0000
     69 C26       14.4031    8.0253    7.4286 C.ar      2 RES2    0.0000
     70 H28       14.0640    8.4450    8.1874 H         2 RES2    0.0000
     71 C27       13.8908    6.8052    7.0223 C.ar      2 RES2    0.0000
     72 C28       14.4070    6.2130    5.8808 C.ar      2 RES2    0.0000
     73 H29       14.0636    5.4019    5.5853 H         2 RES2    0.0000
     74 C29       15.4276    6.8229    5.1824 C.ar      2 RES2    0.0000
     75 H30       15.7775    6.4111    4.4253 H         2 RES2    0.0000
     76 C30       15.9293    8.0222    5.5920 C.ar      2 RES2    0.0000
     77 H31       16.6158    8.4281    5.1136 H         2 RES2    0.0000
     78 C31       12.8049    6.1646    7.7778 C.2       2 RES2    0.0000
     79 C32       11.2137    4.9042    8.2512 C.2       2 RES2    0.0000
     80 C33       10.1363    3.9566    8.3318 C.2       2 RES2    0.0000
     81 C34        8.3773    4.9618    9.5707 C.ar      2 RES2    0.0000
     82 C35        7.7487    5.0934   10.8097 C.ar      2 RES2    0.0000
     83 C36        6.7493    6.0243   10.9104 C.ar      2 RES2    0.0000
     84 H32        6.3283    6.1351   11.7313 H         2 RES2    0.0000
     85 C37        6.3393    6.8020    9.8494 C.ar      2 RES2    0.0000
     86 H33        5.6464    7.4140    9.9501 H         2 RES2    0.0000
     87 C38        6.9739    6.6553    8.6524 C.ar      2 RES2    0.0000
     88 H34        6.7168    7.1857    7.9322 H         2 RES2    0.0000
     89 C39        7.9917    5.7340    8.4862 C.ar      2 RES2    0.0000
     90 H35        8.4091    5.6342    7.6619 H         2 RES2    0.0000
     91 C40        8.1835    4.2065   11.9378 C.2       2 RES2    0.0000
     92 C41        7.4691    2.9640   12.1829 C.2       2 RES2    0.0000
     93 C42        5.6110    1.6247   11.5584 C.3       2 RES2    0.0000
     94 H36        4.8727    1.6278   10.9440 H         2 RES2    0.0000
     95 H37        5.2789    1.5828   12.4582 H         2 RES2    0.0000
     96 H38        6.1661    0.8606   11.3872 H         2 RES2    0.0000
     97 C43        9.2911    4.3807   12.6932 C.2       2 RES2    0.0000
     98 H39        9.4905    3.6566   13.2422 H         2 RES2    0.0000
     99 C44       11.3528    5.2398   13.5914 C.3       2 RES2    0.0000
    100 H40       11.3882    4.3488   13.9473 H         2 RES2    0.0000
    101 H41       11.3466    5.8729   14.3133 H         2 RES2    0.0000
    102 H42       12.1219    5.3953   13.0374 H         2 RES2    0.0000
    103 C45        9.9601    6.6883   12.2064 C.3       2 RES2    0.0000
    104 H43        9.1427    6.6874   11.7028 H         2 RES2    0.0000
    105 H44       10.6955    6.8844   11.6205 H         2 RES2    0.0000
    106 H45        9.9129    7.3566   12.8947 H         2 RES2    0.0000
    107 C46        9.9734    3.0445    7.3564 C.2       2 RES2    0.0000
    108 H46       10.6013    3.0884    6.6715 H         2 RES2    0.0000
    109 C47        7.9902    1.8010    8.1572 C.3       2 RES2    0.0000
    110 H47        8.0414    2.4161    8.8942 H         2 RES2    0.0000
    111 H48        8.0833    0.9029    8.4845 H         2 RES2    0.0000
    112 H49        7.1409    1.8962    7.7207 H         2 RES2    0.0000
    113 C48        9.0930    1.2167    6.0402 C.3       2 RES2    0.0000
    114 H50        9.8139    1.4869    5.4678 H         2 RES2    0.0000
    115 H51        8.2623    1.2847    5.5635 H         2 RES2    0.0000
    116 H52        9.2294    0.3081    6.3189 H         2 RES2    0.0000
@<TRIPOS>BOND
     1    1    9 1
     2    2   30 1
     3    3   42 2
     4    4   42 1
     5    5   13 1
     6    6   80 1
     7    7   92 2
     8    8   92 1
     9    9   28 2
    10   10   28 1
    11   11   47 1
    12   12   57 1
    13   13   78 2
    14   14   78 1
    15   15   97 1
    16   16  107 1
    17   17   18 1
    18   19   17 ar
    19   20   19 1
    20   21   19 ar
    21   22   21 ar
    22   23   22 1
    23   24   22 ar
    24   25   24 1
    25   26   17 ar
    26   27   26 1
    27   28   21 1
    28   29    1 1
    29   30   29 1
    30   31    2 1
    31   32   31 ar
    32   33   32 1
    33   34   32 ar
    34   35   34 1
    35   36   34 ar
    36   37   36 1
    37   38   36 ar
    38   39   38 1
    39   40   31 ar
    40   41   40 1
    41   42   41 1
    42   43    4 1
    43   44   43 1
    44   45   43 1
    45   46   43 1
    46   47   41 2
    47   48   47 1
    48   49   11 1
    49   50   49 1
    50   51   49 1
    51   52   49 1
    52   53   11 1
    53   54   53 1
    54   55   53 1
    55   56   53 1
    56   57   30 2
    57   58   57 1
    58   59   12 1
    59   60   59 1
    60   61   59 1
    61   62   59 1
    62   63   12 1
    63   64   63 1
    64   65   63 1
    65   66   63 1
    66   67   68 1
    67   69   67 ar
    68   70   69 1
    69   71   69 ar
    70   72   71 ar
    71   73   72 1
    72   74   72 ar
    73   75   74 1
    74   76   67 ar
    75   77   76 1
    76   78   71 1
    77   79    5 1
    78   80   79 1
    79   81    6 1
    80   82   81 ar
    81   83   82 ar
    82   84   83 1
    83   85   83 ar
    84   86   85 1
    85   87   85 ar
    86   88   87 1
    87   89   81 ar
    88   90   89 1
    89   91   82 1
    90   92   91 1
    91   93    8 1
    92   94   93 1
    93   95   93 1
    94   96   93 1
    95   97   91 2
    96   98   97 1
    97   99   15 1
    98  100   99 1
    99  101   99 1
   100  102   99 1
   101  103   15 1
   102  104  103 1
   103  105  103 1
   104  106  103 1
   105  107   80 2
   106  108  107 1
   107  109   16 1
   108  110  109 1
   109  111  109 1
   110  112  109 1
   111  113   16 1
   112  114  113 1
   113  115  113 1
   114  116  113 1
   115   10   29 2
   116   14   79 2
   117   24   26 ar
   118   38   40 ar
   119   74   76 ar
   120   87   89 ar
@<TRIPOS>SUBSTRUCTURE
     1 RES1 1
     2 RES2 5

@<TRIPOS>CRYSIN
  11.2200   12.2600   17.7620  71.0600  86.3500  85.1900   2 1

