# MOL2 file generated by ConQuest
# Please check atom types

@<TRIPOS>MOLECULE
PAHHEN
    35    35     1
SMALL
NO_CHARGES
****
Generated from CSD

@<TRIPOS>ATOM
      1 O1         8.0958    4.2450    1.1292 O.3       1 RES1    0.0000
      2 O2         6.6470    5.6302    2.1838 O.3       1 RES1    0.0000
      3 O3         9.7281    3.2854    4.9071 O.2       1 RES1    0.0000
      4 N1         7.7327    4.7158    2.4313 N.3       1 RES1    0.0000
      5 N2         9.8822    2.2386    2.9180 N.am      1 RES1    0.0000
      6 H1        10.0219    2.3259    2.0741 H         1 RES1    0.0000
      7 C1         7.3389    3.0584    0.8438 C.3       1 RES1    0.0000
      8 H2         7.5115    2.4068    1.5421 H         1 RES1    0.0000
      9 H3         7.6570    2.6822    0.0085 H         1 RES1    0.0000
     10 C2         5.8535    3.2665    0.7408 C.3       1 RES1    0.0000
     11 H4         5.4493    2.4625    0.3799 H         1 RES1    0.0000
     12 H5         5.6815    3.9896    0.1162 H         1 RES1    0.0000
     13 C3         5.1972    3.5944    2.0609 C.3       1 RES1    0.0000
     14 H6         5.5489    2.9954    2.7375 H         1 RES1    0.0000
     15 H7         4.2468    3.4221    1.9834 H         1 RES1    0.0000
     16 C4         5.3926    5.0374    2.5400 C.3       1 RES1    0.0000
     17 H8         4.6792    5.5829    2.1734 H         1 RES1    0.0000
     18 H9         5.3073    5.0553    3.5057 H         1 RES1    0.0000
     19 C5         8.8705    5.5398    2.8651 C.3       1 RES1    0.0000
     20 C6        10.1208    4.6391    2.9397 C.3       1 RES1    0.0000
     21 H10       10.4095    4.4258    2.0392 H         1 RES1    0.0000
     22 H11       10.8371    5.1278    3.3734 H         1 RES1    0.0000
     23 C7         9.8743    3.3401    3.7023 C.2       1 RES1    0.0000
     24 C8         9.6629    0.9186    3.4632 C.3       1 RES1    0.0000
     25 H12        9.6025    0.2817    2.7469 H         1 RES1    0.0000
     26 H13        8.8442    0.9123    3.9659 H         1 RES1    0.0000
     27 H14       10.3942    0.6842    4.0396 H         1 RES1    0.0000
     28 C9         8.5193    6.0937    4.2116 C.3       1 RES1    0.0000
     29 H15        8.2744    5.3748    4.7993 H         1 RES1    0.0000
     30 H16        7.7824    6.7022    4.1256 H         1 RES1    0.0000
     31 H17        9.2772    6.5582    4.5744 H         1 RES1    0.0000
     32 C10        9.1907    6.6970    1.8899 C.3       1 RES1    0.0000
     33 H18        8.4437    7.2992    1.8521 H         1 RES1    0.0000
     34 H19        9.3586    6.3407    1.0149 H         1 RES1    0.0000
     35 H20        9.9670    7.1699    2.1979 H         1 RES1    0.0000
@<TRIPOS>BOND
     1    1    4 1
     2    2    4 1
     3    3   23 2
     4    4   19 1
     5    5    6 1
     6    7    1 1
     7    8    7 1
     8    9    7 1
     9   10    7 1
    10   11   10 1
    11   12   10 1
    12   13   10 1
    13   14   13 1
    14   15   13 1
    15   16    2 1
    16   17   16 1
    17   18   16 1
    18   19   20 1
    19   20   21 1
    20   22   20 1
    21   23    5 1
    22   24    5 1
    23   25   24 1
    24   26   24 1
    25   27   24 1
    26   28   19 1
    27   29   28 1
    28   30   28 1
    29   31   28 1
    30   32   19 1
    31   33   32 1
    32   34   32 1
    33   35   32 1
    34   13   16 1
    35   20   23 1
@<TRIPOS>SUBSTRUCTURE
     1 RES1 1

@<TRIPOS>CRYSIN
  11.8370   10.5100    9.6100  90.0000 100.4900  90.0000  14 1

