# MOL2 file generated by ConQuest
# Please check atom types

@<TRIPOS>MOLECULE
PAHHIR
    31    30     1
SMALL
NO_CHARGES
****
Generated from CSD

@<TRIPOS>ATOM
      1 O1         9.4363    7.6951    3.5799 O.3       1 RES1    0.0000
      2 O2        10.6793    6.3654    4.9295 O.3       1 RES1    0.0000
      3 O3         8.6888    4.3077    1.1925 O.2       1 RES1    0.0000
      4 N1         9.8784    6.3526    3.7372 N.3       1 RES1    0.0000
      5 N2         7.6221    6.2573    1.3139 N.am      1 RES1    0.0000
      6 H1         7.6958    7.1132    1.3537 H         1 RES1    0.0000
      7 C1         8.2297    7.8984    4.2948 C.3       1 RES1    0.0000
      8 H2         7.8272    8.7236    4.0144 H         1 RES1    0.0000
      9 H3         8.4181    7.9374    5.2349 H         1 RES1    0.0000
     10 H4         7.6275    7.1722    4.1186 H         1 RES1    0.0000
     11 C2        10.0592    5.5448    5.9104 C.3       1 RES1    0.0000
     12 H5        10.5449    5.6104    6.7350 H         1 RES1    0.0000
     13 H6        10.0592    4.6330    5.6099 H         1 RES1    0.0000
     14 H7         9.1551    5.8370    6.0470 H         1 RES1    0.0000
     15 C3        10.8319    6.1301    2.6108 C.3       1 RES1    0.0000
     16 C4        11.9876    7.1361    2.5937 C.3       1 RES1    0.0000
     17 H8        12.4889    7.0609    3.4085 H         1 RES1    0.0000
     18 H9        11.6362    8.0259    2.5142 H         1 RES1    0.0000
     19 H10       12.5614    6.9505    1.8463 H         1 RES1    0.0000
     20 C5        11.3585    4.7124    2.7701 C.3       1 RES1    0.0000
     21 H11       10.6206    4.1029    2.8427 H         1 RES1    0.0000
     22 H12       11.8970    4.6578    3.5639 H         1 RES1    0.0000
     23 H13       11.8907    4.4807    2.0061 H         1 RES1    0.0000
     24 C6        10.0237    6.2846    1.3215 C.3       1 RES1    0.0000
     25 H14        9.8342    7.2265    1.1894 H         1 RES1    0.0000
     26 H15       10.5733    5.9911    0.5770 H         1 RES1    0.0000
     27 C7         8.7298    5.5308    1.2793 C.2       1 RES1    0.0000
     28 C8         6.3003    5.6825    1.2877 C.3       1 RES1    0.0000
     29 H16        5.6488    6.3718    1.4380 H         1 RES1    0.0000
     30 H17        6.2271    5.0175    1.9772 H         1 RES1    0.0000
     31 H18        6.1451    5.2754    0.4327 H         1 RES1    0.0000
@<TRIPOS>BOND
     1    1    4 1
     2    2    4 1
     3    3   27 2
     4    4   15 1
     5    5    6 1
     6    7    1 1
     7    8    7 1
     8    9    7 1
     9   10    7 1
    10   11    2 1
    11   12   11 1
    12   13   11 1
    13   14   11 1
    14   15   16 1
    15   16   17 1
    16   18   16 1
    17   19   16 1
    18   20   15 1
    19   21   20 1
    20   22   20 1
    21   23   20 1
    22   24   15 1
    23   25   24 1
    24   26   24 1
    25   27    5 1
    26   28    5 1
    27   29   28 1
    28   30   28 1
    29   31   28 1
    30   24   27 1
@<TRIPOS>SUBSTRUCTURE
     1 RES1 1

@<TRIPOS>CRYSIN
  10.5134    9.5173   22.1910  90.0000  90.0000  90.0000  61 1

