# MOL2 file generated by ConQuest
# Please check atom types

@<TRIPOS>MOLECULE
PAHXIH
    90    96     1
SMALL
NO_CHARGES
****
Generated from CSD

@<TRIPOS>ATOM
      1 O1        20.6954    6.8612   28.7002 O.2       1 RES1    0.0000
      2 O2        22.3593    5.5103   29.0343 O.2       1 RES1    0.0000
      3 O3        19.6476   -0.0127   28.4434 O.2       1 RES1    0.0000
      4 O4        21.5673    0.7289   29.1498 O.2       1 RES1    0.0000
      5 O5         8.8217    9.2696   38.0104 O.2       1 RES1    0.0000
      6 O6         8.1366    9.4015   35.9430 O.2       1 RES1    0.0000
      7 O7        11.9653    5.7781   39.0987 O.2       1 RES1    0.0000
      8 O8        13.4218    5.2042   37.5940 O.2       1 RES1    0.0000
      9 N1        16.2604    6.2372   30.0972 N.pl3     1 RES1    0.0000
     10 H1        16.5357    5.9810   30.8814 H         1 RES1    0.0000
     11 N2        14.7635    3.2310   30.7535 N.pl3     1 RES1    0.0000
     12 H2        14.0877    3.4303   30.2421 H         1 RES1    0.0000
     13 N3        12.7935    4.8842   32.8939 N.pl3     1 RES1    0.0000
     14 H3        13.5840    5.0766   33.2002 H         1 RES1    0.0000
     15 N4        13.9571    7.7744   31.8735 N.pl3     1 RES1    0.0000
     16 H4        13.6502    7.4094   31.1450 H         1 RES1    0.0000
     17 N5        21.1654    5.7446   28.8403 N.pl3     1 RES1    0.0000
     18 N6        20.4031    0.8848   28.7789 N.pl3     1 RES1    0.0000
     19 N7         8.8955    8.9764   36.8142 N.pl3     1 RES1    0.0000
     20 N8        12.3945    5.7841   37.9523 N.pl3     1 RES1    0.0000
     21 C1        15.9098    7.5298   29.7667 C.2       1 RES1    0.0000
     22 C2        15.5282    7.5107   28.4531 C.2       1 RES1    0.0000
     23 H5        15.2337    8.2501   27.9522 H         1 RES1    0.0000
     24 C3        15.6540    6.1775   27.9760 C.2       1 RES1    0.0000
     25 H6        15.4583    5.8792   27.1070 H         1 RES1    0.0000
     26 C4        16.1096    5.4101   29.0032 C.2       1 RES1    0.0000
     27 C5        16.4869    3.9456   29.0595 C.3       1 RES1    0.0000
     28 C6        15.7733    3.2090   27.9041 C.3       1 RES1    0.0000
     29 H7        15.9430    2.2567   27.9738 H         1 RES1    0.0000
     30 H8        16.1099    3.5362   27.0564 H         1 RES1    0.0000
     31 H9        14.8181    3.3718   27.9594 H         1 RES1    0.0000
     32 C7        18.0082    3.7560   28.9075 C.ar      1 RES1    0.0000
     33 C8        18.8863    4.8271   28.8732 C.ar      1 RES1    0.0000
     34 H10       18.5617    5.7097   28.8948 H         1 RES1    0.0000
     35 C9        20.2561    4.5803   28.8042 C.ar      1 RES1    0.0000
     36 C10       20.7898    3.3142   28.7536 C.ar      1 RES1    0.0000
     37 H11       21.7173    3.1703   28.7143 H         1 RES1    0.0000
     38 C11       19.8921    2.2691   28.7645 C.ar      1 RES1    0.0000
     39 C12       18.5241    2.4580   28.8367 C.ar      1 RES1    0.0000
     40 H12       17.9434    1.7182   28.8371 H         1 RES1    0.0000
     41 C13       16.0896    3.3625   30.4010 C.2       1 RES1    0.0000
     42 C14       16.8295    2.9519   31.4748 C.2       1 RES1    0.0000
     43 H13       17.7677    2.9340   31.5243 H         1 RES1    0.0000
     44 C15       15.9303    2.5573   32.5031 C.2       1 RES1    0.0000
     45 H14       16.1658    2.2310   33.3519 H         1 RES1    0.0000
     46 C16       14.6649    2.7381   32.0332 C.2       1 RES1    0.0000
     47 C17       13.3094    2.4295   32.6418 C.3       1 RES1    0.0000
     48 C18       12.6811    1.2305   31.9115 C.3       1 RES1    0.0000
     49 H15       12.5686    1.4469   30.9717 H         1 RES1    0.0000
     50 H16       11.8177    1.0297   32.3044 H         1 RES1    0.0000
     51 H17       13.2633    0.4583   31.9974 H         1 RES1    0.0000
     52 C19       13.4988    2.0813   34.1313 C.3       1 RES1    0.0000
     53 H18       14.0816    1.3092   34.2115 H         1 RES1    0.0000
     54 H19       12.6380    1.8786   34.5293 H         1 RES1    0.0000
     55 H20       13.8980    2.8363   34.5907 H         1 RES1    0.0000
     56 C20       12.3899    3.6271   32.5085 C.2       1 RES1    0.0000
     57 C21       11.0953    3.7457   32.0805 C.2       1 RES1    0.0000
     58 H21       10.5582    3.0491   31.7482 H         1 RES1    0.0000
     59 C22       10.7082    5.1002   32.2225 C.2       1 RES1    0.0000
     60 H22        9.8668    5.4600   32.0083 H         1 RES1    0.0000
     61 C23       11.7783    5.7934   32.7263 C.2       1 RES1    0.0000
     62 C24       11.8876    7.2340   33.1951 C.3       1 RES1    0.0000
     63 C25       10.9878    8.1183   32.3138 C.3       1 RES1    0.0000
     64 H23       11.2906    8.0733   31.3943 H         1 RES1    0.0000
     65 H24       11.0333    9.0362   32.6259 H         1 RES1    0.0000
     66 H25       10.0719    7.8030   32.3695 H         1 RES1    0.0000
     67 C26       11.4334    7.2863   34.6641 C.ar      1 RES1    0.0000
     68 C27       12.0862    6.5212   35.6306 C.ar      1 RES1    0.0000
     69 H26       12.8212    5.9861   35.3890 H         1 RES1    0.0000
     70 C28       11.6543    6.5501   36.9377 C.ar      1 RES1    0.0000
     71 C29       10.6027    7.3274   37.3769 C.ar      1 RES1    0.0000
     72 H27       10.3307    7.3467   38.2784 H         1 RES1    0.0000
     73 C30        9.9810    8.0713   36.4039 C.ar      1 RES1    0.0000
     74 C31       10.3607    8.0677   35.0708 C.ar      1 RES1    0.0000
     75 H28        9.8934    8.5923   34.4463 H         1 RES1    0.0000
     76 C32       13.3039    7.7674   33.0864 C.2       1 RES1    0.0000
     77 C33       14.1018    8.4492   33.9691 C.2       1 RES1    0.0000
     78 H29       13.9140    8.6108   34.8761 H         1 RES1    0.0000
     79 C34       15.2647    8.8672   33.2652 C.2       1 RES1    0.0000
     80 H30       15.9828    9.3548   33.6264 H         1 RES1    0.0000
     81 C35       15.1572    8.4359   31.9700 C.2       1 RES1    0.0000
     82 C36       16.0246    8.6742   30.7492 C.3       1 RES1    0.0000
     83 C37       15.5700    9.9736   30.0474 C.3       1 RES1    0.0000
     84 H31       16.0991   10.1111   29.2452 H         1 RES1    0.0000
     85 H32       15.6921   10.7257   30.6466 H         1 RES1    0.0000
     86 H33       14.6330    9.9005   29.8086 H         1 RES1    0.0000
     87 C38       17.4959    8.8391   31.1790 C.3       1 RES1    0.0000
     88 H34       17.7923    8.0342   31.6326 H         1 RES1    0.0000
     89 H35       17.5731    9.5963   31.7807 H         1 RES1    0.0000
     90 H36       18.0459    8.9910   30.3938 H         1 RES1    0.0000
@<TRIPOS>BOND
     1    1   17 2
     2    2   17 2
     3    3   18 2
     4    4   18 2
     5    5   19 2
     6    6   19 2
     7    7   20 2
     8    8   20 2
     9    9   10 1
    10   11   12 1
    11   13   14 1
    12   15   16 1
    13   17   35 1
    14   18   38 1
    15   19   73 1
    16   20   70 1
    17   21    9 1
    18   22   21 2
    19   23   22 1
    20   24   22 1
    21   25   24 1
    22   26    9 1
    23   27   26 1
    24   28   27 1
    25   29   28 1
    26   30   28 1
    27   31   28 1
    28   32   27 1
    29   33   32 ar
    30   34   33 1
    31   35   33 ar
    32   36   35 ar
    33   37   36 1
    34   38   36 ar
    35   39   32 ar
    36   40   39 1
    37   41   11 1
    38   42   41 2
    39   43   42 1
    40   44   42 1
    41   45   44 1
    42   46   11 1
    43   47   46 1
    44   48   47 1
    45   49   48 1
    46   50   48 1
    47   51   48 1
    48   52   47 1
    49   53   52 1
    50   54   52 1
    51   55   52 1
    52   56   13 1
    53   57   56 2
    54   58   57 1
    55   59   57 1
    56   60   59 1
    57   61   13 1
    58   62   61 1
    59   63   62 1
    60   64   63 1
    61   65   63 1
    62   66   63 1
    63   67   62 1
    64   68   67 ar
    65   69   68 1
    66   70   68 ar
    67   71   70 ar
    68   72   71 1
    69   73   71 ar
    70   74   67 ar
    71   75   74 1
    72   76   15 1
    73   77   76 2
    74   78   77 1
    75   79   77 1
    76   80   79 1
    77   81   15 1
    78   82   21 1
    79   83   82 1
    80   84   83 1
    81   85   83 1
    82   86   83 1
    83   87   82 1
    84   88   87 1
    85   89   87 1
    86   90   87 1
    87   24   26 2
    88   27   41 1
    89   38   39 ar
    90   44   46 2
    91   47   56 1
    92   59   61 2
    93   62   76 1
    94   73   74 ar
    95   79   81 2
    96   81   82 1
@<TRIPOS>SUBSTRUCTURE
     1 RES1 1

