# MOL2 file generated by ConQuest
# Please check atom types

@<TRIPOS>MOLECULE
PAHXIH01
    90    96     1
SMALL
NO_CHARGES
****
Generated from CSD

@<TRIPOS>ATOM
      1 N1         2.2546   12.1712    7.1693 N.3       1 RES1    0.0000
      2 C1         1.9468   12.0395    8.5034 C.2       1 RES1    0.0000
      3 O1        -3.1459   10.2017    2.7753 O.2       1 RES1    0.0000
      4 N2         1.2847   10.5213    4.4327 N.pl3     1 RES1    0.0000
      5 H1         0.6513   10.3679    4.9902 H         1 RES1    0.0000
      6 C2         0.6455   12.4510    8.6625 C.2       1 RES1    0.0000
      7 H2         0.1610   12.4674    9.4791 H         1 RES1    0.0000
      8 O2        -3.7893    9.6242    0.7825 O.2       1 RES1    0.0000
      9 N3         1.6482    7.6368    5.9370 N.pl3     1 RES1    0.0000
     10 H3         2.4454    8.0395    6.0152 H         1 RES1    0.0000
     11 C3         0.1540   12.8498    7.3837 C.2       1 RES1    0.0000
     12 H4        -0.7138   13.1809    7.1920 H         1 RES1    0.0000
     13 O3        -1.3467    6.1382   -1.4778 O.2       1 RES1    0.0000
     14 N4         2.1262    9.1691    8.7996 N.pl3     1 RES1    0.0000
     15 H5         1.3489    9.4491    8.6025 H         1 RES1    0.0000
     16 C4         1.1740   12.6655    6.4786 C.2       1 RES1    0.0000
     17 O4         0.7860    6.0058   -1.1127 O.2       1 RES1    0.0000
     18 N5        -2.9821    9.6202    1.7058 N.pl3     1 RES1    0.0000
     19 C5         1.2666   12.9720    5.0029 C.3       1 RES1    0.0000
     20 O5         1.2758    8.5405   13.3630 O.2       1 RES1    0.0000
     21 N6        -0.3315    6.4294   -0.8543 N.pl3     1 RES1    0.0000
     22 C6        -0.1385   13.3184    4.4735 C.3       1 RES1    0.0000
     23 H6        -0.7364   12.5526    4.6065 H         1 RES1    0.0000
     24 H7        -0.0851   13.5279    3.5184 H         1 RES1    0.0000
     25 H8        -0.4873   14.0946    4.9595 H         1 RES1    0.0000
     26 O6         0.2074    9.8861   14.6757 O.2       1 RES1    0.0000
     27 N7         0.9363    9.6552   13.7119 N.pl3     1 RES1    0.0000
     28 C7         2.2039   14.1754    4.7916 C.3       1 RES1    0.0000
     29 H9         1.8504   14.9539    5.2682 H         1 RES1    0.0000
     30 H10        2.2652   14.3780    3.8339 H         1 RES1    0.0000
     31 H11        3.0954   13.9591    5.1369 H         1 RES1    0.0000
     32 O7         0.4740   14.6700   13.9246 O.2       1 RES1    0.0000
     33 N8         1.3517   14.5151   13.0734 N.pl3     1 RES1    0.0000
     34 C8         1.8117   11.7763    4.2577 C.2       1 RES1    0.0000
     35 O8         2.0077   15.4148   12.5680 O.2       1 RES1    0.0000
     36 C9         2.8027   11.6684    3.3037 C.2       1 RES1    0.0000
     37 H12        3.3475   12.3760    2.9795 H         1 RES1    0.0000
     38 C10        2.8639   10.3061    2.8940 C.2       1 RES1    0.0000
     39 H13        3.4531    9.9419    2.2427 H         1 RES1    0.0000
     40 C11        1.9137    9.6113    3.6146 C.2       1 RES1    0.0000
     41 C12        1.4525    8.1724    3.4891 C.3       1 RES1    0.0000
     42 C13        0.3738    8.1186    2.3996 C.ar      1 RES1    0.0000
     43 C14       -0.7902    8.8873    2.5306 C.ar      1 RES1    0.0000
     44 H14       -0.9241    9.4275    3.3001 H         1 RES1    0.0000
     45 C15       -1.7458    8.8533    1.5276 C.ar      1 RES1    0.0000
     46 C16       -1.6312    8.0815    0.3858 C.ar      1 RES1    0.0000
     47 H15       -2.2996    8.0693   -0.2882 H         1 RES1    0.0000
     48 C17       -0.4770    7.3313    0.2950 C.ar      1 RES1    0.0000
     49 C18        0.5214    7.3363    1.2590 C.ar      1 RES1    0.0000
     50 H16        1.2999    6.8076    1.1410 H         1 RES1    0.0000
     51 C19        2.6547    7.2872    3.1098 C.3       1 RES1    0.0000
     52 H17        3.0513    7.6155    2.2768 H         1 RES1    0.0000
     53 H18        2.3522    6.3631    2.9863 H         1 RES1    0.0000
     54 H19        3.3226    7.3199    3.8254 H         1 RES1    0.0000
     55 C20        0.8845    7.6381    4.7885 C.2       1 RES1    0.0000
     56 C21       -0.2744    6.9543    5.0760 C.2       1 RES1    0.0000
     57 H20       -0.9932    6.7912    4.4752 H         1 RES1    0.0000
     58 C22       -0.2030    6.5348    6.4387 C.2       1 RES1    0.0000
     59 H21       -0.8655    6.0438    6.9089 H         1 RES1    0.0000
     60 C23        0.9996    6.9698    6.9498 C.2       1 RES1    0.0000
     61 C24        1.6680    6.7326    8.2895 C.3       1 RES1    0.0000
     62 C25        2.5011    5.4367    8.2126 C.3       1 RES1    0.0000
     63 H22        3.1651    5.5171    7.4956 H         1 RES1    0.0000
     64 H23        1.9080    4.6784    8.0260 H         1 RES1    0.0000
     65 H24        2.9594    5.2913    9.0663 H         1 RES1    0.0000
     66 C26        0.5961    6.5677    9.3837 C.3       1 RES1    0.0000
     67 H25        1.0317    6.3990   10.2448 H         1 RES1    0.0000
     68 H26        0.0130    5.8128    9.1584 H         1 RES1    0.0000
     69 H27        0.0617    7.3866    9.4433 H         1 RES1    0.0000
     70 C27        2.5831    7.8793    8.6410 C.2       1 RES1    0.0000
     71 C28        3.9333    7.8921    8.9176 C.2       1 RES1    0.0000
     72 H28        4.5177    7.1433    8.8907 H         1 RES1    0.0000
     73 C29        4.2962    9.2297    9.2531 C.2       1 RES1    0.0000
     74 H29        5.1629    9.5333    9.4893 H         1 RES1    0.0000
     75 C30        3.1615    9.9992    9.1731 C.2       1 RES1    0.0000
     76 C31        2.9415   11.4575    9.4849 C.3       1 RES1    0.0000
     77 C32        2.3664   11.6493   10.8948 C.ar      1 RES1    0.0000
     78 C33        1.9798   10.5717   11.6865 C.ar      1 RES1    0.0000
     79 H30        2.1121    9.6811   11.3841 H         1 RES1    0.0000
     80 C34        1.3969   10.8163   12.9276 C.ar      1 RES1    0.0000
     81 C35        1.1872   12.0859   13.4339 C.ar      1 RES1    0.0000
     82 H31        0.7823   12.2313   14.2800 H         1 RES1    0.0000
     83 C36        1.6050   13.1342   12.6286 C.ar      1 RES1    0.0000
     84 C37        2.1885   12.9469   11.3861 C.ar      1 RES1    0.0000
     85 H32        2.4663   13.6952   10.8708 H         1 RES1    0.0000
     86 C38        4.2970   12.1959    9.3907 C.3       1 RES1    0.0000
     87 H33        4.8926   11.8740   10.0982 H         1 RES1    0.0000
     88 H34        4.1544   13.1593    9.4978 H         1 RES1    0.0000
     89 H35        4.7047   12.0229    8.5155 H         1 RES1    0.0000
     90 H36        3.0005   11.9500    6.8219 H         1 RES1    0.0000
@<TRIPOS>BOND
     1    1    2 1
     2    2    6 2
     3    3   18 2
     4    4    5 1
     5    6    7 1
     6    8   18 2
     7    9   10 1
     8   11    6 1
     9   12   11 1
    10   13   21 2
    11   14   15 1
    12   16    1 1
    13   17   21 2
    14   18   45 1
    15   19   16 1
    16   20   27 2
    17   21   48 1
    18   22   19 1
    19   23   22 1
    20   24   22 1
    21   25   22 1
    22   26   27 2
    23   27   80 1
    24   28   19 1
    25   29   28 1
    26   30   28 1
    27   31   28 1
    28   32   33 2
    29   33   35 2
    30   34    4 1
    31   36   34 2
    32   37   36 1
    33   38   36 1
    34   39   38 1
    35   40    4 1
    36   41   40 1
    37   42   41 1
    38   43   42 ar
    39   44   43 1
    40   45   43 ar
    41   46   45 ar
    42   47   46 1
    43   48   46 ar
    44   49   42 ar
    45   50   49 1
    46   51   41 1
    47   52   51 1
    48   53   51 1
    49   54   51 1
    50   55    9 1
    51   56   55 2
    52   57   56 1
    53   58   56 1
    54   59   58 1
    55   60    9 1
    56   61   60 1
    57   62   61 1
    58   63   62 1
    59   64   62 1
    60   65   62 1
    61   66   61 1
    62   67   66 1
    63   68   66 1
    64   69   66 1
    65   70   14 1
    66   71   70 2
    67   72   71 1
    68   73   71 1
    69   74   73 1
    70   75   14 1
    71   76    2 1
    72   77   76 1
    73   78   77 ar
    74   79   78 1
    75   80   78 ar
    76   81   80 ar
    77   82   81 1
    78   83   33 1
    79   84   77 ar
    80   85   84 1
    81   86   76 1
    82   87   86 1
    83   88   86 1
    84   89   86 1
    85   90    1 1
    86   11   16 2
    87   19   34 1
    88   38   40 2
    89   41   55 1
    90   48   49 ar
    91   58   60 2
    92   61   70 1
    93   73   75 2
    94   75   76 1
    95   81   83 ar
    96   83   84 ar
@<TRIPOS>SUBSTRUCTURE
     1 RES1 1

@<TRIPOS>CRYSIN
  40.8091   10.2663   19.3106  90.0000 117.9710  90.0000  15 1

