# MOL2 file generated by ConQuest
# Please check atom types

@<TRIPOS>MOLECULE
PAHYEE
   180   192     2
SMALL
NO_CHARGES
****
Generated from CSD

@<TRIPOS>ATOM
      1 C1        10.8615   12.8856    4.0911 C.2       1 RES1    0.0000
      2 C2        10.9560   13.4282    2.8401 C.2       1 RES1    0.0000
      3 H1        11.7612   13.6363    2.3813 H         1 RES1    0.0000
      4 C3         9.6405   13.6268    2.3481 C.2       1 RES1    0.0000
      5 H2         9.4093   13.9929    1.5031 H         1 RES1    0.0000
      6 C4         8.7631   13.1969    3.3105 C.2       1 RES1    0.0000
      7 C5         7.2449   13.2393    3.3612 C.3       1 RES1    0.0000
      8 C6         6.6671   11.8802    3.7710 C.3       1 RES1    0.0000
      9 H3         6.9443   11.1992    3.1233 H         1 RES1    0.0000
     10 H4         5.6891   11.9332    3.7902 H         1 RES1    0.0000
     11 H5         6.9979   11.6399    4.6608 H         1 RES1    0.0000
     12 C7         6.7155   13.5632    1.9554 C.3       1 RES1    0.0000
     13 H6         7.0634   14.4323    1.6673 H         1 RES1    0.0000
     14 H7         5.7364   13.5931    1.9740 H         1 RES1    0.0000
     15 H8         7.0089   12.8696    1.3287 H         1 RES1    0.0000
     16 C8        11.9380   12.3775    5.0313 C.3       1 RES1    0.0000
     17 C9        13.2080   13.2342    4.8185 C.3       1 RES1    0.0000
     18 H9        12.9887   14.1806    4.9484 H         1 RES1    0.0000
     19 H10       13.5450   13.0996    3.9086 H         1 RES1    0.0000
     20 H11       13.8948   12.9659    5.4639 H         1 RES1    0.0000
     21 C10       11.4930   12.4387    6.4821 C.2       1 RES1    0.0000
     22 C11       11.3779   11.4572    7.4335 C.2       1 RES1    0.0000
     23 H12       11.5408   10.5305    7.3043 H         1 RES1    0.0000
     24 C12       10.9731   12.0737    8.6439 C.2       1 RES1    0.0000
     25 H13       10.8147   11.6311    9.4692 H         1 RES1    0.0000
     26 C13       10.8494   13.4189    8.4160 C.2       1 RES1    0.0000
     27 C14       12.2663   10.9043    4.7286 C.ar      1 RES1    0.0000
     28 C15       11.4400   10.1294    3.9250 C.ar      1 RES1    0.0000
     29 H14       10.6575   10.5055    3.5382 H         1 RES1    0.0000
     30 C16       11.7665    8.8031    3.6920 C.ar      1 RES1    0.0000
     31 C17       12.8767    8.1823    4.2209 C.ar      1 RES1    0.0000
     32 H15       13.0908    7.2764    4.0295 H         1 RES1    0.0000
     33 C18       13.6564    8.9663    5.0477 C.ar      1 RES1    0.0000
     34 C19       13.3845   10.2976    5.3093 C.ar      1 RES1    0.0000
     35 H16       13.9547   10.7970    5.8814 H         1 RES1    0.0000
     36 N1         9.5209   12.7454    4.3684 N.pl3     1 RES1    0.0000
     37 H17        9.1946   12.4148    5.1152 H         1 RES1    0.0000
     38 N2        11.1650   13.6305    7.0909 N.pl3     1 RES1    0.0000
     39 H18       11.1580   14.4144    6.6908 H         1 RES1    0.0000
     40 N3        10.8725    8.0112    2.8438 N.pl3     1 RES1    0.0000
     41 N4        14.7866    8.3285    5.7465 N.pl3     1 RES1    0.0000
     42 O1         9.7781    8.4898    2.5543 O.2       1 RES1    0.0000
     43 O2        11.2497    6.9168    2.4485 O.2       1 RES1    0.0000
     44 O3        15.0720    7.1727    5.4355 O.2       1 RES1    0.0000
     45 O4        15.3599    8.9654    6.6212 O.2       1 RES1    0.0000
     46 C20        8.4354   10.4308    0.0445 C.3       2 RES2    0.0000
     47 H19        7.5376   10.4659   -0.3475 H         2 RES2    0.0000
     48 H20        8.7719   11.3418    0.1718 H         2 RES2    0.0000
     49 H21        8.3965    9.9735    0.9100 H         2 RES2    0.0000
     50 C21        9.3792    9.6613   -0.9016 C.3       2 RES2    0.0000
     51 C22        9.4317   10.3853   -2.2570 C.3       2 RES2    0.0000
     52 H22       10.0474    9.9131   -2.8560 H         2 RES2    0.0000
     53 H23        9.7447   11.3050   -2.1242 H         2 RES2    0.0000
     54 H24        8.5353   10.3989   -2.6550 H         2 RES2    0.0000
     55 C23        8.8327    8.2639   -1.1106 C.2       2 RES2    0.0000
     56 C24        8.0668    7.7379   -2.1117 C.2       2 RES2    0.0000
     57 H25        7.8448    8.1664   -2.9299 H         2 RES2    0.0000
     58 C25        7.6614    6.4361   -1.7116 C.2       2 RES2    0.0000
     59 H26        7.1170    5.8402   -2.2133 H         2 RES2    0.0000
     60 C26        8.1947    6.1945   -0.4747 C.2       2 RES2    0.0000
     61 C27        8.1337    4.9423    0.3870 C.3       2 RES2    0.0000
     62 C28        6.8620    4.1520    0.0188 C.3       2 RES2    0.0000
     63 H27        6.8801    3.9310   -0.9355 H         2 RES2    0.0000
     64 H28        6.0706    4.6965    0.2138 H         2 RES2    0.0000
     65 H29        6.8273    3.3256    0.5447 H         2 RES2    0.0000
     66 C29        9.3565    4.0801    0.1394 C.2       2 RES2    0.0000
     67 C30        9.5113    2.9200   -0.5698 C.2       2 RES2    0.0000
     68 H30        8.8314    2.4590   -1.0462 H         2 RES2    0.0000
     69 C31       10.8743    2.5290   -0.4644 C.2       2 RES2    0.0000
     70 H31       11.2682    1.7608   -0.8616 H         2 RES2    0.0000
     71 C32       11.5168    3.4527    0.3078 C.2       2 RES2    0.0000
     72 C33        8.0334    5.2775    1.8818 C.ar      2 RES2    0.0000
     73 C34        8.4818    4.3652    2.8431 C.ar      2 RES2    0.0000
     74 H32        8.8781    3.5428    2.5799 H         2 RES2    0.0000
     75 C35        8.3396    4.6773    4.1811 C.ar      2 RES2    0.0000
     76 C36        7.8252    5.8676    4.6457 C.ar      2 RES2    0.0000
     77 H33        7.7635    6.0679    5.5721 H         2 RES2    0.0000
     78 C37        7.4061    6.7480    3.6705 C.ar      2 RES2    0.0000
     79 C38        7.4521    6.4650    2.3205 C.ar      2 RES2    0.0000
     80 H34        7.0888    7.0787    1.6928 H         2 RES2    0.0000
     81 N5         8.9210    7.3100   -0.1223 N.pl3     2 RES2    0.0000
     82 H35        9.3757    7.4005    0.6262 H         2 RES2    0.0000
     83 N6        10.5867    4.4031    0.6642 N.pl3     2 RES2    0.0000
     84 H36       10.7541    5.1130    1.1557 H         2 RES2    0.0000
     85 N7         6.9379    8.0771    4.0900 N.pl3     2 RES2    0.0000
     86 N8         8.7467    3.6809    5.1805 N.pl3     2 RES2    0.0000
     87 O5         6.2223    8.7068    3.3206 O.2       2 RES2    0.0000
     88 O6         7.2972    8.4894    5.1868 O.2       2 RES2    0.0000
     89 O7         8.1527    3.7044    6.2575 O.2       2 RES2    0.0000
     90 O8         9.6304    2.8861    4.8969 O.2       2 RES2    0.0000
     91 C1A        6.8028   14.8779    8.6364 C.2       1 RES1    0.0000
     92 C2A        6.7083   14.3352    9.8873 C.2       1 RES1    0.0000
     93 H1A        5.9031   14.1271   10.3462 H         1 RES1    0.0000
     94 C3A        8.0238   14.1367   10.3794 C.2       1 RES1    0.0000
     95 H2A        8.2550   13.7705   11.2244 H         1 RES1    0.0000
     96 C4A        8.9012   14.5666    9.4169 C.2       1 RES1    0.0000
     97 C5A       10.4194   14.5241    9.3663 C.3       1 RES1    0.0000
     98 C6A       10.9972   15.8833    8.9564 C.3       1 RES1    0.0000
     99 H3A       10.7200   16.5643    9.6041 H         1 RES1    0.0000
    100 H4A       11.9752   15.8302    8.9372 H         1 RES1    0.0000
    101 H5A       10.6664   16.1236    8.0667 H         1 RES1    0.0000
    102 C7A       10.9488   14.2002   10.7720 C.3       1 RES1    0.0000
    103 H6A       10.6009   13.3311   11.0602 H         1 RES1    0.0000
    104 H7A       11.9279   14.1703   10.7534 H         1 RES1    0.0000
    105 H8A       10.6554   14.8939   11.3987 H         1 RES1    0.0000
    106 C8A        5.7263   15.3860    7.6962 C.3       1 RES1    0.0000
    107 C9A        4.4563   14.5293    7.9090 C.3       1 RES1    0.0000
    108 H9A        4.6756   13.5829    7.7790 H         1 RES1    0.0000
    109 H10A       4.1193   14.6639    8.8189 H         1 RES1    0.0000
    110 H11A       3.7695   14.7976    7.2636 H         1 RES1    0.0000
    111 C10A       6.1713   15.3247    6.2454 C.2       1 RES1    0.0000
    112 C11A       6.2863   16.3063    5.2940 C.2       1 RES1    0.0000
    113 H12A       6.1235   17.2329    5.4232 H         1 RES1    0.0000
    114 C12A       6.6912   15.6898    4.0836 C.2       1 RES1    0.0000
    115 H13A       6.8496   16.1324    3.2582 H         1 RES1    0.0000
    116 C13A       6.8148   14.3445    4.3114 C.2       1 RES1    0.0000
    117 C14A       5.3980   16.8592    7.9988 C.ar      1 RES1    0.0000
    118 C15A       6.2243   17.6341    8.8024 C.ar      1 RES1    0.0000
    119 H14A       7.0068   17.2579    9.1892 H         1 RES1    0.0000
    120 C16A       5.8978   18.9604    9.0355 C.ar      1 RES1    0.0000
    121 C17A       4.7876   19.5811    8.5065 C.ar      1 RES1    0.0000
    122 H15A       4.5735   20.4871    8.6980 H         1 RES1    0.0000
    123 C18A       4.0079   18.7971    7.6798 C.ar      1 RES1    0.0000
    124 C19A       4.2798   17.4659    7.4182 C.ar      1 RES1    0.0000
    125 H16A       3.7095   16.9664    6.8461 H         1 RES1    0.0000
    126 N1A        8.1434   15.0180    8.3590 N.pl3     1 RES1    0.0000
    127 H17A       8.4697   15.3486    7.6123 H         1 RES1    0.0000
    128 N2A        6.4993   14.1330    5.6366 N.pl3     1 RES1    0.0000
    129 H18A       6.5063   13.3490    6.0366 H         1 RES1    0.0000
    130 N3A        6.7918   19.7522    9.8836 N.pl3     1 RES1    0.0000
    131 N4A        2.8777   19.4350    6.9810 N.pl3     1 RES1    0.0000
    132 O1A        7.8862   19.2737   10.1732 O.2       1 RES1    0.0000
    133 O2A        6.4146   20.8467   10.2790 O.2       1 RES1    0.0000
    134 O3A        2.5923   20.5908    7.2920 O.2       1 RES1    0.0000
    135 O4A        2.3044   18.7981    6.1063 O.2       1 RES1    0.0000
    136 C20A      13.8552    2.6735   -0.0445 C.3       2 RES2    0.0000
    137 H19A      14.7531    2.6384    0.3475 H         2 RES2    0.0000
    138 H20A      13.5187    1.7625   -0.1718 H         2 RES2    0.0000
    139 H21A      13.8941    3.1308   -0.9100 H         2 RES2    0.0000
    140 C21A      12.9114    3.4430    0.9016 C.3       2 RES2    0.0000
    141 C22A      12.8589    2.7190    2.2570 C.3       2 RES2    0.0000
    142 H22A      12.2432    3.1912    2.8560 H         2 RES2    0.0000
    143 H23A      12.5459    1.7993    2.1242 H         2 RES2    0.0000
    144 H24A      13.7553    2.7054    2.6550 H         2 RES2    0.0000
    145 C23A      13.4579    4.8404    1.1106 C.2       2 RES2    0.0000
    146 C24A      14.2239    5.3664    2.1117 C.2       2 RES2    0.0000
    147 H25A      14.4458    4.9379    2.9299 H         2 RES2    0.0000
    148 C25A      14.6292    6.6682    1.7116 C.2       2 RES2    0.0000
    149 H26A      15.1736    7.2642    2.2133 H         2 RES2    0.0000
    150 C26A      14.0959    6.9098    0.4747 C.2       2 RES2    0.0000
    151 C27A      14.1569    8.1620   -0.3870 C.3       2 RES2    0.0000
    152 C28A      15.4287    8.9523   -0.0188 C.3       2 RES2    0.0000
    153 H27A      15.4105    9.1733    0.9355 H         2 RES2    0.0000
    154 H28A      16.2200    8.4078   -0.2138 H         2 RES2    0.0000
    155 H29A      15.4633    9.7787   -0.5447 H         2 RES2    0.0000
    156 C29A      12.9342    9.0242   -0.1394 C.2       2 RES2    0.0000
    157 C30A      12.7793   10.1843    0.5698 C.2       2 RES2    0.0000
    158 H30A      13.4592   10.6453    1.0462 H         2 RES2    0.0000
    159 C31A      11.4163   10.5753    0.4644 C.2       2 RES2    0.0000
    160 H31A      11.0224   11.3435    0.8616 H         2 RES2    0.0000
    161 C32A      10.7738    9.6516   -0.3078 C.2       2 RES2    0.0000
    162 C33A      14.2572    7.8268   -1.8818 C.ar      2 RES2    0.0000
    163 C34A      13.8088    8.7391   -2.8431 C.ar      2 RES2    0.0000
    164 H32A      13.4126    9.5616   -2.5799 H         2 RES2    0.0000
    165 C35A      13.9510    8.4270   -4.1811 C.ar      2 RES2    0.0000
    166 C36A      14.4655    7.2367   -4.6457 C.ar      2 RES2    0.0000
    167 H33A      14.5271    7.0364   -5.5721 H         2 RES2    0.0000
    168 C37A      14.8845    6.3563   -3.6705 C.ar      2 RES2    0.0000
    169 C38A      14.8385    6.6393   -2.3205 C.ar      2 RES2    0.0000
    170 H34A      15.2018    6.0256   -1.6928 H         2 RES2    0.0000
    171 N5A       13.3696    5.7943    0.1223 N.pl3     2 RES2    0.0000
    172 H35A      12.9149    5.7038   -0.6262 H         2 RES2    0.0000
    173 N6A       11.7039    8.7012   -0.6642 N.pl3     2 RES2    0.0000
    174 H36A      11.5365    7.9914   -1.1557 H         2 RES2    0.0000
    175 N7A       15.3527    5.0272   -4.0900 N.pl3     2 RES2    0.0000
    176 N8A       13.5439    9.4234   -5.1805 N.pl3     2 RES2    0.0000
    177 O5A       16.0683    4.3975   -3.3206 O.2       2 RES2    0.0000
    178 O6A       14.9934    4.6149   -5.1868 O.2       2 RES2    0.0000
    179 O7A       14.1380    9.3999   -6.2575 O.2       2 RES2    0.0000
    180 O8A       12.6602   10.2182   -4.8969 O.2       2 RES2    0.0000
@<TRIPOS>BOND
     1    1    2 2
     2    2    3 1
     3    4    2 1
     4    5    4 1
     5    6    4 2
     6    7    6 1
     7    8    7 1
     8    9    8 1
     9   10    8 1
    10   11    8 1
    11   12    7 1
    12   13   12 1
    13   14   12 1
    14   15   12 1
    15   16    1 1
    16   17   16 1
    17   18   17 1
    18   19   17 1
    19   20   17 1
    20   21   16 1
    21   22   21 2
    22   23   22 1
    23   24   22 1
    24   25   24 1
    25   26   24 2
    26   27   16 1
    27   28   27 ar
    28   29   28 1
    29   30   28 ar
    30   31   30 ar
    31   32   31 1
    32   33   31 ar
    33   34   27 ar
    34   35   34 1
    35   36    1 1
    36   37   36 1
    37   38   21 1
    38   39   38 1
    39   40   30 1
    40   41   33 1
    41   42   40 2
    42   43   40 2
    43   44   41 2
    44   45   41 2
    45   46   47 1
    46   48   46 1
    47   49   46 1
    48   50   46 1
    49   51   50 1
    50   52   51 1
    51   53   51 1
    52   54   51 1
    53   55   50 1
    54   56   55 2
    55   57   56 1
    56   58   56 1
    57   59   58 1
    58   60   58 2
    59   61   60 1
    60   62   61 1
    61   63   62 1
    62   64   62 1
    63   65   62 1
    64   66   61 1
    65   67   66 2
    66   68   67 1
    67   69   67 1
    68   70   69 1
    69   71   69 2
    70   72   61 1
    71   73   72 ar
    72   74   73 1
    73   75   73 ar
    74   76   75 ar
    75   77   76 1
    76   78   76 ar
    77   79   72 ar
    78   80   79 1
    79   81   55 1
    80   82   81 1
    81   83   66 1
    82   84   83 1
    83   85   78 1
    84   86   75 1
    85   87   85 2
    86   88   85 2
    87   89   86 2
    88   90   86 2
    89   91   92 2
    90   92   93 1
    91   94   92 1
    92   95   94 1
    93   96   94 2
    94   97   26 1
    95   98   97 1
    96   99   98 1
    97  100   98 1
    98  101   98 1
    99  102   97 1
   100  103  102 1
   101  104  102 1
   102  105  102 1
   103  106   91 1
   104  107  106 1
   105  108  107 1
   106  109  107 1
   107  110  107 1
   108  111  106 1
   109  112  111 2
   110  113  112 1
   111  114  112 1
   112  115  114 1
   113  116    7 1
   114  117  106 1
   115  118  117 ar
   116  119  118 1
   117  120  118 ar
   118  121  120 ar
   119  122  121 1
   120  123  121 ar
   121  124  117 ar
   122  125  124 1
   123  126   91 1
   124  127  126 1
   125  128  111 1
   126  129  128 1
   127  130  120 1
   128  131  123 1
   129  132  130 2
   130  133  130 2
   131  134  131 2
   132  135  131 2
   133  136  137 1
   134  138  136 1
   135  139  136 1
   136  140   71 1
   137  141  140 1
   138  142  141 1
   139  143  141 1
   140  144  141 1
   141  145  140 1
   142  146  145 2
   143  147  146 1
   144  148  146 1
   145  149  148 1
   146  150  148 2
   147  151  150 1
   148  152  151 1
   149  153  152 1
   150  154  152 1
   151  155  152 1
   152  156  151 1
   153  157  156 2
   154  158  157 1
   155  159  157 1
   156  160  159 1
   157  161   50 1
   158  162  151 1
   159  163  162 ar
   160  164  163 1
   161  165  163 ar
   162  166  165 ar
   163  167  166 1
   164  168  166 ar
   165  169  162 ar
   166  170  169 1
   167  171  145 1
   168  172  171 1
   169  173  156 1
   170  174  173 1
   171  175  168 1
   172  176  165 1
   173  177  175 2
   174  178  175 2
   175  179  176 2
   176  180  176 2
   177    6   36 1
   178   26   38 1
   179   33   34 ar
   180   60   81 1
   181   71   83 1
   182   78   79 ar
   183   96   97 1
   184   96  126 1
   185  114  116 2
   186  116  128 1
   187  123  124 ar
   188  136  140 1
   189  150  171 1
   190  159  161 2
   191  161  173 1
   192  168  169 ar
@<TRIPOS>SUBSTRUCTURE
     1 RES1 1
     2 RES2 46

@<TRIPOS>CRYSIN
  10.5852   13.1521   13.7047  81.7720  69.3250  85.1140   2 1

