# MOL2 file generated by ConQuest
# Please check atom types

@<TRIPOS>MOLECULE
PAJDUC
   296   280     5
SMALL
NO_CHARGES
****
Generated from CSD

@<TRIPOS>ATOM
      1 O1         5.2533   29.8968   10.3208 O.3       1 RES1    0.0000
      2 H1         5.8895   30.2386   10.7512 H         1 RES1    0.0000
      3 O2         6.1840   25.8761   10.9987 O.3       1 RES1    0.0000
      4 O3         4.7359   32.2070    5.6720 O.3       1 RES1    0.0000
      5 H2         4.1300   32.4653    5.1495 H         1 RES1    0.0000
      6 O4         4.5280   26.0514    8.0257 O.3       1 RES1    0.0000
      7 O5         6.6379   28.4816    6.5360 O.3       1 RES1    0.0000
      8 C1         5.2196   30.7022    7.4606 C.3       1 RES1    0.0000
      9 H3         5.0186   31.3867    8.1454 H         1 RES1    0.0000
     10 H4         6.1743   30.7909    7.2120 H         1 RES1    0.0000
     11 C2         4.9767   29.3227    8.0418 C.3       1 RES1    0.0000
     12 H5         4.0066   29.2253    8.2640 H         1 RES1    0.0000
     13 C3         4.3652   30.9427    6.2486 C.3       1 RES1    0.0000
     14 H6         4.5009   30.2169    5.5891 H         1 RES1    0.0000
     15 H7         3.4091   30.9562    6.5053 H         1 RES1    0.0000
     16 C4         6.7893   23.9786   12.3004 C.ar      1 RES1    0.0000
     17 C5         4.4238   27.6992    2.0741 C.ar      1 RES1    0.0000
     18 H8         3.8492   27.7336    1.3179 H         1 RES1    0.0000
     19 C6         6.0672   27.6114    4.3081 C.ar      1 RES1    0.0000
     20 C7         5.5857   26.9912    8.1972 C.3       1 RES1    0.0000
     21 H9         6.4730   26.5463    8.0718 H         1 RES1    0.0000
     22 C8         6.9934   27.5722    5.5028 C.3       1 RES1    0.0000
     23 H10        6.9967   26.6550    5.8734 H         1 RES1    0.0000
     24 H11        7.9127   27.7771    5.2001 H         1 RES1    0.0000
     25 N1         5.7796   29.0765    9.2538 N.3       1 RES1    0.0000
     26 C9         3.2767   23.8847    6.5997 C.ar      1 RES1    0.0000
     27 H12        3.6350   24.5414    6.0127 H         1 RES1    0.0000
     28 C10        5.5174   27.6688    9.5738 C.3       1 RES1    0.0000
     29 H13        4.5899   27.5814    9.9398 H         1 RES1    0.0000
     30 C11        5.4162   28.1402    7.1878 C.3       1 RES1    0.0000
     31 H14        4.7107   27.9119    6.5157 H         1 RES1    0.0000
     32 C12        7.0438   25.4256   12.0242 C.3       1 RES1    0.0000
     33 H15        6.8893   25.9548   12.8460 H         1 RES1    0.0000
     34 H16        7.9864   25.5504   11.7480 H         1 RES1    0.0000
     35 C13        6.8019   23.4985   13.5987 C.ar      1 RES1    0.0000
     36 H17        6.9417   24.0978   14.3227 H         1 RES1    0.0000
     37 C14        6.4000   21.2714   12.8092 C.ar      1 RES1    0.0000
     38 H18        6.2684   20.3446   12.9807 H         1 RES1    0.0000
     39 C15        5.4709   26.4698    3.8304 C.ar      1 RES1    0.0000
     40 H19        5.6180   25.6417    4.2747 H         1 RES1    0.0000
     41 C16        5.0275   28.8465    2.5367 C.ar      1 RES1    0.0000
     42 H20        4.8803   29.6732    2.0902 H         1 RES1    0.0000
     43 C17        4.6558   26.5111    2.7094 C.ar      1 RES1    0.0000
     44 H21        4.2586   25.7113    2.3825 H         1 RES1    0.0000
     45 C18        6.5069   27.2091   10.6131 C.3       1 RES1    0.0000
     46 H22        7.4240   27.2378   10.2414 H         1 RES1    0.0000
     47 H23        6.4697   27.8075   11.4015 H         1 RES1    0.0000
     48 C19        3.7022   23.8195    7.8957 C.ar      1 RES1    0.0000
     49 C20        5.8460   28.8017    3.6451 C.ar      1 RES1    0.0000
     50 H24        6.2615   29.5993    3.9547 H         1 RES1    0.0000
     51 C21        4.7641   24.7719    8.4171 C.3       1 RES1    0.0000
     52 H25        4.7831   24.7328    9.4057 H         1 RES1    0.0000
     53 H26        5.6521   24.4849    8.0833 H         1 RES1    0.0000
     54 C22        6.5677   23.0932   11.2761 C.ar      1 RES1    0.0000
     55 H27        6.5407   23.4063   10.3806 H         1 RES1    0.0000
     56 C23        6.6112   22.1447   13.8462 C.ar      1 RES1    0.0000
     57 H28        6.6283   21.8233   14.7394 H         1 RES1    0.0000
     58 C24        6.3810   21.7437   11.5350 C.ar      1 RES1    0.0000
     59 H29        6.2383   21.1405   10.8134 H         1 RES1    0.0000
     60 C25        2.3180   22.9888    6.1427 C.ar      1 RES1    0.0000
     61 H30        2.0024   23.0367    5.2484 H         1 RES1    0.0000
     62 C26        3.1939   22.8583    8.7462 C.ar      1 RES1    0.0000
     63 H31        3.4848   22.8323    9.6498 H         1 RES1    0.0000
     64 C27        2.2674   21.9320    8.3043 C.ar      1 RES1    0.0000
     65 H32        1.9477   21.2492    8.8844 H         1 RES1    0.0000
     66 C28        1.8221   22.0190    7.0152 C.ar      1 RES1    0.0000
     67 H33        1.1645   21.4058    6.7067 H         1 RES1    0.0000
     68 C29        1.8799   21.8711    7.7806 Du        5 SUP5    0.0000
     69 H34        1.2133   21.2014    7.8830 Du        5 SUP5    0.0000
     70 C30        3.5185   23.3672    8.6933 Du        5 SUP5    0.0000
     71 H35        3.9732   23.7107    9.4518 Du        5 SUP5    0.0000
     72 C31        2.6389   22.2886    8.8798 Du        5 SUP5    0.0000
     73 H36        2.5622   21.8624    9.7234 Du        5 SUP5    0.0000
     74 C32        4.7671   25.0024    7.3282 Du        5 SUP5    0.0000
     75 H37        5.6508   24.6371    7.5895 Du        5 SUP5    0.0000
     76 H38        4.8171   25.2546    6.3729 Du        5 SUP5    0.0000
     77 C33        3.7601   23.9412    7.4813 Du        5 SUP5    0.0000
     78 C34        2.1090   22.4582    6.5237 Du        5 SUP5    0.0000
     79 H39        1.6448   22.1495    5.7572 Du        5 SUP5    0.0000
     80 C35        3.0196   23.4759    6.4086 Du        5 SUP5    0.0000
     81 H40        3.1526   23.8804    5.5580 Du        5 SUP5    0.0000
     82 O6         2.8081   11.0051    6.9415 O.3       2 RES2    0.0000
     83 H41        3.4414   10.6072    6.5594 H         2 RES2    0.0000
     84 O7         4.2006   12.4438   10.7156 O.3       2 RES2    0.0000
     85 O8         2.2932    8.7054   11.5891 O.3       2 RES2    0.0000
     86 H42        1.6552    8.4066   12.0472 H         2 RES2    0.0000
     87 O9         2.0642   14.8544    9.1917 O.3       2 RES2    0.0000
     88 O10        3.6408   15.0297    6.2314 O.3       2 RES2    0.0000
     89 N2         3.3293   11.8310    8.0039 N.3       2 RES2    0.0000
     90 C36        3.0450   13.2362    7.6793 C.3       2 RES2    0.0000
     91 H43        2.1124   13.3123    7.3259 H         2 RES2    0.0000
     92 C37        2.7878   10.2123    9.8074 C.3       2 RES2    0.0000
     93 H44        2.5972    9.5243    9.1215 H         2 RES2    0.0000
     94 H45        3.7403   10.1332   10.0653 H         2 RES2    0.0000
     95 C38        2.5416   11.5875    9.2193 C.3       2 RES2    0.0000
     96 H46        1.5704   11.6771    9.0006 H         2 RES2    0.0000
     97 C39        3.0202   14.4465   13.4203 C.ar      2 RES2    0.0000
     98 H47        3.1736   15.2780   12.9887 H         2 RES2    0.0000
     99 C40        4.5589   13.3645   11.7537 C.3       2 RES2    0.0000
    100 H48        4.5526   14.2821   11.3854 H         2 RES2    0.0000
    101 H49        5.4804   13.1644   12.0564 H         2 RES2    0.0000
    102 C41        1.9203    9.9618   11.0194 C.3       2 RES2    0.0000
    103 H50        2.0485   10.6855   11.6824 H         2 RES2    0.0000
    104 H51        0.9663    9.9462   10.7558 H         2 RES2    0.0000
    105 C42        3.6324   13.3084   12.9415 C.ar      2 RES2    0.0000
    106 C43        3.1257   13.9251    9.0455 C.3       2 RES2    0.0000
    107 H52        4.0093   14.3778    9.1583 H         2 RES2    0.0000
    108 C44        3.4214   12.1072   13.6010 C.ar      2 RES2    0.0000
    109 H53        3.8500   11.3161   13.2949 H         2 RES2    0.0000
    110 C45        4.0170   13.7237    6.6308 C.3       2 RES2    0.0000
    111 H54        4.9353   13.7341    7.0014 H         2 RES2    0.0000
    112 H55        4.0043   13.1166    5.8504 H         2 RES2    0.0000
    113 C46        1.9675   13.1879   15.1572 C.ar      2 RES2    0.0000
    114 H56        1.3879   13.1427   15.9076 H         2 RES2    0.0000
    115 C47        2.5906   12.0580   14.6991 C.ar      2 RES2    0.0000
    116 H57        2.4496   11.2291   15.1433 H         2 RES2    0.0000
    117 C48        4.4807   15.5111    5.2001 C.3       2 RES2    0.0000
    118 H58        4.3262   14.9867    4.3737 H         2 RES2    0.0000
    119 H59        5.4288   15.3998    5.4637 H         2 RES2    0.0000
    120 C49        4.1965   16.9607    4.9423 C.ar      2 RES2    0.0000
    121 C50        2.9709   12.7761   10.0676 C.3       2 RES2    0.0000
    122 H60        2.2683   12.9992   10.7420 H         2 RES2    0.0000
    123 C51        3.9517   17.8361    5.9689 C.ar      2 RES2    0.0000
    124 H61        3.9109   17.5134    6.8609 H         2 RES2    0.0000
    125 C52        3.8106   19.6697    4.4520 C.ar      2 RES2    0.0000
    126 H62        3.7006   20.6012    4.2920 H         2 RES2    0.0000
    127 C53        2.1835   14.3878   14.5253 C.ar      2 RES2    0.0000
    128 H63        1.7614   15.1780   14.8441 H         2 RES2    0.0000
    129 C54       -0.2752   18.4789   10.8134 C.ar      2 RES2    0.0000
    130 H64       -0.7100   18.7746   11.6030 H         2 RES2    0.0000
    131 C55        3.7637   19.1821    5.7249 C.ar      2 RES2    0.0000
    132 H65        3.6000   19.7749    6.4501 H         2 RES2    0.0000
    133 C56        4.0158   18.8216    3.4161 C.ar      2 RES2    0.0000
    134 H66        4.0244   19.1573    2.5275 H         2 RES2    0.0000
    135 C57        2.2892   15.9026    9.9294 C.3       2 RES2    0.0000
    136 H67        3.1735   16.2740    9.6877 H         2 RES2    0.0000
    137 H68        2.3327   15.6173   10.8767 H         2 RES2    0.0000
    138 C58        4.2136   17.4543    3.6440 C.ar      2 RES2    0.0000
    139 H69        4.3590   16.8654    2.9131 H         2 RES2    0.0000
    140 C59        0.6172   17.4960   10.8755 C.ar      2 RES2    0.0000
    141 H70        0.8148   17.1307   11.7307 H         2 RES2    0.0000
    142 C60        1.2658   16.9785    9.8005 C.ar      2 RES2    0.0000
    143 C61       -0.5623   19.0617    9.6060 C.ar      2 RES2    0.0000
    144 H71       -1.1744   19.7923    9.5577 H         2 RES2    0.0000
    145 C62        0.0430   18.5659    8.4470 C.ar      2 RES2    0.0000
    146 H72       -0.1567   18.9355    7.5964 H         2 RES2    0.0000
    147 C63        0.9549   17.5091    8.5678 C.ar      2 RES2    0.0000
    148 H73        1.3655   17.1525    7.7886 H         2 RES2    0.0000
    149 C64        1.2426   17.0655    9.3908 Du        5 SUP5    0.0000
    150 C65       -0.2593   18.9616    9.0536 Du        5 SUP5    0.0000
    151 H74       -0.6565   19.6096    8.4850 Du        5 SUP5    0.0000
    152 C66        0.6860   18.0266    8.5552 Du        5 SUP5    0.0000
    153 H75        0.9441   18.0614    7.6413 Du        5 SUP5    0.0000
    154 C67       -0.5817   18.8921   10.3944 Du        5 SUP5    0.0000
    155 H76       -1.1819   19.5227   10.7685 Du        5 SUP5    0.0000
    156 C68        2.2709   16.1074    8.8395 Du        5 SUP5    0.0000
    157 H77        2.2668   16.1652    7.8508 Du        5 SUP5    0.0000
    158 H78        3.1666   16.3870    9.1537 Du        5 SUP5    0.0000
    159 C69       -0.0402   17.9135   11.1909 Du        5 SUP5    0.0000
    160 H79       -0.2953   17.8570   12.1025 Du        5 SUP5    0.0000
    161 C70        0.8606   17.0350   10.7017 Du        5 SUP5    0.0000
    162 H80        1.2360   16.3783   11.2795 Du        5 SUP5    0.0000
    163 O11        1.7476   28.4503    6.4656 O.3       3 RES3    0.0000
    164 N3         0.8280   28.9287    9.1997 N.3       3 RES3    0.0000
    165 O12       -0.2273   32.1961    5.7307 O.3       3 RES3    0.0000
    166 H81       -0.8519   32.4696    5.2404 H         3 RES3    0.0000
    167 C71        0.2726   30.6287    7.4629 C.3       3 RES3    0.0000
    168 H82        0.0306   31.2824    8.1673 H         3 RES3    0.0000
    169 H83        1.2318   30.7518    7.2477 H         3 RES3    0.0000
    170 O13        0.2903   29.6911   10.2955 O.3       3 RES3    0.0000
    171 H84        0.9156   30.0777   10.7029 H         3 RES3    0.0000
    172 O14        1.2701   25.6708   10.8376 O.3       3 RES3    0.0000
    173 O15       -0.4220   26.0022    7.7357 O.3       3 RES3    0.0000
    174 C72       -0.5522   30.8927    6.2325 C.3       3 RES3    0.0000
    175 H85       -0.3607   30.2082    5.5442 H         3 RES3    0.0000
    176 H86       -1.5164   30.8475    6.4570 H         3 RES3    0.0000
    177 C73        0.5118   28.0854    7.0854 C.3       3 RES3    0.0000
    178 H87       -0.1794   27.8945    6.3890 H         3 RES3    0.0000
    179 C74        0.0502   29.2231    7.9843 C.3       3 RES3    0.0000
    180 H88       -0.9214   29.1035    8.1846 H         3 RES3    0.0000
    181 C75       -1.2600   23.7912    7.5297 C.ar      3 RES3    0.0000
    182 C76        1.5905   27.0090   10.4508 C.3       3 RES3    0.0000
    183 H89        2.4966   27.0334   10.0514 H         3 RES3    0.0000
    184 H90        1.5869   27.5988   11.2462 H         3 RES3    0.0000
    185 C77        0.9584   28.7552    3.5197 C.ar      3 RES3    0.0000
    186 H91        1.4706   29.5297    3.7257 H         3 RES3    0.0000
    187 C78        0.0402   28.7978    2.4919 C.ar      3 RES3    0.0000
    188 H92       -0.0774   29.5993    1.9969 H         3 RES3    0.0000
    189 C79        2.2028   25.1985   11.7940 C.3       3 RES3    0.0000
    190 H93        2.1612   25.7678   12.6043 H         3 RES3    0.0000
    191 H94        3.1179   25.2590   11.4223 H         3 RES3    0.0000
    192 C80        0.3880   26.4871    3.9214 C.ar      3 RES3    0.0000
    193 H95        0.5041   25.6808    4.4105 H         3 RES3    0.0000
    194 C81        0.6529   26.8851    8.0407 C.3       3 RES3    0.0000
    195 H96        1.5312   26.4289    7.9014 H         3 RES3    0.0000
    196 C82        1.9101   23.7764   12.1646 C.ar      3 RES3    0.0000
    197 C83        0.6518   23.2541   12.0898 C.ar      3 RES3    0.0000
    198 H97       -0.0609   23.7934   11.7641 H         3 RES3    0.0000
    199 C84        1.1422   27.5992    4.2517 C.ar      3 RES3    0.0000
    200 C85        2.1227   27.5674    5.3958 C.3       3 RES3    0.0000
    201 H98        2.1839   26.6420    5.7445 H         3 RES3    0.0000
    202 H99        3.0186   27.8249    5.0620 H         3 RES3    0.0000
    203 C86       -0.2806   24.6906    8.2398 C.3       3 RES3    0.0000
    204 H100      -0.4573   24.6806    9.2135 H         3 RES3    0.0000
    205 H101       0.6437   24.3674    8.0879 H         3 RES3    0.0000
    206 C87       -0.5322   26.5311    2.8889 C.ar      3 RES3    0.0000
    207 H102      -1.0434   25.7591    2.6737 H         3 RES3    0.0000
    208 C88       -2.6491   21.8320    7.5711 C.ar      3 RES3    0.0000
    209 H103      -2.9687   21.0666    8.0303 H         3 RES3    0.0000
    210 C89        0.5813   27.4957    9.4529 C.3       3 RES3    0.0000
    211 H104      -0.3397   27.3770    9.8224 H         3 RES3    0.0000
    212 C90        1.4357   21.1696   12.9588 C.ar      3 RES3    0.0000
    213 H105       1.2669   20.2794   13.2431 H         3 RES3    0.0000
    214 C91       -0.7026   27.6914    2.1788 C.ar      3 RES3    0.0000
    215 H106      -1.3369   27.7292    1.4721 H         3 RES3    0.0000
    216 C92       -1.7359   22.6644    8.1834 C.ar      3 RES3    0.0000
    217 H107      -1.4282   22.4626    9.0593 H         3 RES3    0.0000
    218 C93       -3.0968   22.1029    6.3108 C.ar      3 RES3    0.0000
    219 H108      -3.7478   21.5406    5.9056 H         3 RES3    0.0000
    220 C94       -1.6939   24.0278    6.2463 C.ar      3 RES3    0.0000
    221 H109      -1.3599   24.7806    5.7744 H         3 RES3    0.0000
    222 C95        2.6826   21.6724   13.0187 C.ar      3 RES3    0.0000
    223 H110       3.3947   21.1274   13.3340 H         3 RES3    0.0000
    224 C96        2.9361   22.9740   12.6262 C.ar      3 RES3    0.0000
    225 H111       3.8200   23.3193   12.6734 H         3 RES3    0.0000
    226 C97       -2.6041   23.1919    5.6294 C.ar      3 RES3    0.0000
    227 H112      -2.8871   23.3672    4.7397 H         3 RES3    0.0000
    228 C98        0.4017   21.9529   12.4811 C.ar      3 RES3    0.0000
    229 H113      -0.4778   21.5971   12.4213 H         3 RES3    0.0000
    230 O16       -1.2418   15.1115    6.4029 O.3       4 RES4    0.0000
    231 O17       -0.6892   12.4003   10.7927 O.3       4 RES4    0.0000
    232 O18       -2.6182    8.6332   11.5822 O.3       4 RES4    0.0000
    233 H114      -3.3022    8.2848   11.9229 H         4 RES4    0.0000
    234 C99       -0.9098   13.7855    6.7643 C.3       4 RES4    0.0000
    235 H115       0.0070   13.7559    7.1360 H         4 RES4    0.0000
    236 H116      -0.9404   13.2036    5.9655 H         4 RES4    0.0000
    237 N4        -1.6294   11.8728    8.0683 N.3       4 RES4    0.0000
    238 C100      -1.9332   12.7387   10.1665 C.3       4 RES4    0.0000
    239 H117      -2.6263   12.9339   10.8606 H         4 RES4    0.0000
    240 O19       -2.1710   11.0826    6.9864 O.3       4 RES4    0.0000
    241 H118      -1.5451   10.6942    6.5847 H         4 RES4    0.0000
    242 O20       -2.8565   14.8305    9.4967 O.3       4 RES4    0.0000
    243 C101      -0.3487   15.6012    5.4234 C.3       4 RES4    0.0000
    244 H119      -0.4265   15.0562    4.6004 H         4 RES4    0.0000
    245 H120       0.5813   15.5259    5.7549 H         4 RES4    0.0000
    246 C102      -2.9453    9.9283   11.0747 C.3       4 RES4    0.0000
    247 H121      -2.7414   10.6159   11.7549 H         4 RES4    0.0000
    248 H122      -3.9115    9.9723   10.8652 H         4 RES4    0.0000
    249 C103      -1.2902   13.2792   12.9979 C.ar      4 RES4    0.0000
    250 C104      -2.3854   11.5897    9.2883 C.3       4 RES4    0.0000
    251 H123      -3.3610   11.6945    9.0961 H         4 RES4    0.0000
    252 C105      -4.1640   18.1192    8.9615 C.ar      4 RES4    0.0000
    253 H124      -3.8662   18.2528    8.0706 H         4 RES4    0.0000
    254 C106      -0.6539   17.0346    5.1057 C.ar      4 RES4    0.0000
    255 C107      -3.6698   17.0677    9.6808 C.ar      4 RES4    0.0000
    256 C108      -1.8982   13.2945    7.7978 C.3       4 RES4    0.0000
    257 H125      -2.8293   13.3993    7.4479 H         4 RES4    0.0000
    258 C109      -4.0889   16.9050   10.9791 C.ar      4 RES4    0.0000
    259 H126      -3.7493   16.1870   11.4994 H         4 RES4    0.0000
    260 C110      -0.3136   13.3019   11.8458 C.3       4 RES4    0.0000
    261 H127      -0.2624   14.2212   11.4821 H         4 RES4    0.0000
    262 H128       0.5857   13.0557   12.1773 H         4 RES4    0.0000
    263 C111      -2.1364   10.1888    9.8236 C.3       4 RES4    0.0000
    264 H129      -2.3796    9.5243    9.1307 H         4 RES4    0.0000
    265 H130      -1.1732   10.0810   10.0261 H         4 RES4    0.0000
    266 C112      -2.9543   14.3352   14.3549 C.ar      4 RES4    0.0000
    267 H131      -3.4743   15.1041   14.5644 H         4 RES4    0.0000
    268 C113      -3.1130   13.1836   15.0893 C.ar      4 RES4    0.0000
    269 H132      -3.7412   13.1514   15.8006 H         4 RES4    0.0000
    270 C114      -2.3531   12.0859   14.7819 C.ar      4 RES4    0.0000
    271 H133      -2.4548   11.2857   15.2872 H         4 RES4    0.0000
    272 C115      -1.1828   19.6918    4.5095 C.ar      4 RES4    0.0000
    273 H134      -1.3582   20.6056    4.3219 H         4 RES4    0.0000
    274 C116      -1.4454   12.1302   13.7495 C.ar      4 RES4    0.0000
    275 H135      -0.9213   11.3639   13.5516 H         4 RES4    0.0000
    276 C117      -2.1988   18.8551    4.9043 C.ar      4 RES4    0.0000
    277 H136      -3.0883   19.1834    4.9630 H         4 RES4    0.0000
    278 C118      -1.7991   13.9307    9.1974 C.3       4 RES4    0.0000
    279 H137      -0.9134   14.3778    9.3148 H         4 RES4    0.0000
    280 C119      -2.6705   16.1417    9.0443 C.3       4 RES4    0.0000
    281 H138      -2.7736   16.1696    8.0603 H         4 RES4    0.0000
    282 H139      -1.7533   16.4436    9.2665 H         4 RES4    0.0000
    283 C120      -1.9219   17.5373    5.2139 C.ar      4 RES4    0.0000
    284 H140      -2.6244   16.9698    5.5074 H         4 RES4    0.0000
    285 C121      -5.0829   18.9851    9.5001 C.ar      4 RES4    0.0000
    286 H141      -5.4126   19.7097    8.9799 H         4 RES4    0.0000
    287 C122      -2.0480   14.3874   13.3168 C.ar      4 RES4    0.0000
    288 H142      -1.9444   15.1911   12.8184 H         4 RES4    0.0000
    289 C123      -5.0063   17.7852   11.5350 C.ar      4 RES4    0.0000
    290 H143      -5.2773   17.6787   12.4397 H         4 RES4    0.0000
    291 C124      -5.5229   18.8099   10.7777 C.ar      4 RES4    0.0000
    292 H144      -6.1811   19.3922   11.1414 H         4 RES4    0.0000
    293 C125       0.3655   17.8666    4.6914 C.ar      4 RES4    0.0000
    294 H145       1.2535   17.5352    4.6131 H         4 RES4    0.0000
    295 C126       0.0837   19.1908    4.3887 C.ar      4 RES4    0.0000
    296 H146       0.7847   19.7619    4.0917 H         4 RES4    0.0000
@<TRIPOS>BOND
     1    1    2 1
     2    3   32 1
     3    4    5 1
     4    6   20 1
     5    7   22 1
     6    8    9 1
     7   10    8 1
     8   11    8 1
     9   12   11 1
    10   13    4 1
    11   14   13 1
    12   15   13 1
    13   16   32 1
    14   17   18 1
    15   19   22 1
    16   20   21 1
    17   22   23 1
    18   24   22 1
    19   25    1 1
    20   26   27 1
    21   28   20 1
    22   29   28 1
    23   30    7 1
    24   31   30 1
    25   32   33 1
    26   34   32 1
    27   35   16 ar
    28   36   35 1
    29   37   38 1
    30   39   19 ar
    31   40   39 1
    32   41   17 ar
    33   42   41 1
    34   43   17 ar
    35   44   43 1
    36   45    3 1
    37   46   45 1
    38   47   45 1
    39   48   26 ar
    40   49   19 ar
    41   50   49 1
    42   51    6 1
    43   52   51 1
    44   53   51 1
    45   54   16 ar
    46   55   54 1
    47   56   35 ar
    48   57   56 1
    49   58   37 ar
    50   59   58 1
    51   60   26 ar
    52   61   60 1
    53   62   48 ar
    54   63   62 1
    55   64   62 ar
    56   65   64 1
    57   66   60 ar
    58   67   66 1
    59   82   83 1
    60   84   99 1
    61   85   86 1
    62   87  106 1
    63   88  110 1
    64   89   82 1
    65   90   89 1
    66   91   90 1
    67   92   93 1
    68   94   92 1
    69   95   89 1
    70   96   95 1
    71   97   98 1
    72   99  100 1
    73  101   99 1
    74  102   85 1
    75  103  102 1
    76  104  102 1
    77  105   97 ar
    78  106   90 1
    79  107  106 1
    80  108  105 ar
    81  109  108 1
    82  110   90 1
    83  111  110 1
    84  112  110 1
    85  113  114 1
    86  115  108 ar
    87  116  115 1
    88  117   88 1
    89  118  117 1
    90  119  117 1
    91  120  117 1
    92  121   84 1
    93  122  121 1
    94  123  120 ar
    95  124  123 1
    96  125  126 1
    97  127   97 ar
    98  128  127 1
    99  129  130 1
   100  131  123 ar
   101  132  131 1
   102  133  125 ar
   103  134  133 1
   104  135   87 1
   105  136  135 1
   106  137  135 1
   107  138  120 ar
   108  139  138 1
   109  140  129 ar
   110  141  140 1
   111  142  135 1
   112  143  129 ar
   113  144  143 1
   114  145  143 ar
   115  146  145 1
   116  147  142 ar
   117  148  147 1
   118  163  177 1
   119  164  170 1
   120  165  166 1
   121  167  168 1
   122  169  167 1
   123  170  171 1
   124  172  182 1
   125  173  194 1
   126  174  165 1
   127  175  174 1
   128  176  174 1
   129  177  178 1
   130  179  164 1
   131  180  179 1
   132  181  203 1
   133  182  183 1
   134  184  182 1
   135  185  186 1
   136  187  185 ar
   137  188  187 1
   138  189  172 1
   139  190  189 1
   140  191  189 1
   141  192  193 1
   142  194  177 1
   143  195  194 1
   144  196  189 1
   145  197  196 ar
   146  198  197 1
   147  199  185 ar
   148  200  163 1
   149  201  200 1
   150  202  200 1
   151  203  173 1
   152  204  203 1
   153  205  203 1
   154  206  192 ar
   155  207  206 1
   156  208  209 1
   157  210  164 1
   158  211  210 1
   159  212  213 1
   160  214  187 ar
   161  215  214 1
   162  216  181 ar
   163  217  216 1
   164  218  208 ar
   165  219  218 1
   166  220  181 ar
   167  221  220 1
   168  222  212 ar
   169  223  222 1
   170  224  196 ar
   171  225  224 1
   172  226  218 ar
   173  227  226 1
   174  228  197 ar
   175  229  228 1
   176  230  234 1
   177  231  238 1
   178  232  233 1
   179  234  235 1
   180  236  234 1
   181  237  240 1
   182  238  239 1
   183  240  241 1
   184  242  278 1
   185  243  230 1
   186  244  243 1
   187  245  243 1
   188  246  232 1
   189  247  246 1
   190  248  246 1
   191  249  260 1
   192  250  237 1
   193  251  250 1
   194  252  253 1
   195  254  243 1
   196  255  252 ar
   197  256  234 1
   198  257  256 1
   199  258  255 ar
   200  259  258 1
   201  260  231 1
   202  261  260 1
   203  262  260 1
   204  263  246 1
   205  264  263 1
   206  265  263 1
   207  266  267 1
   208  268  266 ar
   209  269  268 1
   210  270  268 ar
   211  271  270 1
   212  272  273 1
   213  274  249 ar
   214  275  274 1
   215  276  272 ar
   216  277  276 1
   217  278  238 1
   218  279  278 1
   219  280  242 1
   220  281  280 1
   221  282  280 1
   222  283  254 ar
   223  284  283 1
   224  285  252 ar
   225  286  285 1
   226  287  249 ar
   227  288  287 1
   228  289  258 ar
   229  290  289 1
   230  291  285 ar
   231  292  291 1
   232  293  254 ar
   233  294  293 1
   234  295  272 ar
   235  296  295 1
   236    8   13 1
   237   11   25 1
   238   11   30 1
   239   20   30 1
   240   25   28 1
   241   28   45 1
   242   37   56 ar
   243   39   43 ar
   244   41   49 ar
   245   48   51 1
   246   54   58 ar
   247   64   66 ar
   248   92   95 1
   249   92  102 1
   250   95  121 1
   251   99  105 1
   252  106  121 1
   253  113  115 ar
   254  113  127 ar
   255  125  131 ar
   256  133  138 ar
   257  140  142 ar
   258  145  147 ar
   259  167  174 1
   260  167  179 1
   261  177  179 1
   262  182  210 1
   263  192  199 ar
   264  194  210 1
   265  199  200 1
   266  206  214 ar
   267  208  216 ar
   268  212  228 ar
   269  220  226 ar
   270  222  224 ar
   271  237  256 1
   272  238  250 1
   273  250  263 1
   274  255  280 1
   275  256  278 1
   276  266  287 ar
   277  270  274 ar
   278  276  283 ar
   279  289  291 ar
   280  293  295 ar
@<TRIPOS>SUBSTRUCTURE
     1 RES1 1
     2 RES2 82
     3 RES3 163
     4 RES4 230
     5 SUP5 68

@<TRIPOS>CRYSIN
   9.9020   43.4900   12.5130  90.0000 113.1000  90.0000   4 1

