# MOL2 file generated by ConQuest
# Please check atom types

@<TRIPOS>MOLECULE
PAKNOH
    74    78     1
SMALL
NO_CHARGES
****
Generated from CSD

@<TRIPOS>ATOM
      1 O1         6.9365    3.3878    1.4287 O.3       1 RES1    0.0000
      2 O2        10.7160    5.2725    1.7792 O.2       1 RES1    0.0000
      3 O3        11.2720    1.0756    3.1394 O.2       1 RES1    0.0000
      4 O4        10.4976    2.6252   -2.5391 O.3       1 RES1    0.0000
      5 O5         7.4253   -1.9992    4.5240 O.3       1 RES1    0.0000
      6 O6         8.9338    3.8406    4.1313 O.2       1 RES1    0.0000
      7 O7         6.8013    4.3999    4.5220 O.3       1 RES1    0.0000
      8 O8         5.6349    6.4942    0.6453 O.2       1 RES1    0.0000
      9 O9         5.5912    5.0867   -1.0801 O.3       1 RES1    0.0000
     10 N1         9.1579    3.7327    1.1486 N.am      1 RES1    0.0000
     11 N2        11.2129    3.0319    1.9222 N.am      1 RES1    0.0000
     12 N3         9.5098    1.4742    1.7450 N.am      1 RES1    0.0000
     13 N4        10.0046    3.0349   -1.2926 N.2       1 RES1    0.0000
     14 C1        10.3687    4.1273    1.6265 C.2       1 RES1    0.0000
     15 C2        10.6958    1.7920    2.3472 C.2       1 RES1    0.0000
     16 C3         8.9647    2.3843    0.7315 C.3       1 RES1    0.0000
     17 C4         7.4278    2.1891    0.8079 C.3       1 RES1    0.0000
     18 C5         7.2666    1.0016    1.7009 C.ar      1 RES1    0.0000
     19 C6         6.1278    0.3077    2.0808 C.ar      1 RES1    0.0000
     20 C7         6.2250   -0.6929    3.0189 C.ar      1 RES1    0.0000
     21 C8         7.4562   -1.0138    3.5830 C.ar      1 RES1    0.0000
     22 C9         8.6205   -0.3554    3.2099 C.ar      1 RES1    0.0000
     23 C10        8.4830    0.6545    2.2708 C.ar      1 RES1    0.0000
     24 C11       12.5657    3.3389    2.3237 C.ar      1 RES1    0.0000
     25 C12       13.5766    3.1038    1.4169 C.ar      1 RES1    0.0000
     26 C13       14.8896    3.3764    1.8076 C.ar      1 RES1    0.0000
     27 C14       15.1607    3.8527    3.0356 C.ar      1 RES1    0.0000
     28 C15       14.1390    4.0860    3.9326 C.ar      1 RES1    0.0000
     29 C16       12.8120    3.8284    3.5830 C.ar      1 RES1    0.0000
     30 C17        9.5614    2.0486   -0.6257 C.2       1 RES1    0.0000
     31 C18        9.5158    0.6272   -1.0762 C.3       1 RES1    0.0000
     32 C19       11.0150    3.7778   -3.2187 C.3       1 RES1    0.0000
     33 C20        8.6617   -2.3779    5.1331 C.3       1 RES1    0.0000
     34 C21        7.8818    4.4503    1.3053 C.3       1 RES1    0.0000
     35 C22        7.7868    5.2685    2.5832 C.3       1 RES1    0.0000
     36 C23        7.9285    4.4240    3.8170 C.2       1 RES1    0.0000
     37 C24        6.8014    3.6009    5.7451 C.3       1 RES1    0.0000
     38 C25        6.5304    2.1702    5.4660 C.3       1 RES1    0.0000
     39 C26        7.6160    5.2815    0.0470 C.3       1 RES1    0.0000
     40 C27        6.1826    5.7053   -0.0715 C.2       1 RES1    0.0000
     41 C28        4.1956    5.4647   -1.3063 C.3       1 RES1    0.0000
     42 C29        3.6303    4.5125   -2.2591 C.3       1 RES1    0.0000
     43 H1         9.4753   -0.5363    3.6035 H         1 RES1    0.0000
     44 H2         7.0287    2.0886   -0.0979 H         1 RES1    0.0000
     45 H3         5.3276    0.5587    1.6647 H         1 RES1    0.0000
     46 H4         5.4396   -1.1583    3.3196 H         1 RES1    0.0000
     47 H5         8.4701    5.9559    2.5949 H         1 RES1    0.0000
     48 H6         6.9162    5.7273    2.6243 H         1 RES1    0.0000
     49 H7         8.1236    6.0014    0.0979 H         1 RES1    0.0000
     50 H8         7.8678    4.7881   -0.7442 H         1 RES1    0.0000
     51 H9         8.4499   -3.0324    5.7970 H         1 RES1    0.0000
     52 H10        9.3288   -2.7376    4.4359 H         1 RES1    0.0000
     53 H11        9.1099   -1.6183    5.5424 H         1 RES1    0.0000
     54 H12       13.3399    2.7887    0.4406 H         1 RES1    0.0000
     55 H13       12.0476    3.9550    4.2302 H         1 RES1    0.0000
     56 H14       11.6853    4.1491   -2.6537 H         1 RES1    0.0000
     57 H15       11.3861    3.4036   -3.9854 H         1 RES1    0.0000
     58 H16       10.2426    4.4652   -3.3587 H         1 RES1    0.0000
     59 H17        7.6722    3.7318    6.2572 H         1 RES1    0.0000
     60 H18        6.0777    4.0097    6.3062 H         1 RES1    0.0000
     61 H19        9.2581    0.0176   -0.4015 H         1 RES1    0.0000
     62 H20        9.0423    0.5189   -1.8116 H         1 RES1    0.0000
     63 H21       10.3116    0.4188   -1.5178 H         1 RES1    0.0000
     64 H22        3.6639    5.3254   -0.4309 H         1 RES1    0.0000
     65 H23        4.0777    6.3625   -1.8997 H         1 RES1    0.0000
     66 H24       14.1784    4.3871    4.9255 H         1 RES1    0.0000
     67 H25       15.6223    3.1747    0.9792 H         1 RES1    0.0000
     68 H26        5.6666    2.0105    5.0234 H         1 RES1    0.0000
     69 H27        7.1892    1.7538    4.9353 H         1 RES1    0.0000
     70 H28        6.5340    1.7017    6.3258 H         1 RES1    0.0000
     71 H29        2.7518    4.8225   -2.4285 H         1 RES1    0.0000
     72 H30        4.1645    4.5122   -3.1433 H         1 RES1    0.0000
     73 H31        3.7566    3.9050   -1.5374 H         1 RES1    0.0000
     74 H32       16.1420    4.1346    3.1727 H         1 RES1    0.0000
@<TRIPOS>BOND
     1    1   17 1
     2    2   14 2
     3    3   15 2
     4    4   13 1
     5    5   21 1
     6    6   36 2
     7    7   36 1
     8    8   40 2
     9    9   40 1
    10   10   14 1
    11   11   14 1
    12   12   15 1
    13   13   30 2
    14   15   11 1
    15   16   10 1
    16   17   16 1
    17   18   17 1
    18   19   18 ar
    19   20   19 ar
    20   21   20 ar
    21   22   21 ar
    22   23   12 1
    23   24   11 1
    24   25   24 ar
    25   26   25 ar
    26   27   26 ar
    27   28   27 ar
    28   29   24 ar
    29   30   16 1
    30   31   30 1
    31   32    4 1
    32   33    5 1
    33   34    1 1
    34   35   34 1
    35   36   35 1
    36   37    7 1
    37   38   37 1
    38   39   34 1
    39   40   39 1
    40   41    9 1
    41   42   41 1
    42   43   22 1
    43   44   17 1
    44   45   19 1
    45   46   20 1
    46   47   35 1
    47   48   35 1
    48   49   39 1
    49   50   39 1
    50   51   33 1
    51   52   33 1
    52   53   33 1
    53   54   25 1
    54   55   29 1
    55   56   32 1
    56   57   32 1
    57   58   32 1
    58   59   37 1
    59   60   37 1
    60   61   31 1
    61   62   31 1
    62   63   31 1
    63   64   41 1
    64   65   41 1
    65   66   28 1
    66   67   26 1
    67   68   38 1
    68   69   38 1
    69   70   38 1
    70   71   42 1
    71   72   42 1
    72   73   42 1
    73   74   27 1
    74   10   34 1
    75   12   16 1
    76   18   23 ar
    77   22   23 ar
    78   28   29 ar
@<TRIPOS>SUBSTRUCTURE
     1 RES1 1

@<TRIPOS>CRYSIN
  11.5600   13.8650   10.0140  99.9900  93.0600 109.2400   2 1

