# MOL2 file generated by ConQuest
# Please check atom types

@<TRIPOS>MOLECULE
PAKPAV
    54    57     1
SMALL
NO_CHARGES
****
Generated from CSD

@<TRIPOS>ATOM
      1 O1         3.3219   -1.8471    7.7107 O.2       1 RES1    0.0000
      2 O2         6.7774    1.1211    8.1674 O.2       1 RES1    0.0000
      3 O3         4.1631    4.6379    6.9118 O.3       1 RES1    0.0000
      4 O4        -1.1818   -0.5784    8.1517 O.3       1 RES1    0.0000
      5 O5         4.6397    0.9824   11.9932 O.3       1 RES1    0.0000
      6 N1         3.0030    3.7956    7.0058 N.3       1 RES1    0.0000
      7 N2         5.3070   -0.6589    7.8661 N.am      1 RES1    0.0000
      8 N3         3.4324    0.4577    7.9155 N.am      1 RES1    0.0000
      9 N4         4.4903    1.3939    7.9541 N.am      1 RES1    0.0000
     10 N5         4.5267    1.1106   10.5822 N.2       1 RES1    0.0000
     11 C1         6.2230   -1.7755    7.9276 C.ar      1 RES1    0.0000
     12 C2         6.6922   -2.2287    9.1061 C.ar      1 RES1    0.0000
     13 C3         7.5575   -3.3036    9.1350 C.ar      1 RES1    0.0000
     14 C4         7.9304   -3.8955    8.0384 C.ar      1 RES1    0.0000
     15 C5         7.4517   -3.4557    6.8756 C.ar      1 RES1    0.0000
     16 C6         6.5913   -2.3853    6.8202 C.ar      1 RES1    0.0000
     17 C7         5.6707    0.6589    8.0360 C.2       1 RES1    0.0000
     18 C8         3.9255   -0.8021    7.8300 C.2       1 RES1    0.0000
     19 C9         4.3136    2.5761    8.7819 C.3       1 RES1    0.0000
     20 C10        2.9970    3.2321    8.3578 C.3       1 RES1    0.0000
     21 C11        1.8723    2.2243    8.4144 C.ar      1 RES1    0.0000
     22 C12        0.5684    2.6134    8.7048 C.ar      1 RES1    0.0000
     23 C13       -0.4724    1.7204    8.6554 C.ar      1 RES1    0.0000
     24 C14       -0.2221    0.4130    8.2903 C.ar      1 RES1    0.0000
     25 C15        1.0758   -0.0194    8.0421 C.ar      1 RES1    0.0000
     26 C16        2.1090    0.8915    8.1240 C.ar      1 RES1    0.0000
     27 C17        4.3933    2.3212   10.2496 C.2       1 RES1    0.0000
     28 C18        4.3491    3.4885   11.1786 C.3       1 RES1    0.0000
     29 C19        4.7235   -0.3966   12.2956 C.3       1 RES1    0.0000
     30 C20        3.7589    5.9021    6.4961 C.3       1 RES1    0.0000
     31 C21       -2.4893   -0.2147    8.1240 C.3       1 RES1    0.0000
     32 H1         5.0330    3.1948    8.5482 H         1 RES1    0.0000
     33 H2         0.4061    3.5421    8.9578 H         1 RES1    0.0000
     34 H3         1.2306   -0.9541    7.7974 H         1 RES1    0.0000
     35 H4         2.7958    3.9655    8.9819 H         1 RES1    0.0000
     36 H5         8.5923   -4.6245    8.0625 H         1 RES1    0.0000
     37 H6        -1.3774    1.9917    8.8855 H         1 RES1    0.0000
     38 H7         6.2174   -2.0871    5.9671 H         1 RES1    0.0000
     39 H8         5.1371    3.5794   11.7100 H         1 RES1    0.0000
     40 H9         4.2250    4.3293   10.7039 H         1 RES1    0.0000
     41 H10        3.5959    3.4273   11.7992 H         1 RES1    0.0000
     42 H11        4.4889    6.5297    6.4165 H         1 RES1    0.0000
     43 H12        3.3236    5.8902    5.6176 H         1 RES1    0.0000
     44 H13        3.1142    6.3061    7.0974 H         1 RES1    0.0000
     45 H14        7.8630   -3.7300    9.9700 H         1 RES1    0.0000
     46 H15        7.7434   -3.9238    6.0358 H         1 RES1    0.0000
     47 H16        6.3676   -1.8396    9.9724 H         1 RES1    0.0000
     48 H17        3.8671   -0.8572   11.9558 H         1 RES1    0.0000
     49 H18        5.4124   -0.8662   11.8233 H         1 RES1    0.0000
     50 H19        4.7538   -0.6142   13.2054 H         1 RES1    0.0000
     51 H20       -2.8024    0.2982    8.8699 H         1 RES1    0.0000
     52 H21       -2.6695    0.4115    7.3287 H         1 RES1    0.0000
     53 H22       -3.1181   -0.9273    7.9722 H         1 RES1    0.0000
     54 H23        3.2156    3.0412    6.2852 H         1 RES1    0.0000
@<TRIPOS>BOND
     1    1   18 2
     2    2   17 2
     3    3    6 1
     4    4   24 1
     5    5   10 1
     6    6   20 1
     7    7   11 1
     8    8    9 1
     9    9   17 1
    10   10   27 2
    11   11   12 ar
    12   12   13 ar
    13   13   14 ar
    14   14   15 ar
    15   15   16 ar
    16   16   11 ar
    17   17    7 1
    18   18    7 1
    19   19    9 1
    20   20   19 1
    21   21   20 1
    22   22   21 ar
    23   23   22 ar
    24   24   23 ar
    25   25   24 ar
    26   26    8 1
    27   27   19 1
    28   28   27 1
    29   29    5 1
    30   30    3 1
    31   31    4 1
    32   32   19 1
    33   33   22 1
    34   34   25 1
    35   35   20 1
    36   36   14 1
    37   37   23 1
    38   38   16 1
    39   39   28 1
    40   40   28 1
    41   41   28 1
    42   42   30 1
    43   43   30 1
    44   44   30 1
    45   45   13 1
    46   46   15 1
    47   47   12 1
    48   48   29 1
    49   49   29 1
    50   50   29 1
    51   51   31 1
    52   52   31 1
    53   53   31 1
    54   54    6 1
    55    8   18 1
    56   21   26 ar
    57   25   26 ar
@<TRIPOS>SUBSTRUCTURE
     1 RES1 1

@<TRIPOS>CRYSIN
  12.1680   14.9080   13.2580  90.0000 114.6500  90.0000  14 1

