# MOL2 file generated by ConQuest
# Please check atom types

@<TRIPOS>MOLECULE
PAKQUP01
    64    48     2
SMALL
NO_CHARGES
****
Generated from CSD

@<TRIPOS>ATOM
      1 C1         5.7863    1.9121   10.4774 C.3       1 RES1    0.0000
      2 H1         6.6442    2.2603   10.7991 H         1 RES1    0.0000
      3 C2         4.7171    2.9551   10.6063 C.3       1 RES1    0.0000
      4 H2         3.9369    2.7154   10.0643 H         1 RES1    0.0000
      5 O1         5.2821    4.1942   10.1521 O.3       1 RES1    0.0000
      6 C3         4.7355    4.8270    9.1044 C.2       1 RES1    0.0000
      7 C4         5.4730    6.0951    8.8395 C.3       1 RES1    0.0000
      8 H3         6.4122    5.9101    8.7712 H         1 RES1    0.0000
      9 H4         5.3207    6.7110    9.5587 H         1 RES1    0.0000
     10 H5         5.1620    6.4802    8.0164 H         1 RES1    0.0000
     11 H6         4.8511    6.8244    8.7939 Du        2 SUP2    0.0000
     12 H7         5.9434    6.0227    8.0050 Du        2 SUP2    0.0000
     13 H8         6.1021    6.2543    9.5473 Du        2 SUP2    0.0000
     14 C5         4.3130    3.1706   12.0596 C.3       1 RES1    0.0000
     15 H9         5.0239    3.6587   12.5251 H         1 RES1    0.0000
     16 O2         3.1058    3.9658   12.0657 O.3       1 RES1    0.0000
     17 C6         3.2027    5.2323   12.5024 C.2       1 RES1    0.0000
     18 O3         4.2254    5.6906   12.9111 O.2       1 RES1    0.0000
     19 C7         1.8948    5.9383   12.3984 C.3       1 RES1    0.0000
     20 H10        1.2333    5.3384   12.0466 H         1 RES1    0.0000
     21 H11        1.9848    6.6949   11.8145 H         1 RES1    0.0000
     22 H12        1.6230    6.2374   13.2700 H         1 RES1    0.0000
     23 C8         4.0724    1.8551   12.7558 C.3       1 RES1    0.0000
     24 H13        3.2643    1.4257   12.4055 H         1 RES1    0.0000
     25 O4         3.8965    2.1992   14.1476 O.3       1 RES1    0.0000
     26 C9         5.2672    0.9641   12.5626 C.3       1 RES1    0.0000
     27 H14        6.0568    1.3863   12.9353 H         1 RES1    0.0000
     28 H15        5.1275    0.1206   13.0207 H         1 RES1    0.0000
     29 O5         5.4538    0.7317   11.1550 O.3       1 RES1    0.0000
     30 O6         5.8643    1.6090    9.1067 O.3       1 RES1    0.0000
     31 C10        7.0130    1.0301    8.6107 C.ar      1 RES1    0.0000
     32 C11        7.0835    0.9408    7.2454 C.ar      1 RES1    0.0000
     33 H16        6.3881    1.2431    6.7076 H         1 RES1    0.0000
     34 C12        8.2171    0.3892    6.6954 C.ar      1 RES1    0.0000
     35 N1         8.3149    0.3056    5.2299 N.pl3     1 RES1    0.0000
     36 O7         7.4174    0.7245    4.5553 O.2       1 RES1    0.0000
     37 O8         9.3126   -0.1793    4.7442 O.2       1 RES1    0.0000
     38 C13        9.2640   -0.0563    7.4500 C.ar      1 RES1    0.0000
     39 H17       10.0296   -0.3996    7.0494 H         1 RES1    0.0000
     40 C14        9.1550    0.0169    8.8085 C.ar      1 RES1    0.0000
     41 H18        9.8495   -0.2983    9.3408 H         1 RES1    0.0000
     42 C15        8.0304    0.5508    9.4063 C.ar      1 RES1    0.0000
     43 H19        7.9611    0.5862   10.3334 H         1 RES1    0.0000
     44 C16        3.5637    1.2890   15.0458 C.2       1 RES1    0.0000
     45 C17        3.1526    1.9033   16.3365 C.3       1 RES1    0.0000
     46 H20        2.7411    1.2367   16.8901 H         1 RES1    0.0000
     47 H21        2.5272    2.6117   16.1695 H         1 RES1    0.0000
     48 H22        3.9250    2.2571   16.7833 H         1 RES1    0.0000
     49 H23        3.3894    2.8336   16.3375 Du        2 SUP2    0.0000
     50 H24        3.6009    1.4578   17.0595 Du        2 SUP2    0.0000
     51 H25        2.2031    1.8132   16.4457 Du        2 SUP2    0.0000
     52 O9         3.9605    4.1419    8.3582 O.2       1 RES1    0.0000
     53 C18        3.0196    1.5262   14.8507 Du        2 SUP2    0.0000
     54 C19        3.1526    1.9033   16.3365 Du        2 SUP2    0.0000
     55 H26        2.7001    1.2488   16.8744 Du        2 SUP2    0.0000
     56 H27        2.7595    2.7661   16.4842 Du        2 SUP2    0.0000
     57 H28        4.0808    1.9290   16.5782 Du        2 SUP2    0.0000
     58 H29        3.6610    2.7138   16.4173 Du        2 SUP2    0.0000
     59 H30        3.6024    1.1965   16.8060 Du        2 SUP2    0.0000
     60 H31        2.2787    2.0336   16.7135 Du        2 SUP2    0.0000
     61 O10        3.7011    4.6622    8.6871 Du        2 SUP2    0.0000
     62 O11        3.4834    0.0989   14.7809 O.2       1 RES1    0.0000
     63 O12        1.9838    1.0695   14.2298 Du        2 SUP2    0.0000
     64 O13        2.6602    0.4133   14.4805 Du        2 SUP2    0.0000
@<TRIPOS>BOND
     1    1    2 1
     2    3    1 1
     3    4    3 1
     4    5    3 1
     5    6    5 1
     6    7    6 1
     7    8    7 1
     8    9    7 1
     9   10    7 1
    10   14    3 1
    11   15   14 1
    12   16   14 1
    13   17   16 1
    14   18   17 2
    15   19   17 1
    16   20   19 1
    17   21   19 1
    18   22   19 1
    19   23   14 1
    20   24   23 1
    21   25   23 1
    22   26   23 1
    23   27   26 1
    24   28   26 1
    25   29    1 1
    26   30    1 1
    27   31   30 1
    28   32   31 ar
    29   33   32 1
    30   34   32 ar
    31   35   34 1
    32   36   35 2
    33   37   35 2
    34   38   34 ar
    35   39   38 1
    36   40   38 ar
    37   41   40 1
    38   42   31 ar
    39   43   42 1
    40   44   25 1
    41   45   44 1
    42   46   45 1
    43   47   45 1
    44   48   45 1
    45   52    6 2
    46   62   44 2
    47   26   29 1
    48   40   42 ar
@<TRIPOS>SUBSTRUCTURE
     1 RES1 1
     2 SUP2 11

@<TRIPOS>CRYSIN
  16.8272    8.0410   15.9040  90.0000 116.4340  90.0000   5 1

