# MOL2 file generated by ConQuest
# Please check atom types

@<TRIPOS>MOLECULE
PAKQUP
   203   192     5
SMALL
NO_CHARGES
****
Generated from CSD

@<TRIPOS>ATOM
      1 C1        -2.8609    3.9171   10.2773 C.3       1 RES1    0.0000
      2 H1        -1.9764    4.2216   10.6330 H         1 RES1    0.0000
      3 C2        -3.9001    5.0170   10.4374 C.3       1 RES1    0.0000
      4 H2        -4.7002    4.8312    9.8662 H         1 RES1    0.0000
      5 O1        -3.2370    6.2172   10.0054 O.3       1 RES1    0.0000
      6 C3        -3.8870    7.0639    9.1738 C.2       1 RES1    0.0000
      7 O2        -4.9621    6.8581    8.7451 O.2       1 RES1    0.0000
      8 C4        -3.0420    8.2732    8.9321 C.3       1 RES1    0.0000
      9 H3        -2.1950    8.1823    9.4174 H         1 RES1    0.0000
     10 H4        -3.5163    9.0700    9.2486 H         1 RES1    0.0000
     11 H5        -2.8609    8.3583    7.9726 H         1 RES1    0.0000
     12 C5        -4.3084    5.1935   11.8891 C.3       1 RES1    0.0000
     13 H6        -3.5741    5.6513   12.3887 H         1 RES1    0.0000
     14 O3        -5.5172    5.9974   11.9576 O.3       1 RES1    0.0000
     15 C6        -5.3477    7.3349   12.2045 C.2       1 RES1    0.0000
     16 O4        -4.2732    7.8519   12.3313 O.2       1 RES1    0.0000
     17 C7        -6.6757    8.0315   12.2621 C.3       1 RES1    0.0000
     18 H7        -7.3939    7.3779   12.1256 H         1 RES1    0.0000
     19 H8        -6.7173    8.7134   11.5587 H         1 RES1    0.0000
     20 H9        -6.7834    8.4573   13.1371 H         1 RES1    0.0000
     21 C8        -4.6049    3.8538   12.5391 C.3       1 RES1    0.0000
     22 H10       -5.4543    3.4674   12.1791 H         1 RES1    0.0000
     23 O5        -4.7175    4.1009   13.9579 O.3       1 RES1    0.0000
     24 C9        -5.7990    3.6465   14.6004 C.2       1 RES1    0.0000
     25 O6        -6.7045    3.0863   14.0551 O.2       1 RES1    0.0000
     26 C10       -5.7448    3.9721   16.0575 C.3       1 RES1    0.0000
     27 H11       -4.9030    4.4321   16.2589 H         1 RES1    0.0000
     28 H12       -5.7980    3.1438   16.5797 H         1 RES1    0.0000
     29 H13       -6.4981    4.5531   16.2899 H         1 RES1    0.0000
     30 C11       -3.4479    2.9012   12.3164 C.3       1 RES1    0.0000
     31 H14       -2.6248    3.2695   12.7263 H         1 RES1    0.0000
     32 H15       -3.6444    2.0283   12.7404 H         1 RES1    0.0000
     33 O7        -3.2517    2.7241   10.9019 O.3       1 RES1    0.0000
     34 O8        -2.7720    3.6654    8.8987 O.3       1 RES1    0.0000
     35 C12       -1.6060    3.0852    8.4274 C.ar      1 RES1    0.0000
     36 C13       -1.5060    3.0088    7.0472 C.ar      1 RES1    0.0000
     37 H16       -2.2029    3.3198    6.4813 H         1 RES1    0.0000
     38 C14       -0.3468    2.4597    6.5297 C.ar      1 RES1    0.0000
     39 N1        -0.1942    2.3898    5.0686 N.pl3     1 RES1    0.0000
     40 O9        -1.1197    2.7730    4.3726 O.2       1 RES1    0.0000
     41 O10        0.8577    1.9589    4.6183 O.2       1 RES1    0.0000
     42 C15        0.7070    1.9994    7.3114 C.ar      1 RES1    0.0000
     43 H17        1.5009    1.6559    6.9189 H         1 RES1    0.0000
     44 C16        0.5500    2.0637    8.6890 C.ar      1 RES1    0.0000
     45 H18        1.2412    1.7408    9.2542 H         1 RES1    0.0000
     46 C17       -0.5986    2.5919    9.2488 C.ar      1 RES1    0.0000
     47 H19       -0.6998    2.6175   10.1926 H         1 RES1    0.0000
     48 C18       -2.7629   11.9598   10.4454 C.3       2 RES2    0.0000
     49 H20       -1.9234   12.4008   10.7638 H         2 RES2    0.0000
     50 C19       -3.9443   12.9181   10.5443 C.3       2 RES2    0.0000
     51 H21       -4.7067   12.5877    9.9886 H         2 RES2    0.0000
     52 O11       -3.5101   14.2042   10.0782 O.3       2 RES2    0.0000
     53 C20       -3.8446   14.5849    8.8263 C.2       2 RES2    0.0000
     54 O12       -4.5362   13.9346    8.0897 O.2       2 RES2    0.0000
     55 C21       -3.2352   15.9208    8.5241 C.3       2 RES2    0.0000
     56 H22       -2.7155   16.2249    9.2965 H         2 RES2    0.0000
     57 H23       -3.9462   16.5674    8.3328 H         2 RES2    0.0000
     58 H24       -2.6465   15.8431    7.7447 H         2 RES2    0.0000
     59 C22       -4.3880   13.1141   11.9824 C.3       2 RES2    0.0000
     60 H25       -3.7140   13.6781   12.4605 H         2 RES2    0.0000
     61 O13       -5.6571   13.8179   11.9443 O.3       2 RES2    0.0000
     62 C23       -5.6871   15.0729   12.4642 C.2       2 RES2    0.0000
     63 O14       -4.7460   15.5893   13.0010 O.2       2 RES2    0.0000
     64 C24       -7.0340   15.7136   12.2719 C.3       2 RES2    0.0000
     65 H26       -6.9344   16.5312   11.7401 H         2 RES2    0.0000
     66 H27       -7.4166   15.9373   13.1456 H         2 RES2    0.0000
     67 H28       -7.6289   15.0905   11.8049 H         2 RES2    0.0000
     68 C25       -4.5388   11.7829   12.7142 C.3       2 RES2    0.0000
     69 H29       -5.3055   11.2586   12.3423 H         2 RES2    0.0000
     70 O15       -4.7993   12.1697   14.0773 O.3       2 RES2    0.0000
     71 C26       -5.0966   11.1850   14.9648 C.2       2 RES2    0.0000
     72 O16       -5.0546   10.0113   14.7025 O.2       2 RES2    0.0000
     73 C27       -5.4657   11.7946   16.2881 C.3       2 RES2    0.0000
     74 H30       -5.4273   12.7716   16.2195 H         2 RES2    0.0000
     75 H31       -4.8367   11.4911   16.9750 H         2 RES2    0.0000
     76 H32       -6.3741   11.5194   16.5333 H         2 RES2    0.0000
     77 C28       -3.2284   11.0114   12.5589 C.3       2 RES2    0.0000
     78 H33       -2.4790   11.5367   12.9374 H         2 RES2    0.0000
     79 H34       -3.2820   10.1509   13.0457 H         2 RES2    0.0000
     80 O17       -3.0009   10.7706   11.1591 O.3       2 RES2    0.0000
     81 O18       -2.6668   11.6366    9.0782 O.3       2 RES2    0.0000
     82 C29       -1.4968   11.0881    8.6032 C.ar      2 RES2    0.0000
     83 C30       -1.4323   10.9431    7.2304 C.ar      2 RES2    0.0000
     84 H35       -2.1530   11.2036    6.6699 H         2 RES2    0.0000
     85 C31       -0.2659   10.3989    6.7033 C.ar      2 RES2    0.0000
     86 N2        -0.1730   10.2421    5.2405 N.pl3     2 RES2    0.0000
     87 O19       -1.0836   10.6649    4.5462 O.2       2 RES2    0.0000
     88 O20        0.8263    9.7003    4.7792 O.2       2 RES2    0.0000
     89 C32        0.8138   10.0127    7.4688 C.ar      2 RES2    0.0000
     90 H36        1.6018    9.6623    7.0708 H         2 RES2    0.0000
     91 C33        0.7026   10.1564    8.8481 C.ar      2 RES2    0.0000
     92 H37        1.4285    9.8996    9.4048 H         2 RES2    0.0000
     93 C34       -0.4495   10.6674    9.4224 C.ar      2 RES2    0.0000
     94 H38       -0.5249   10.7307   10.3671 H         2 RES2    0.0000
     95 C35        3.7684    7.8268    3.8154 C.3       3 RES3    0.0000
     96 H39        2.8967    8.1933    3.4890 H         3 RES3    0.0000
     97 C36        4.8751    8.8601    3.6619 C.3       3 RES3    0.0000
     98 H40        5.6724    8.6097    4.2107 H         3 RES3    0.0000
     99 O21        4.3138   10.0978    4.1171 O.3       3 RES3    0.0000
    100 C37        4.9863   10.8094    5.0509 C.2       3 RES3    0.0000
    101 O22        5.9764   10.4204    5.5767 O.2       3 RES3    0.0000
    102 C38        4.2964   12.1162    5.2686 C.3       3 RES3    0.0000
    103 H41        3.5083   12.1698    4.6890 H         3 RES3    0.0000
    104 H42        4.9095   12.8501    5.0534 H         3 RES3    0.0000
    105 H43        4.0175   12.1871    6.2056 H         3 RES3    0.0000
    106 C39        5.2623    9.0439    2.2055 C.3       3 RES3    0.0000
    107 H44        4.5336    9.5272    1.7192 H         3 RES3    0.0000
    108 O23        6.4910    9.8248    2.1540 O.3       3 RES3    0.0000
    109 C40        6.3426   11.1492    1.8482 C.2       3 RES3    0.0000
    110 O24        5.2899   11.6518    1.5952 O.2       3 RES3    0.0000
    111 C41        7.6731   11.8446    1.8894 C.3       3 RES3    0.0000
    112 H45        8.3716   11.2004    2.1314 H         3 RES3    0.0000
    113 H46        7.6452   12.5626    2.5548 H         3 RES3    0.0000
    114 H47        7.8701   12.2232    1.0073 H         3 RES3    0.0000
    115 C42        5.5224    7.6972    1.5404 C.3       3 RES3    0.0000
    116 H48        6.3472    7.2648    1.9049 H         3 RES3    0.0000
    117 O25        5.6409    7.9410    0.1230 O.3       3 RES3    0.0000
    118 C43        6.8145    7.6887   -0.4797 C.2       3 RES3    0.0000
    119 O26        7.7811    7.2768    0.0910 O.2       3 RES3    0.0000
    120 C44        6.7304    7.9990   -1.9407 C.3       3 RES3    0.0000
    121 H49        5.8320    8.3269   -2.1539 H         3 RES3    0.0000
    122 H50        6.9132    7.1863   -2.4578 H         3 RES3    0.0000
    123 H51        7.3914    8.6867   -2.1680 H         3 RES3    0.0000
    124 C45        4.2996    6.8159    1.7446 C.3       3 RES3    0.0000
    125 H52        3.5039    7.2475    1.3421 H         3 RES3    0.0000
    126 H53        4.4373    5.9419    1.2999 H         3 RES3    0.0000
    127 O27        4.0849    6.6169    3.1466 O.3       3 RES3    0.0000
    128 O28        3.7024    7.5431    5.1913 O.3       3 RES3    0.0000
    129 C46        2.5356    7.0029    5.6920 C.ar      3 RES3    0.0000
    130 C47        2.4538    6.9583    7.0795 C.ar      3 RES3    0.0000
    131 H54        3.1626    7.2695    7.6293 H         3 RES3    0.0000
    132 C48        1.2867    6.4365    7.6247 C.ar      3 RES3    0.0000
    133 N3         1.1759    6.3762    9.0898 N.pl3     3 RES3    0.0000
    134 O29        2.0888    6.8416    9.7609 O.2       3 RES3    0.0000
    135 O30        0.1769    5.8613    9.5711 O.2       3 RES3    0.0000
    136 C49        0.2177    5.9844    6.8778 C.ar      3 RES3    0.0000
    137 H55       -0.5722    5.6560    7.2903 H         3 RES3    0.0000
    138 C50        0.3481    6.0302    5.4926 C.ar      3 RES3    0.0000
    139 H56       -0.3662    5.7283    4.9451 H         3 RES3    0.0000
    140 C51        1.5069    6.5107    4.9019 C.ar      3 RES3    0.0000
    141 H57        1.5960    6.5028    3.9561 H         3 RES3    0.0000
    142 C52        3.9905    0.1408    3.6086 C.3       4 RES4    0.0000
    143 H58        3.1268    0.5153    3.2695 H         4 RES4    0.0000
    144 C53        5.1016    1.1716    3.4728 C.3       4 RES4    0.0000
    145 H59        5.8876    0.9175    4.0362 H         4 RES4    0.0000
    146 O31        4.5638    2.4379    3.8961 O.3       4 RES4    0.0000
    147 C54        4.8906    2.8861    5.1305 C.2       4 RES4    0.0000
    148 O32        5.6645    2.3351    5.8615 O.2       4 RES4    0.0000
    149 C55        4.1251    4.1418    5.4234 C.3       4 RES4    0.0000
    150 H60        4.7528    4.8720    5.6035 H         4 RES4    0.0000
    151 H61        3.5553    4.0016    6.2084 H         4 RES4    0.0000
    152 H62        3.5684    4.3724    4.6510 H         4 RES4    0.0000
    153 C56        5.5231    1.3543    2.0173 C.3       4 RES4    0.0000
    154 H63        4.8188    1.8775    1.5363 H         4 RES4    0.0000
    155 O33        6.7514    2.1171    2.0346 O.3       4 RES4    0.0000
    156 C57        6.7335    3.3557    1.4558 C.2       4 RES4    0.0000
    157 O34        5.7822    3.8043    0.8790 O.2       4 RES4    0.0000
    158 C58        8.0404    4.0613    1.6616 C.3       4 RES4    0.0000
    159 H64        8.6491    3.4800    2.1637 H         4 RES4    0.0000
    160 H65        7.8900    4.8893    2.1651 H         4 RES4    0.0000
    161 H66        8.4368    4.2766    0.7906 H         4 RES4    0.0000
    162 C59        5.7230    0.0240    1.3141 C.3       4 RES4    0.0000
    163 H67        6.5341   -0.4399    1.6685 H         4 RES4    0.0000
    164 O35        5.9126    0.3843   -0.0657 O.3       4 RES4    0.0000
    165 C60        6.2344   -0.5972   -0.9462 C.2       4 RES4    0.0000
    166 O36        6.2325   -1.7648   -0.6729 O.2       4 RES4    0.0000
    167 C61        6.5573    0.0050   -2.2842 C.3       4 RES4    0.0000
    168 H68        6.4750    0.9804   -2.2327 H         4 RES4    0.0000
    169 H69        5.9338   -0.3409   -2.9572 H         4 RES4    0.0000
    170 H70        7.4738   -0.2310   -2.5365 H         4 RES4    0.0000
    171 C62        4.4793   -0.8382    1.5288 C.3       4 RES4    0.0000
    172 H71        3.6851   -0.3834    1.1522 H         4 RES4    0.0000
    173 H72        4.5883   -1.7078    1.0678 H         4 RES4    0.0000
    174 O37        4.3012   -1.0500    2.9379 O.3       4 RES4    0.0000
    175 O38        3.8927   -0.1403    4.9797 O.3       4 RES4    0.0000
    176 C63        2.7351   -0.7284    5.4435 C.ar      4 RES4    0.0000
    177 C64        2.6612   -0.8759    6.8198 C.ar      4 RES4    0.0000
    178 H73        3.3749   -0.6049    7.3860 H         4 RES4    0.0000
    179 C65        1.5043   -1.4338    7.3339 C.ar      4 RES4    0.0000
    180 N4         1.3855   -1.5824    8.7953 N.pl3     4 RES4    0.0000
    181 O39        2.3467   -1.2922    9.4833 O.2       4 RES4    0.0000
    182 O40        0.3213   -1.9798    9.2541 O.2       4 RES4    0.0000
    183 C66        0.4365   -1.8492    6.5537 C.ar      4 RES4    0.0000
    184 H74       -0.3533   -2.2011    6.9470 H         4 RES4    0.0000
    185 C67        0.5666   -1.7306    5.1704 C.ar      4 RES4    0.0000
    186 H75       -0.1377   -2.0267    4.6060 H         4 RES4    0.0000
    187 C68        1.7095   -1.1874    4.6087 C.ar      4 RES4    0.0000
    188 H76        1.7963   -1.1265    3.6648 H         4 RES4    0.0000
    189 H77       -3.5184    8.8925    8.3412 Du        5 SUP5    0.0000
    190 H78       -2.1996    8.0032    8.5114 Du        5 SUP5    0.0000
    191 H79       -2.8542    8.7149    9.7860 Du        5 SUP5    0.0000
    192 H80       -6.5360    8.9883   12.4225 Du        5 SUP5    0.0000
    193 H81       -7.2127    7.6529   12.9894 Du        5 SUP5    0.0000
    194 H82       -7.1465    7.9074   11.4109 Du        5 SUP5    0.0000
    195 H83       -7.7186   15.1754   12.7207 Du        5 SUP5    0.0000
    196 H84       -7.2363   15.7677   11.3153 Du        5 SUP5    0.0000
    197 H85       -7.0241   16.6145   12.6560 Du        5 SUP5    0.0000
    198 H86        7.5536   12.7904    1.6643 Du        5 SUP5    0.0000
    199 H87        8.2800   11.4283    1.2408 Du        5 SUP5    0.0000
    200 H88        8.0551   11.7676    2.7884 Du        5 SUP5    0.0000
    201 H89        8.0015    4.9490    1.2493 Du        5 SUP5    0.0000
    202 H90        8.7606    3.5413    1.2479 Du        5 SUP5    0.0000
    203 H91        8.2138    4.1540    2.6224 Du        5 SUP5    0.0000
@<TRIPOS>BOND
     1    1    2 1
     2    3    1 1
     3    4    3 1
     4    5    3 1
     5    6    5 1
     6    7    6 2
     7    8    6 1
     8    9    8 1
     9   10    8 1
    10   11    8 1
    11   12    3 1
    12   13   12 1
    13   14   12 1
    14   15   14 1
    15   16   15 2
    16   17   15 1
    17   18   17 1
    18   19   17 1
    19   20   17 1
    20   21   12 1
    21   22   21 1
    22   23   21 1
    23   24   23 1
    24   25   24 2
    25   26   24 1
    26   27   26 1
    27   28   26 1
    28   29   26 1
    29   30   21 1
    30   31   30 1
    31   32   30 1
    32   33    1 1
    33   34    1 1
    34   35   34 1
    35   36   35 ar
    36   37   36 1
    37   38   36 ar
    38   39   38 1
    39   40   39 2
    40   41   39 2
    41   42   38 ar
    42   43   42 1
    43   44   42 ar
    44   45   44 1
    45   46   35 ar
    46   47   46 1
    47   48   49 1
    48   50   48 1
    49   51   50 1
    50   52   50 1
    51   53   52 1
    52   54   53 2
    53   55   53 1
    54   56   55 1
    55   57   55 1
    56   58   55 1
    57   59   50 1
    58   60   59 1
    59   61   59 1
    60   62   61 1
    61   63   62 2
    62   64   62 1
    63   65   64 1
    64   66   64 1
    65   67   64 1
    66   68   59 1
    67   69   68 1
    68   70   68 1
    69   71   70 1
    70   72   71 2
    71   73   71 1
    72   74   73 1
    73   75   73 1
    74   76   73 1
    75   77   68 1
    76   78   77 1
    77   79   77 1
    78   80   48 1
    79   81   48 1
    80   82   81 1
    81   83   82 ar
    82   84   83 1
    83   85   83 ar
    84   86   85 1
    85   87   86 2
    86   88   86 2
    87   89   85 ar
    88   90   89 1
    89   91   89 ar
    90   92   91 1
    91   93   82 ar
    92   94   93 1
    93   95   96 1
    94   97   95 1
    95   98   97 1
    96   99   97 1
    97  100   99 1
    98  101  100 2
    99  102  100 1
   100  103  102 1
   101  104  102 1
   102  105  102 1
   103  106   97 1
   104  107  106 1
   105  108  106 1
   106  109  108 1
   107  110  109 2
   108  111  109 1
   109  112  111 1
   110  113  111 1
   111  114  111 1
   112  115  106 1
   113  116  115 1
   114  117  115 1
   115  118  117 1
   116  119  118 2
   117  120  118 1
   118  121  120 1
   119  122  120 1
   120  123  120 1
   121  124  115 1
   122  125  124 1
   123  126  124 1
   124  127   95 1
   125  128   95 1
   126  129  128 1
   127  130  129 ar
   128  131  130 1
   129  132  130 ar
   130  133  132 1
   131  134  133 2
   132  135  133 2
   133  136  132 ar
   134  137  136 1
   135  138  136 ar
   136  139  138 1
   137  140  129 ar
   138  141  140 1
   139  142  143 1
   140  144  142 1
   141  145  144 1
   142  146  144 1
   143  147  146 1
   144  148  147 2
   145  149  147 1
   146  150  149 1
   147  151  149 1
   148  152  149 1
   149  153  144 1
   150  154  153 1
   151  155  153 1
   152  156  155 1
   153  157  156 2
   154  158  156 1
   155  159  158 1
   156  160  158 1
   157  161  158 1
   158  162  153 1
   159  163  162 1
   160  164  162 1
   161  165  164 1
   162  166  165 2
   163  167  165 1
   164  168  167 1
   165  169  167 1
   166  170  167 1
   167  171  162 1
   168  172  171 1
   169  173  171 1
   170  174  142 1
   171  175  142 1
   172  176  175 1
   173  177  176 ar
   174  178  177 1
   175  179  177 ar
   176  180  179 1
   177  181  180 2
   178  182  180 2
   179  183  179 ar
   180  184  183 1
   181  185  183 ar
   182  186  185 1
   183  187  176 ar
   184  188  187 1
   185   30   33 1
   186   44   46 ar
   187   77   80 1
   188   91   93 ar
   189  124  127 1
   190  138  140 ar
   191  171  174 1
   192  185  187 ar
@<TRIPOS>SUBSTRUCTURE
     1 RES1 1
     2 RES2 48
     3 RES3 95
     4 RES4 142
     5 SUP5 189

@<TRIPOS>CRYSIN
  16.8151   15.7111   15.8581  90.0000 117.4830  90.0000   4 1

