# MOL2 file generated by ConQuest
# Please check atom types

@<TRIPOS>MOLECULE
PAKREA
   100    96     3
SMALL
NO_CHARGES
****
Generated from CSD

@<TRIPOS>ATOM
      1 C1         1.7440    2.7899    6.8464 C.3       1 RES1    0.0000
      2 H1         0.9154    3.2691    7.1369 H         1 RES1    0.0000
      3 C2         2.5147    3.6009    5.8108 C.3       1 RES1    0.0000
      4 H2         3.3736    3.1428    5.5822 H         1 RES1    0.0000
      5 O1         2.7767    4.8893    6.3854 O.3       1 RES1    0.0000
      6 C3         4.0790    5.2032    6.6526 C.2       1 RES1    0.0000
      7 O2         5.0094    4.5387    6.2936 O.2       1 RES1    0.0000
      8 C4         4.1433    6.4526    7.4606 C.3       1 RES1    0.0000
      9 H3         3.9732    6.2415    8.4031 H         1 RES1    0.0000
     10 H4         3.4663    7.0844    7.1394 H         1 RES1    0.0000
     11 H5         5.0325    6.8544    7.3708 H         1 RES1    0.0000
     12 C5         1.6662    3.7760    4.5690 C.3       1 RES1    0.0000
     13 H6         0.8615    4.3345    4.7712 H         1 RES1    0.0000
     14 O3         2.5004    4.4278    3.5874 O.3       1 RES1    0.0000
     15 C6         1.9436    5.3668    2.7869 C.2       1 RES1    0.0000
     16 O4         0.7896    5.7102    2.8578 O.2       1 RES1    0.0000
     17 C7         2.9533    5.8690    1.8067 C.3       1 RES1    0.0000
     18 H7         3.0351    5.2317    1.0672 H         1 RES1    0.0000
     19 H8         3.8207    5.9660    2.2513 H         1 RES1    0.0000
     20 H9         2.6663    6.7390    1.4577 H         1 RES1    0.0000
     21 C8         1.2459    2.3956    4.0697 C.3       1 RES1    0.0000
     22 H10        2.0347    1.8880    3.7239 H         1 RES1    0.0000
     23 O5         0.2391    2.5413    3.0416 O.3       1 RES1    0.0000
     24 C9         0.6342    2.4676    1.7488 C.2       1 RES1    0.0000
     25 O6         1.7686    2.2647    1.4102 O.2       1 RES1    0.0000
     26 C10       -0.5288    2.6922    0.8393 C.3       1 RES1    0.0000
     27 H11       -1.3382    2.8327    1.3732 H         1 RES1    0.0000
     28 H12       -0.6490    1.9090    0.2637 H         1 RES1    0.0000
     29 H13       -0.3628    3.4828    0.2861 H         1 RES1    0.0000
     30 C11        0.5653    1.6328    5.1978 C.3       1 RES1    0.0000
     31 H14       -0.2614    2.1065    5.4653 H         1 RES1    0.0000
     32 H15        0.3132    0.7289    4.8832 H         1 RES1    0.0000
     33 O7         1.4393    1.5215    6.3227 O.3       1 RES1    0.0000
     34 O8         2.6306    2.6130    7.9218 O.3       1 RES1    0.0000
     35 C12        2.1356    2.2891    9.1596 C.ar      1 RES1    0.0000
     36 C13        3.0740    2.3753   10.1835 C.ar      1 RES1    0.0000
     37 H16        3.9743    2.6026    9.9877 H         1 RES1    0.0000
     38 C14        2.6923    2.1289   11.4808 C.ar      1 RES1    0.0000
     39 H17        3.3168    2.2083   12.1917 H         1 RES1    0.0000
     40 C15        1.3781    1.7625   11.7300 C.ar      1 RES1    0.0000
     41 N1         0.9897    1.5059   13.1186 N.pl3     1 RES1    0.0000
     42 O9         1.7169    1.9355   14.0112 O.2       1 RES1    0.0000
     43 O10       -0.0311    0.8483   13.3233 O.2       1 RES1    0.0000
     44 C16        0.4431    1.6349   10.7243 C.ar      1 RES1    0.0000
     45 H18       -0.4468    1.3688   10.9255 H         1 RES1    0.0000
     46 C17        0.8211    1.9009    9.4143 C.ar      1 RES1    0.0000
     47 H19        0.1949    1.8201    8.7041 H         1 RES1    0.0000
     48 C18        8.8116   -1.0071    6.3834 C.3       2 RES2    0.0000
     49 H20        8.1422   -1.6355    6.7787 H         2 RES2    0.0000
     50 C19        8.1449    0.2626    5.8660 C.3       2 RES2    0.0000
     51 H21        8.8468    0.9291    5.6170 H         2 RES2    0.0000
     52 O11        7.3109    0.8111    6.9021 O.3       2 RES2    0.0000
     53 C20        7.6725    2.0074    7.4504 C.2       2 RES2    0.0000
     54 O12        8.6728    2.5986    7.1362 O.2       2 RES2    0.0000
     55 C21        6.6577    2.4452    8.4534 C.3       2 RES2    0.0000
     56 H22        5.8234    2.6766    7.9952 H         2 RES2    0.0000
     57 H23        6.9931    3.2297    8.9355 H         2 RES2    0.0000
     58 H24        6.4907    1.7177    9.0872 H         2 RES2    0.0000
     59 C22        7.2649   -0.0244    4.6583 C.3       2 RES2    0.0000
     60 H25        6.4645   -0.5626    4.9255 H         2 RES2    0.0000
     61 O13        6.8634    1.2590    4.1304 O.3       2 RES2    0.0000
     62 C23        5.5492    1.4767    3.9016 C.2       2 RES2    0.0000
     63 O14        4.6847    0.6963    4.1827 O.2       2 RES2    0.0000
     64 C24        5.3526    2.8157    3.2707 C.3       2 RES2    0.0000
     65 H26        6.0700    2.9800    2.6244 H         2 RES2    0.0000
     66 H27        5.3722    3.5086    3.9628 H         2 RES2    0.0000
     67 H28        4.4875    2.8361    2.8110 H         2 RES2    0.0000
     68 C25        8.0886   -0.7669    3.6192 C.3       2 RES2    0.0000
     69 H29        8.8108   -0.1764    3.2588 H         2 RES2    0.0000
     70 O15        7.2504   -1.2480    2.5466 O.3       2 RES2    0.0000
     71 C26        7.1824   -0.5171    1.4065 C.2       2 RES2    0.0000
     72 O16        7.6835    0.5633    1.2759 O.2       2 RES2    0.0000
     73 C27        6.3983   -1.2426    0.3657 C.3       2 RES2    0.0000
     74 H30        6.0983   -2.1038    0.7239 H         2 RES2    0.0000
     75 H31        6.9621   -1.3939   -0.4204 H         2 RES2    0.0000
     76 H32        5.6191   -0.7058    0.1095 H         2 RES2    0.0000
     77 C28        8.6896   -2.0095    4.2608 C.3       2 RES2    0.0000
     78 H33        7.9665   -2.5965    4.5971 H         2 RES2    0.0000
     79 H34        9.2126   -2.5144    3.5896 H         2 RES2    0.0000
     80 O17        9.5384   -1.6191    5.3411 O.3       2 RES2    0.0000
     81 O18        9.8119   -0.6597    7.3225 O.3       2 RES2    0.0000
     82 C29        9.6873   -1.0682    8.6203 C.ar      2 RES2    0.0000
     83 C30       10.8677   -1.4170    9.2668 C.ar      2 RES2    0.0000
     84 H35       11.6875   -1.4211    8.7887 H         2 RES2    0.0000
     85 C31       10.8480   -1.7577   10.6051 C.ar      2 RES2    0.0000
     86 H36       11.6453   -2.0122   11.0549 H         2 RES2    0.0000
     87 C32        9.6309   -1.7183   11.2795 C.ar      2 RES2    0.0000
     88 N2         9.5920   -2.0203   12.7119 N.pl3     2 RES2    0.0000
     89 O19       10.5824   -2.5375   13.2296 O.2       2 RES2    0.0000
     90 O20        8.5725   -1.7421   13.3303 O.2       2 RES2    0.0000
     91 C33        8.4497   -1.3783   10.6487 C.ar      2 RES2    0.0000
     92 H37        7.6324   -1.3648   11.1320 H         2 RES2    0.0000
     93 C34        8.4713   -1.0573    9.3066 C.ar      2 RES2    0.0000
     94 H38        7.6675   -0.8320    8.8534 H         2 RES2    0.0000
     95 H39       -0.2279    2.6508   -0.0920 Du        3 SUP3    0.0000
     96 H40       -0.9171    3.5738    1.0174 Du        3 SUP3    0.0000
     97 H41       -1.2044    2.0000    0.9950 Du        3 SUP3    0.0000
     98 H42        6.3545   -0.6983   -0.4478 Du        3 SUP3    0.0000
     99 H43        5.4907   -1.4082    0.6965 Du        3 SUP3    0.0000
    100 H44        6.8342   -2.0970    0.1642 Du        3 SUP3    0.0000
@<TRIPOS>BOND
     1    1    2 1
     2    3    1 1
     3    4    3 1
     4    5    3 1
     5    6    5 1
     6    7    6 2
     7    8    6 1
     8    9    8 1
     9   10    8 1
    10   11    8 1
    11   12    3 1
    12   13   12 1
    13   14   12 1
    14   15   14 1
    15   16   15 2
    16   17   15 1
    17   18   17 1
    18   19   17 1
    19   20   17 1
    20   21   12 1
    21   22   21 1
    22   23   21 1
    23   24   23 1
    24   25   24 2
    25   26   24 1
    26   27   26 1
    27   28   26 1
    28   29   26 1
    29   30   21 1
    30   31   30 1
    31   32   30 1
    32   33    1 1
    33   34    1 1
    34   35   34 1
    35   36   35 ar
    36   37   36 1
    37   38   36 ar
    38   39   38 1
    39   40   38 ar
    40   41   40 1
    41   42   41 2
    42   43   41 2
    43   44   40 ar
    44   45   44 1
    45   46   35 ar
    46   47   46 1
    47   48   49 1
    48   50   48 1
    49   51   50 1
    50   52   50 1
    51   53   52 1
    52   54   53 2
    53   55   53 1
    54   56   55 1
    55   57   55 1
    56   58   55 1
    57   59   50 1
    58   60   59 1
    59   61   59 1
    60   62   61 1
    61   63   62 2
    62   64   62 1
    63   65   64 1
    64   66   64 1
    65   67   64 1
    66   68   59 1
    67   69   68 1
    68   70   68 1
    69   71   70 1
    70   72   71 2
    71   73   71 1
    72   74   73 1
    73   75   73 1
    74   76   73 1
    75   77   68 1
    76   78   77 1
    77   79   77 1
    78   80   48 1
    79   81   48 1
    80   82   81 1
    81   83   82 ar
    82   84   83 1
    83   85   83 ar
    84   86   85 1
    85   87   85 ar
    86   88   87 1
    87   89   88 2
    88   90   88 2
    89   91   87 ar
    90   92   91 1
    91   93   82 ar
    92   94   93 1
    93   30   33 1
    94   44   46 ar
    95   77   80 1
    96   91   93 ar
@<TRIPOS>SUBSTRUCTURE
     1 RES1 1
     2 RES2 48
     3 SUP3 95

@<TRIPOS>CRYSIN
  10.8570    6.7865   25.4346  90.0000 102.0300  90.0000   4 1

