# MOL2 file generated by ConQuest
# Please check atom types

@<TRIPOS>MOLECULE
PALTAZ
    45    46     1
SMALL
NO_CHARGES
****
Generated from CSD

@<TRIPOS>ATOM
      1 C1         4.4171    4.2527    8.3741 C.ar      1 RES1    0.0000
      2 C2         4.0039    2.9443    8.3088 C.ar      1 RES1    0.0000
      3 H1         3.3658    2.6026    8.9242 H         1 RES1    0.0000
      4 C3         4.5409    2.1401    7.3249 C.ar      1 RES1    0.0000
      5 H2         4.2735    1.2312    7.2605 H         1 RES1    0.0000
      6 C4         5.4686    2.6469    6.4282 C.ar      1 RES1    0.0000
      7 C5         5.8515    3.9761    6.5050 C.ar      1 RES1    0.0000
      8 H3         6.4729    4.3312    5.8790 H         1 RES1    0.0000
      9 C6         5.3244    4.7844    7.4980 C.ar      1 RES1    0.0000
     10 H4         5.5893    5.6946    7.5698 H         1 RES1    0.0000
     11 C7         6.0097    1.7105    5.4104 C.2       1 RES1    0.0000
     12 C8         7.3435    1.4762    3.4829 C.3       1 RES1    0.0000
     13 H5         7.4232    0.5491    3.8482 H         1 RES1    0.0000
     14 C9         6.3157    1.4379    2.3525 C.2       1 RES1    0.0000
     15 C10        5.9692    0.5619    0.1725 C.3       1 RES1    0.0000
     16 H6         6.4931    0.5015   -0.6655 H         1 RES1    0.0000
     17 H7         5.3065    1.2909    0.0705 H         1 RES1    0.0000
     18 C11        5.2619   -0.7324    0.4210 C.3       1 RES1    0.0000
     19 H8         4.6633   -0.9271   -0.3291 H         1 RES1    0.0000
     20 H9         4.7387   -0.6659    1.2478 H         1 RES1    0.0000
     21 H10        5.9198   -1.4527    0.5081 H         1 RES1    0.0000
     22 C12        8.7095    1.9179    3.0758 C.2       1 RES1    0.0000
     23 C13        9.8552    1.2923    3.3265 C.2       1 RES1    0.0000
     24 H11       10.6404    1.6675    2.9440 H         1 RES1    0.0000
     25 C14       10.0293    0.0799    4.1341 C.ar      1 RES1    0.0000
     26 C15        9.3171   -0.1645    5.3093 C.ar      1 RES1    0.0000
     27 H12        8.7173    0.4914    5.6457 H         1 RES1    0.0000
     28 C16        9.4808   -1.3567    5.9846 C.ar      1 RES1    0.0000
     29 H13        8.9968   -1.5171    6.7868 H         1 RES1    0.0000
     30 C17       10.3442   -2.3133    5.4979 C.ar      1 RES1    0.0000
     31 H14       10.4294   -3.1477    5.9441 H         1 RES1    0.0000
     32 C18       11.0838   -2.0602    4.3659 C.ar      1 RES1    0.0000
     33 H15       11.6917   -2.7154    4.0435 H         1 RES1    0.0000
     34 C19       10.9501   -0.8680    3.6963 C.ar      1 RES1    0.0000
     35 H16       11.4871   -0.6901    2.9332 H         1 RES1    0.0000
     36 N1         3.8426    5.1113    9.4219 N.pl3     1 RES1    0.0000
     37 N2         8.7530    3.1222    2.2373 N.pl3     1 RES1    0.0000
     38 O1         4.1638    6.2827    9.4611 O.2       1 RES1    0.0000
     39 O2         3.0754    4.6071   10.2215 O.2       1 RES1    0.0000
     40 O3         5.7534    0.5350    5.3703 O.2       1 RES1    0.0000
     41 O4         6.8497    2.3187    4.5440 O.3       1 RES1    0.0000
     42 O5         5.1780    1.7877    2.4715 O.2       1 RES1    0.0000
     43 O6         6.8648    0.8599    1.2970 O.3       1 RES1    0.0000
     44 O7         7.7110    3.7526    2.1201 O.2       1 RES1    0.0000
     45 O8         9.8106    3.4465    1.7123 O.2       1 RES1    0.0000
@<TRIPOS>BOND
     1    1    2 ar
     2    2    3 1
     3    4    2 ar
     4    5    4 1
     5    6    4 ar
     6    7    6 ar
     7    8    7 1
     8    9    1 ar
     9   10    9 1
    10   11    6 1
    11   12   13 1
    12   14   12 1
    13   15   16 1
    14   17   15 1
    15   18   15 1
    16   19   18 1
    17   20   18 1
    18   21   18 1
    19   22   12 1
    20   23   22 2
    21   24   23 1
    22   25   23 1
    23   26   25 ar
    24   27   26 1
    25   28   26 ar
    26   29   28 1
    27   30   28 ar
    28   31   30 1
    29   32   30 ar
    30   33   32 1
    31   34   25 ar
    32   35   34 1
    33   36    1 1
    34   37   22 1
    35   38   36 2
    36   39   36 2
    37   40   11 2
    38   41   11 1
    39   42   14 2
    40   43   14 1
    41   44   37 2
    42   45   37 2
    43    7    9 ar
    44   12   41 1
    45   15   43 1
    46   32   34 ar
@<TRIPOS>SUBSTRUCTURE
     1 RES1 1

@<TRIPOS>CRYSIN
  15.6370    6.7130   18.4780  90.0000 101.8600  90.0000  14 2

