# MOL2 file generated by ConQuest
# Please check atom types

@<TRIPOS>MOLECULE
PAMGIT
    40    41     1
SMALL
NO_CHARGES
****
Generated from CSD

@<TRIPOS>ATOM
      1 C1         3.8431    2.4627   11.8104 C.ar      1 RES1    0.0000
      2 C2         4.8297    3.4293   11.9435 C.ar      1 RES1    0.0000
      3 C3         5.8676    3.2101   12.8166 C.ar      1 RES1    0.0000
      4 C4         5.9011    2.0266   13.5333 C.ar      1 RES1    0.0000
      5 C5         4.9373    1.0588   13.4002 C.ar      1 RES1    0.0000
      6 C6         3.8912    1.2892   12.5294 C.ar      1 RES1    0.0000
      7 C7         0.8524    4.8748    9.6136 C.1       1 RES1    0.0000
      8 C8         0.7400    2.5133    9.2471 C.1       1 RES1    0.0000
      9 C9         1.6401    3.6923    9.2237 C.3       1 RES1    0.0000
     10 C10        2.3217    3.8677    7.7950 C.3       1 RES1    0.0000
     11 C11        3.2210    2.6571    7.5592 C.3       1 RES1    0.0000
     12 C12        3.1955    5.1299    7.8230 C.3       1 RES1    0.0000
     13 C13        1.2173    3.9891    6.7421 C.ar      1 RES1    0.0000
     14 C14        0.6286    5.2120    6.4433 C.ar      1 RES1    0.0000
     15 C15       -0.3499    5.3199    5.4745 C.ar      1 RES1    0.0000
     16 C16       -0.7895    4.2150    4.8068 C.ar      1 RES1    0.0000
     17 C17       -0.2252    2.9977    5.0823 C.ar      1 RES1    0.0000
     18 C18        0.7617    2.8819    6.0348 C.ar      1 RES1    0.0000
     19 N1         2.7410    2.5751   10.8906 N.2       1 RES1    0.0000
     20 N2         2.7427    3.6114   10.2393 N.2       1 RES1    0.0000
     21 N3         0.2533    5.7695    9.9475 N.1       1 RES1    0.0000
     22 N4         0.0118    1.6422    9.2658 N.1       1 RES1    0.0000
     23 N5         7.0030    1.8063   14.4835 N.pl3     1 RES1    0.0000
     24 O1         7.7183    2.7549   14.7636 O.2       1 RES1    0.0000
     25 O2         7.1321    0.7137   14.9830 O.2       1 RES1    0.0000
     26 H1         6.5453    3.8666   12.9567 H         1 RES1    0.0000
     27 H2         4.9873    0.2473   13.9138 H         1 RES1    0.0000
     28 H3         4.7641    4.2824   11.4626 H         1 RES1    0.0000
     29 H4         3.1643    0.6856   12.3964 H         1 RES1    0.0000
     30 H5         1.1804    2.0232    6.1865 H         1 RES1    0.0000
     31 H6         0.9354    6.0134    6.9102 H         1 RES1    0.0000
     32 H7        -0.6840    6.1708    5.2994 H         1 RES1    0.0000
     33 H8        -1.3945    4.2937    4.1555 H         1 RES1    0.0000
     34 H9         3.9359    5.0243    8.4744 H         1 RES1    0.0000
     35 H10        3.6175    5.2491    6.9102 H         1 RES1    0.0000
     36 H11        2.7275    5.9460    8.0075 H         1 RES1    0.0000
     37 H12       -0.5209    2.2480    4.5990 H         1 RES1    0.0000
     38 H13        4.0491    2.6976    8.1709 H         1 RES1    0.0000
     39 H14        2.7392    1.7647    7.5639 H         1 RES1    0.0000
     40 H15        3.5680    2.7201    6.6067 H         1 RES1    0.0000
@<TRIPOS>BOND
     1    1    2 ar
     2    2    3 ar
     3    3    4 ar
     4    4    5 ar
     5    5    6 ar
     6    6    1 ar
     7    7    9 1
     8    8    9 1
     9    9   10 1
    10   10   11 1
    11   11   38 1
    12   12   10 1
    13   13   10 1
    14   14   13 ar
    15   15   14 ar
    16   16   15 ar
    17   17   16 ar
    18   18   13 ar
    19   19    1 1
    20   20    9 1
    21   21    7 3
    22   22    8 3
    23   23    4 1
    24   24   23 2
    25   25   23 2
    26   26    3 1
    27   27    5 1
    28   28    2 1
    29   29    6 1
    30   30   18 1
    31   31   14 1
    32   32   15 1
    33   33   16 1
    34   34   12 1
    35   35   12 1
    36   36   12 1
    37   37   17 1
    38   39   11 1
    39   40   11 1
    40   17   18 ar
    41   19   20 2
@<TRIPOS>SUBSTRUCTURE
     1 RES1 1

@<TRIPOS>CRYSIN
   6.5100   11.2400   23.6370  90.0000  99.0100  90.0000  14 1

