# MOL2 file generated by ConQuest
# Please check atom types

@<TRIPOS>MOLECULE
PAMHOB
    73    78     1
SMALL
NO_CHARGES
****
Generated from CSD

@<TRIPOS>ATOM
      1 O1         4.9114    8.1516    3.0172 O.3       1 RES1    0.0000
      2 O2         6.0497    5.9632    4.1636 O.3       1 RES1    0.0000
      3 O3         7.3800    6.9031    2.4889 O.3       1 RES1    0.0000
      4 O4         6.7592    9.3971    3.4225 O.3       1 RES1    0.0000
      5 O5         4.6861   10.9555    2.4813 O.3       1 RES1    0.0000
      6 O6         3.5654   12.0813    0.8736 O.2       1 RES1    0.0000
      7 O7        -1.7653   12.0763    5.3163 O.2       1 RES1    0.0000
      8 O8        -0.8137   10.4699    6.4095 O.2       1 RES1    0.0000
      9 O9         6.1564   13.1992    1.8130 O.3       1 RES1    0.0000
     10 O10        7.8218   14.3346    2.7879 O.2       1 RES1    0.0000
     11 O11        2.8813   18.9480    0.2537 O.2       1 RES1    0.0000
     12 O12        4.0264   20.0469    1.6867 O.2       1 RES1    0.0000
     13 N1        -0.8404   11.2863    5.4987 N.pl3     1 RES1    0.0000
     14 N2         3.7447   19.0207    1.1133 N.pl3     1 RES1    0.0000
     15 C1         6.6993    4.6731    4.1711 C.3       1 RES1    0.0000
     16 H1         6.9957    4.4583    3.2737 H         1 RES1    0.0000
     17 H2         6.0629    3.9950    4.4459 H         1 RES1    0.0000
     18 C2         7.8819    4.6551    5.1053 C.3       1 RES1    0.0000
     19 H3         8.3303    3.7973    5.0436 H         1 RES1    0.0000
     20 H4         7.5748    4.7687    6.0180 H         1 RES1    0.0000
     21 C3         8.8642    5.7637    4.7610 C.3       1 RES1    0.0000
     22 H5         9.2701    5.5850    3.8987 H         1 RES1    0.0000
     23 H6         9.5676    5.7970    5.4271 H         1 RES1    0.0000
     24 C4         8.1268    7.1045    4.7186 C.3       1 RES1    0.0000
     25 H7         7.8595    7.3526    5.6168 H         1 RES1    0.0000
     26 H8         8.7264    7.7900    4.3831 H         1 RES1    0.0000
     27 C5         6.8972    7.0330    3.8301 C.3       1 RES1    0.0000
     28 C6         5.9962    8.2974    3.9257 C.3       1 RES1    0.0000
     29 C7         6.3570    7.0277    1.4929 C.3       1 RES1    0.0000
     30 H9         5.7646    6.2601    1.5297 H         1 RES1    0.0000
     31 H10        6.7575    7.0603    0.6100 H         1 RES1    0.0000
     32 C8         5.5692    8.2980    1.7481 C.3       1 RES1    0.0000
     33 H11        4.9324    8.4842    1.0262 H         1 RES1    0.0000
     34 C9         6.4981    9.4867    2.0084 C.3       1 RES1    0.0000
     35 H12        7.3333    9.3715    1.5079 H         1 RES1    0.0000
     36 C10        5.8971   10.8512    1.7029 C.3       1 RES1    0.0000
     37 H13        5.6908   10.9216    0.7478 H         1 RES1    0.0000
     38 C11        3.6095   11.5587    1.9601 C.2       1 RES1    0.0000
     39 C12        2.4629   11.4754    2.9024 C.ar      1 RES1    0.0000
     40 C13        2.5281   10.7092    4.0637 C.ar      1 RES1    0.0000
     41 H14        3.3094   10.2500    4.2712 H         1 RES1    0.0000
     42 C14        1.4423   10.6293    4.9058 C.ar      1 RES1    0.0000
     43 H15        1.4709   10.1053    5.6741 H         1 RES1    0.0000
     44 C15        0.3080   11.3484    4.5791 C.ar      1 RES1    0.0000
     45 C16        0.2137   12.1276    3.4465 C.ar      1 RES1    0.0000
     46 H16       -0.5615   12.6054    3.2573 H         1 RES1    0.0000
     47 C17        1.2989   12.1767    2.6056 C.ar      1 RES1    0.0000
     48 H17        1.2545   12.6849    1.8286 H         1 RES1    0.0000
     49 C18        6.8286   11.9496    2.1109 C.3       1 RES1    0.0000
     50 H18        7.0266   11.8899    3.0581 H         1 RES1    0.0000
     51 H19        7.6604   11.8878    1.6171 H         1 RES1    0.0000
     52 C19        6.7484   14.3173    2.2531 C.2       1 RES1    0.0000
     53 C20        5.9114   15.5237    1.9865 C.ar      1 RES1    0.0000
     54 C21        4.7028   15.4376    1.3038 C.ar      1 RES1    0.0000
     55 H20        4.3779   14.6097    1.0330 H         1 RES1    0.0000
     56 C22        3.9863   16.5882    1.0280 C.ar      1 RES1    0.0000
     57 H21        3.1817   16.5483    0.5622 H         1 RES1    0.0000
     58 C23        4.4902   17.7922    1.4584 C.ar      1 RES1    0.0000
     59 C24        5.6656   17.9030    2.1681 C.ar      1 RES1    0.0000
     60 H22        5.9667   18.7307    2.4659 H         1 RES1    0.0000
     61 C25        6.3852   16.7538    2.4251 C.ar      1 RES1    0.0000
     62 H23        7.1882   16.8029    2.8916 H         1 RES1    0.0000
     63 C26        5.4337    8.6126    5.2940 C.ar      1 RES1    0.0000
     64 C27        4.3366    7.9023    5.7644 C.ar      1 RES1    0.0000
     65 H24        3.9864    7.2029    5.2620 H         1 RES1    0.0000
     66 C28        3.7635    8.2359    6.9800 C.ar      1 RES1    0.0000
     67 H25        3.0273    7.7589    7.2898 H         1 RES1    0.0000
     68 C29        4.2740    9.2652    7.7319 C.ar      1 RES1    0.0000
     69 H26        3.8811    9.4907    8.5439 H         1 RES1    0.0000
     70 C30        5.3660    9.9603    7.2790 C.ar      1 RES1    0.0000
     71 H27        5.7238   10.6475    7.7947 H         1 RES1    0.0000
     72 C31        5.9415    9.6442    6.0574 C.ar      1 RES1    0.0000
     73 H28        6.6741   10.1293    5.7519 H         1 RES1    0.0000
@<TRIPOS>BOND
     1    1   28 1
     2    2   15 1
     3    3   27 1
     4    4   28 1
     5    5   36 1
     6    6   38 2
     7    7   13 2
     8    8   13 2
     9    9   49 1
    10   10   52 2
    11   11   14 2
    12   12   14 2
    13   13   44 1
    14   14   58 1
    15   15   16 1
    16   17   15 1
    17   18   15 1
    18   19   18 1
    19   20   18 1
    20   21   18 1
    21   22   21 1
    22   23   21 1
    23   24   21 1
    24   25   24 1
    25   26   24 1
    26   27    2 1
    27   28   27 1
    28   29    3 1
    29   30   29 1
    30   31   29 1
    31   32    1 1
    32   33   32 1
    33   34    4 1
    34   35   34 1
    35   36   34 1
    36   37   36 1
    37   38    5 1
    38   39   38 1
    39   40   39 ar
    40   41   40 1
    41   42   40 ar
    42   43   42 1
    43   44   42 ar
    44   45   44 ar
    45   46   45 1
    46   47   39 ar
    47   48   47 1
    48   49   36 1
    49   50   49 1
    50   51   49 1
    51   52    9 1
    52   53   52 1
    53   54   53 ar
    54   55   54 1
    55   56   54 ar
    56   57   56 1
    57   58   56 ar
    58   59   58 ar
    59   60   59 1
    60   61   53 ar
    61   62   61 1
    62   63   28 1
    63   64   63 ar
    64   65   64 1
    65   66   64 ar
    66   67   66 1
    67   68   66 ar
    68   69   68 1
    69   70   68 ar
    70   71   70 1
    71   72   63 ar
    72   73   72 1
    73   24   27 1
    74   29   32 1
    75   32   34 1
    76   45   47 ar
    77   59   61 ar
    78   70   72 ar
@<TRIPOS>SUBSTRUCTURE
     1 RES1 1

@<TRIPOS>CRYSIN
  10.1100   11.4490   14.0070  79.0400  79.7500  70.4400   2 1

