# MOL2 file generated by ConQuest
# Please check atom types

@<TRIPOS>MOLECULE
PAMHIV
    55    59     1
SMALL
NO_CHARGES
****
Generated from CSD

@<TRIPOS>ATOM
      1 O1         2.4526    1.4308    2.0200 O.3       1 RES1    0.0000
      2 O2         3.4217    1.9128    4.6185 O.3       1 RES1    0.0000
      3 O3         5.1862    0.9388    0.8582 O.3       1 RES1    0.0000
      4 O4         0.8677    1.0818    3.6973 O.3       1 RES1    0.0000
      5 O5         3.2774    3.7618    3.3422 O.3       1 RES1    0.0000
      6 O6         5.8418   -0.7415   -0.4474 O.2       1 RES1    0.0000
      7 O7        10.0913    3.6676   -3.6666 O.2       1 RES1    0.0000
      8 O8         9.5345    5.2109   -2.2582 O.2       1 RES1    0.0000
      9 N1         9.4283    4.0675   -2.7128 N.pl3     1 RES1    0.0000
     10 C1         1.6073    2.0585    2.9900 C.3       1 RES1    0.0000
     11 C2         6.8970    2.7200   -0.3764 C.ar      1 RES1    0.0000
     12 H1         6.3965    3.0088    0.3525 H         1 RES1    0.0000
     13 C3         6.7754    1.4078   -0.8270 C.ar      1 RES1    0.0000
     14 C4         4.2950    1.6572    3.5041 C.3       1 RES1    0.0000
     15 H2         5.1554    1.2851    3.7921 H         1 RES1    0.0000
     16 C5         5.9007    0.4209   -0.1510 C.2       1 RES1    0.0000
     17 C6        -0.0123    0.3057    2.8619 C.3       1 RES1    0.0000
     18 H3        -0.5025   -0.3233    3.4132 H         1 RES1    0.0000
     19 H4         0.5164   -0.2033    2.2275 H         1 RES1    0.0000
     20 C7         4.3144    0.0047    1.5291 C.3       1 RES1    0.0000
     21 H5         4.8453   -0.7097    1.9171 H         1 RES1    0.0000
     22 H6         3.7034   -0.3884    0.8857 H         1 RES1    0.0000
     23 C8         3.5295    0.6893    2.6088 C.3       1 RES1    0.0000
     24 H7         3.1375   -0.0041    3.1817 H         1 RES1    0.0000
     25 C9         1.6937    3.4710    5.1617 C.ar      1 RES1    0.0000
     26 C10        1.3165    2.7292    6.2751 C.ar      1 RES1    0.0000
     27 H8         1.5610    1.8341    6.3423 H         1 RES1    0.0000
     28 C11        0.5746    3.3246    7.2884 C.ar      1 RES1    0.0000
     29 H9         0.3208    2.8285    8.0331 H         1 RES1    0.0000
     30 C12        0.2097    4.6626    7.1882 C.ar      1 RES1    0.0000
     31 H10       -0.2874    5.0611    7.8665 H         1 RES1    0.0000
     32 C13        0.5869    5.4042    6.0748 C.ar      1 RES1    0.0000
     33 H11        0.3418    6.2988    6.0073 H         1 RES1    0.0000
     34 C14        1.3288    4.8083    5.0616 C.ar      1 RES1    0.0000
     35 H12        1.5821    5.3045    4.3165 H         1 RES1    0.0000
     36 C15        8.4799    3.1511   -2.0718 C.ar      1 RES1    0.0000
     37 C16        7.5009    0.9957   -1.9439 C.ar      1 RES1    0.0000
     38 H13        7.4023    0.1281   -2.2644 H         1 RES1    0.0000
     39 C17       -0.9893    1.1760    2.1102 C.3       1 RES1    0.0000
     40 H14       -1.5797    1.6213    2.7379 H         1 RES1    0.0000
     41 H15       -1.5287    0.6270    1.5207 H         1 RES1    0.0000
     42 C18        7.7563    3.5910   -1.0073 C.ar      1 RES1    0.0000
     43 H16        7.8406    4.4681   -0.7104 H         1 RES1    0.0000
     44 C19       -0.2308    2.2164    1.2906 C.3       1 RES1    0.0000
     45 H17        0.2808    1.7772    0.5946 H         1 RES1    0.0000
     46 H18       -0.8576    2.8244    0.8682 H         1 RES1    0.0000
     47 C20        8.3635    1.8599   -2.5764 C.ar      1 RES1    0.0000
     48 H19        8.8536    1.5888   -3.3185 H         1 RES1    0.0000
     49 C21        0.7023    2.9925    2.2054 C.3       1 RES1    0.0000
     50 H20        1.2442    3.5957    1.6750 H         1 RES1    0.0000
     51 H21        0.1775    3.5259    2.8221 H         1 RES1    0.0000
     52 C22        2.4854    2.8061    4.0532 C.3       1 RES1    0.0000
     53 C23        4.4555    3.0582    2.8854 C.3       1 RES1    0.0000
     54 H22        5.2630    3.4893    3.2027 H         1 RES1    0.0000
     55 H23        4.4789    3.0115    1.9171 H         1 RES1    0.0000
@<TRIPOS>BOND
     1    1   10 1
     2    2   14 1
     3    3   16 1
     4    4   10 1
     5    5   52 1
     6    6   16 2
     7    7    9 2
     8    8    9 2
     9    9   36 1
    10   10   49 1
    11   11   12 1
    12   13   11 ar
    13   14   15 1
    14   16   13 1
    15   17    4 1
    16   18   17 1
    17   19   17 1
    18   20    3 1
    19   21   20 1
    20   22   20 1
    21   23    1 1
    22   24   23 1
    23   25   26 ar
    24   26   27 1
    25   28   26 ar
    26   29   28 1
    27   30   28 ar
    28   31   30 1
    29   32   30 ar
    30   33   32 1
    31   34   25 ar
    32   35   34 1
    33   36   42 ar
    34   37   13 ar
    35   38   37 1
    36   39   17 1
    37   40   39 1
    38   41   39 1
    39   42   11 ar
    40   43   42 1
    41   44   39 1
    42   45   44 1
    43   46   44 1
    44   47   36 ar
    45   48   47 1
    46   49   44 1
    47   50   49 1
    48   51   49 1
    49   52    2 1
    50   53    5 1
    51   54   53 1
    52   55   53 1
    53   10   52 1
    54   14   23 1
    55   14   53 1
    56   20   23 1
    57   25   52 1
    58   32   34 ar
    59   37   47 ar
@<TRIPOS>SUBSTRUCTURE
     1 RES1 1

@<TRIPOS>CRYSIN
  34.2380    6.7780   18.6230  90.0000 109.6400  90.0000  15 1

