# MOL2 file generated by ConQuest
# Please check atom types

@<TRIPOS>MOLECULE
PAMNIA
    25    26     1
SMALL
NO_CHARGES
****
Generated from CSD

@<TRIPOS>ATOM
      1 O1         2.5011    2.5671    3.0525 O.2       1 RES1    0.0000
      2 O2         1.1168   -1.5307    2.3253 O.2       1 RES1    0.0000
      3 O3         0.6998   -3.1283    3.7073 O.2       1 RES1    0.0000
      4 N1         1.6849    2.5374    5.2049 N.am      1 RES1    0.0000
      5 N2         1.0020   -1.9699    3.4632 N.pl3     1 RES1    0.0000
      6 C1         2.1468    3.1357    4.0620 C.2       1 RES1    0.0000
      7 C2         2.1656    4.6261    4.2934 C.3       1 RES1    0.0000
      8 C3         1.4117    4.8394    5.5889 C.3       1 RES1    0.0000
      9 C4         1.4928    3.4932    6.3047 C.3       1 RES1    0.0000
     10 C5         1.5508    1.1435    5.4096 C.ar      1 RES1    0.0000
     11 C6         1.3730    0.2843    4.3264 C.ar      1 RES1    0.0000
     12 C7         1.2234   -1.0619    4.6036 C.ar      1 RES1    0.0000
     13 C8         1.2360   -1.5933    5.8724 C.ar      1 RES1    0.0000
     14 C9         1.3963   -0.7203    6.9302 C.ar      1 RES1    0.0000
     15 C10        1.5584    0.6428    6.7090 C.ar      1 RES1    0.0000
     16 H1         3.1813    4.9815    4.3836 H         1 RES1    0.0000
     17 H2         1.6745    5.1417    3.4810 H         1 RES1    0.0000
     18 H3         1.8786    5.6138    6.1788 H         1 RES1    0.0000
     19 H4         0.3833    5.1056    5.3931 H         1 RES1    0.0000
     20 H5         0.5793    3.2853    6.8425 H         1 RES1    0.0000
     21 H6         2.3274    3.4688    6.9887 H         1 RES1    0.0000
     22 H7         1.3522    0.6556    3.3132 H         1 RES1    0.0000
     23 H8         1.1255   -2.6552    6.0364 H         1 RES1    0.0000
     24 H9         1.3943   -1.1011    7.9409 H         1 RES1    0.0000
     25 H10        1.6918    1.3133    7.5442 H         1 RES1    0.0000
@<TRIPOS>BOND
     1    1    6 2
     2    2    5 2
     3    3    5 2
     4    4    6 1
     5    5   12 1
     6    6    7 1
     7    7    8 1
     8    8    9 1
     9    9    4 1
    10   10    4 1
    11   11   10 ar
    12   12   11 ar
    13   13   12 ar
    14   14   13 ar
    15   15   10 ar
    16   16    7 1
    17   17    7 1
    18   18    8 1
    19   19    8 1
    20   20    9 1
    21   21    9 1
    22   22   11 1
    23   23   13 1
    24   24   14 1
    25   25   15 1
    26   14   15 ar
@<TRIPOS>SUBSTRUCTURE
     1 RES1 1

@<TRIPOS>CRYSIN
   6.9500   10.6080   12.7300  90.0000  92.9100  90.0000  14 1

