# MOL2 file generated by ConQuest
# Please check atom types

@<TRIPOS>MOLECULE
PAMQAW
    31    32     1
SMALL
NO_CHARGES
****
Generated from CSD

@<TRIPOS>ATOM
      1 O1         8.7570   -0.8907   -1.8393 O.3       1 RES1    0.0000
      2 N1         7.6020   -1.6400   -1.5419 N.2       1 RES1    0.0000
      3 C1         6.6779   -0.7539   -1.3895 C.2       1 RES1    0.0000
      4 H1         5.7974   -0.9643   -1.1779 H         1 RES1    0.0000
      5 C2         7.1359    0.5696   -1.5764 C.2       1 RES1    0.0000
      6 C3         6.3289    1.8123   -1.4320 C.3       1 RES1    0.0000
      7 C4         6.8323    3.0679   -2.1176 C.3       1 RES1    0.0000
      8 H2         7.7214    3.2740   -1.7888 H         1 RES1    0.0000
      9 H3         6.2513    3.8092   -1.8859 H         1 RES1    0.0000
     10 C5         6.8831    2.9311   -3.6402 C.3       1 RES1    0.0000
     11 H4         6.6256    2.0164   -3.8407 H         1 RES1    0.0000
     12 H5         6.1766    3.4961   -3.9890 H         1 RES1    0.0000
     13 C6         7.9619    3.1846   -4.3707 C.3       1 RES1    0.0000
     14 H6         7.8544    4.0942   -4.6874 H         1 RES1    0.0000
     15 H7         7.8862    2.6162   -5.1532 H         1 RES1    0.0000
     16 C7         9.3501    3.0789   -3.9417 C.3       1 RES1    0.0000
     17 H8         9.4696    3.6717   -3.1832 H         1 RES1    0.0000
     18 H9         9.9070    3.4182   -4.6593 H         1 RES1    0.0000
     19 C8         9.8775    1.7388   -3.5552 C.3       1 RES1    0.0000
     20 H10       10.8342    1.7315   -3.7140 H         1 RES1    0.0000
     21 H11        9.4814    1.0753   -4.1421 H         1 RES1    0.0000
     22 C9         9.6297    1.3060   -2.1088 C.3       1 RES1    0.0000
     23 H12       10.4232    0.8467   -1.7928 H         1 RES1    0.0000
     24 H13        9.5265    2.1059   -1.5699 H         1 RES1    0.0000
     25 C10        8.4594    0.4285   -1.8538 C.2       1 RES1    0.0000
     26 N2         6.1076    2.0562    0.0810 N.pl3     1 RES1    0.0000
     27 O2         6.5885    3.0399    0.5669 O.2       1 RES1    0.0000
     28 O3         5.5197    1.1787    0.6928 O.2       1 RES1    0.0000
     29 N3         4.8883    1.5893   -1.9484 N.pl3     1 RES1    0.0000
     30 O4         4.7142    0.7671   -2.8087 O.2       1 RES1    0.0000
     31 O5         4.0357    2.3193   -1.4850 O.2       1 RES1    0.0000
@<TRIPOS>BOND
     1    1    2 1
     2    2    3 2
     3    3    4 1
     4    5    3 1
     5    6    5 1
     6    7    6 1
     7    8    7 1
     8    9    7 1
     9   10    7 1
    10   11   10 1
    11   12   10 1
    12   13   10 1
    13   14   13 1
    14   15   13 1
    15   16   13 1
    16   17   16 1
    17   18   16 1
    18   19   16 1
    19   20   19 1
    20   21   19 1
    21   22   19 1
    22   23   22 1
    23   24   22 1
    24   25    1 1
    25   26    6 1
    26   27   26 2
    27   28   26 2
    28   29    6 1
    29   30   29 2
    30   31   29 2
    31    5   25 2
    32   22   25 1
@<TRIPOS>SUBSTRUCTURE
     1 RES1 1

@<TRIPOS>CRYSIN
   8.7350   16.5690    8.7640  90.0000 113.8100  90.0000 231 1

