# MOL2 file generated by ConQuest
# Please check atom types

@<TRIPOS>MOLECULE
PAMZOO
    44    45     2
SMALL
NO_CHARGES
****
Generated from CSD

@<TRIPOS>ATOM
      1 N1         0.3460    2.9544    4.3527 N.3       1 RES1    0.0000
      2 N2         1.5150    3.6389    4.6374 N.am      1 RES1    0.0000
      3 C1         2.6549    3.4837    3.8227 C.2       1 RES1    0.0000
      4 C2         3.0308    2.3303    3.3209 C.2       1 RES1    0.0000
      5 C3         2.4984    0.9871    3.5492 C.2       1 RES1    0.0000
      6 C4         1.3501    0.6750    4.1610 C.2       1 RES1    0.0000
      7 C5         0.2493    1.5328    4.6600 C.3       1 RES1    0.0000
      8 O1        -0.9796    1.2294    3.9580 O.3       1 RES1    0.0000
      9 N3        -1.1131    2.1906    2.8670 N.2       1 RES1    0.0000
     10 C6        -0.3253    3.1432    3.1433 C.2       1 RES1    0.0000
     11 C7         1.4636    4.4596    5.7566 C.2       1 RES1    0.0000
     12 O2         0.5362    4.4803    6.5234 O.2       1 RES1    0.0000
     13 O3         2.5805    5.1476    5.8468 O.3       1 RES1    0.0000
     14 C8         2.8291    5.8752    7.1605 C.3       1 RES1    0.0000
     15 C9         3.3937   -0.1336    3.0587 C.3       1 RES1    0.0000
     16 C10       -0.1504    4.3717    2.3455 C.ar      1 RES1    0.0000
     17 C11        0.5155    4.2993    1.1107 C.ar      1 RES1    0.0000
     18 C12        0.7387    5.4657    0.4088 C.ar      1 RES1    0.0000
     19 C13        0.3245    6.7002    0.8993 C.ar      1 RES1    0.0000
     20 C14       -0.3575    6.7433    2.0833 C.ar      1 RES1    0.0000
     21 C15       -0.6206    5.5993    2.8022 C.ar      1 RES1    0.0000
     22 C16        0.9573    2.9915    0.5215 C.3       1 RES1    0.0000
     23 C17        0.5891    7.9744    0.0846 C.3       1 RES1    0.0000
     24 C18       -1.4444    5.6812    4.1018 C.3       1 RES1    0.0000
     25 C19        3.7910    6.7028    6.9970 C.3       1 RES1    0.0000
     26 H1         3.0975    4.2726    3.7579 H         1 RES1    0.0000
     27 H2         3.8040    2.3259    2.8219 H         1 RES1    0.0000
     28 H3         1.0624   -0.1733    4.1525 H         1 RES1    0.0000
     29 H4         0.0836    1.3509    5.5818 H         1 RES1    0.0000
     30 H5         4.3794    0.1466    3.1743 H         1 RES1    0.0000
     31 H6         3.2165   -0.9595    3.5944 H         1 RES1    0.0000
     32 H7         3.2065   -0.3112    2.0946 H         1 RES1    0.0000
     33 H8         1.2373    5.4243   -0.4539 H         1 RES1    0.0000
     34 H9        -0.6712    7.6253    2.4357 H         1 RES1    0.0000
     35 H10        1.4468    3.0717   -0.2650 H         1 RES1    0.0000
     36 H11        0.2593    2.5518    0.3157 H         1 RES1    0.0000
     37 H12        1.5204    2.5018    1.1164 H         1 RES1    0.0000
     38 H13        0.2508    8.7469    0.5638 H         1 RES1    0.0000
     39 H14        1.5726    8.0779   -0.0620 H         1 RES1    0.0000
     40 H15        0.1319    7.9055   -0.8006 H         1 RES1    0.0000
     41 H16       -2.3289    6.1063    3.9101 H         1 RES1    0.0000
     42 H17       -0.9627    6.2519    4.7671 H         1 RES1    0.0000
     43 H18       -1.5933    4.7381    4.4993 H         1 RES1    0.0000
     44 C20        2.3673    7.0520    6.9604 Du        2 SUP2    0.0000
@<TRIPOS>BOND
     1    1    2 1
     2    2    3 1
     3    3    4 2
     4    4    5 1
     5    5    6 2
     6    6    7 1
     7    7    1 1
     8    8    7 1
     9    9    8 1
    10   10    1 1
    11   11    2 1
    12   12   11 2
    13   13   11 1
    14   14   13 1
    15   15    5 1
    16   16   10 1
    17   17   16 ar
    18   18   17 ar
    19   19   18 ar
    20   20   19 ar
    21   21   16 ar
    22   22   17 1
    23   23   19 1
    24   24   21 1
    25   25   14 1
    26   26    3 1
    27   27    4 1
    28   28    6 1
    29   29    7 1
    30   30   15 1
    31   31   15 1
    32   32   15 1
    33   33   18 1
    34   34   20 1
    35   35   22 1
    36   36   22 1
    37   37   22 1
    38   38   23 1
    39   39   23 1
    40   40   23 1
    41   41   24 1
    42   42   24 1
    43   43   24 1
    44    9   10 2
    45   20   21 ar
@<TRIPOS>SUBSTRUCTURE
     1 RES1 1
     2 SUP2 44

@<TRIPOS>CRYSIN
   7.6710    8.6210   28.1910  90.0000  90.0000  90.0000  19 1

