# MOL2 file generated by ConQuest
# Please check atom types

@<TRIPOS>MOLECULE
PANGAN
    58    60     2
SMALL
NO_CHARGES
****
Generated from CSD

@<TRIPOS>ATOM
      1 C1        -0.2078    4.8836    6.6450 C.ar      1 RES1    0.0000
      2 C2         0.3865    3.6644    6.9777 C.ar      1 RES1    0.0000
      3 N1         0.8981    3.4043    8.3379 N.pl3     1 RES1    0.0000
      4 O1         1.0731    2.2363    8.6650 O.2       1 RES1    0.0000
      5 O2         1.1352    4.3659    9.0729 O.2       1 RES1    0.0000
      6 C3         0.5627    2.6456    6.0525 C.ar      1 RES1    0.0000
      7 H1         0.9666    1.8220    6.3003 H         1 RES1    0.0000
      8 C4         0.1299    2.8704    4.7574 C.ar      1 RES1    0.0000
      9 N2         0.2782    1.7932    3.7627 N.pl3     1 RES1    0.0000
     10 O3         0.8342    0.7539    4.1090 O.2       1 RES1    0.0000
     11 O4        -0.1698    1.9843    2.6240 O.2       1 RES1    0.0000
     12 C5        -0.4533    4.0615    4.3590 C.ar      1 RES1    0.0000
     13 H2        -0.7350    4.1940    3.4612 H         1 RES1    0.0000
     14 C6        -0.6116    5.0542    5.3138 C.ar      1 RES1    0.0000
     15 H3        -1.0068    5.8785    5.0574 H         1 RES1    0.0000
     16 N3        -0.5532    7.1645    7.1196 N.2       1 RES1    0.0000
     17 C7        -0.5195    5.9884    7.5954 C.2       1 RES1    0.0000
     18 H4        -0.6851    5.8198    8.5158 H         1 RES1    0.0000
     19 C8        -1.4525    9.3600    7.2483 C.ar      1 RES1    0.0000
     20 H5        -1.5098    9.3405    6.3003 H         1 RES1    0.0000
     21 C9        -1.8771   10.4766    7.9477 C.ar      1 RES1    0.0000
     22 H6        -2.2450   11.2161    7.4770 H         1 RES1    0.0000
     23 C10       -1.7703   10.5242    9.3354 C.ar      1 RES1    0.0000
     24 H7        -2.0611   11.2953    9.8093 H         1 RES1    0.0000
     25 C11       -1.2406    9.4486   10.0237 C.ar      1 RES1    0.0000
     26 H8        -1.1602    9.4839   10.9692 H         1 RES1    0.0000
     27 C12       -0.8239    8.3161    9.3350 C.ar      1 RES1    0.0000
     28 H9        -0.4611    7.5779    9.8093 H         1 RES1    0.0000
     29 C13       -0.9405    8.2656    7.9387 C.ar      1 RES1    0.0000
     30 C14        2.6673    9.8578    0.5299 C.ar      2 RES2    0.0000
     31 C15        2.7134    8.5028    0.2071 C.ar      2 RES2    0.0000
     32 N4         2.2027    7.9812   -1.0814 N.pl3     2 RES2    0.0000
     33 O5         2.5490    6.8553   -1.4266 O.2       2 RES2    0.0000
     34 O6         1.4539    8.6930   -1.7464 O.2       2 RES2    0.0000
     35 C16        3.2318    7.5482    1.0758 C.ar      2 RES2    0.0000
     36 H10        3.2488    6.6283    0.8403 H         2 RES2    0.0000
     37 C17        3.7201    7.9835    2.2932 C.ar      2 RES2    0.0000
     38 N5         4.3201    6.9962    3.2083 N.pl3     2 RES2    0.0000
     39 O7         4.3983    5.8301    2.8308 O.2       2 RES2    0.0000
     40 O8         4.7239    7.3962    4.3095 O.2       2 RES2    0.0000
     41 C18        3.6957    9.3093    2.6789 C.ar      2 RES2    0.0000
     42 H11        4.0357    9.5805    3.5231 H         2 RES2    0.0000
     43 C19        3.1601   10.2304    1.7952 C.ar      2 RES2    0.0000
     44 H12        3.1245   11.1449    2.0508 H         2 RES2    0.0000
     45 N6         1.8087   12.0383    0.1768 N.2       2 RES2    0.0000
     46 C20        2.2092   10.9580   -0.3609 C.2       2 RES2    0.0000
     47 H13        2.2159   10.8561   -1.3048 H         2 RES2    0.0000
     48 C21        1.5027   14.3958   -0.0469 C.ar      2 RES2    0.0000
     49 H14        1.8180   14.4848    0.8445 H         2 RES2    0.0000
     50 C22        1.1141   15.5203   -0.7688 C.ar      2 RES2    0.0000
     51 H15        1.1786   16.3808   -0.3716 H         2 RES2    0.0000
     52 C23        0.6334   15.3943   -2.0676 C.ar      2 RES2    0.0000
     53 H16        0.3628   16.1667   -2.5505 H         2 RES2    0.0000
     54 C24        0.5493   14.1431   -2.6588 C.ar      2 RES2    0.0000
     55 H17        0.2205   14.0578   -3.5457 H         2 RES2    0.0000
     56 C25        0.9440   13.0170   -1.9530 C.ar      2 RES2    0.0000
     57 H18        0.8872   12.1607   -2.3605 H         2 RES2    0.0000
     58 C26        1.4248   13.1329   -0.6442 C.ar      2 RES2    0.0000
@<TRIPOS>BOND
     1    1    2 ar
     2    2    3 1
     3    3    4 2
     4    5    3 2
     5    6    2 ar
     6    7    6 1
     7    8    6 ar
     8    9    8 1
     9   10    9 2
    10   11    9 2
    11   12    8 ar
    12   13   12 1
    13   14    1 ar
    14   15   14 1
    15   16   17 2
    16   17    1 1
    17   18   17 1
    18   19   20 1
    19   21   19 ar
    20   22   21 1
    21   23   21 ar
    22   24   23 1
    23   25   23 ar
    24   26   25 1
    25   27   25 ar
    26   28   27 1
    27   29   16 1
    28   30   31 ar
    29   31   32 1
    30   32   33 2
    31   34   32 2
    32   35   31 ar
    33   36   35 1
    34   37   35 ar
    35   38   37 1
    36   39   38 2
    37   40   38 2
    38   41   37 ar
    39   42   41 1
    40   43   30 ar
    41   44   43 1
    42   45   46 2
    43   46   30 1
    44   47   46 1
    45   48   49 1
    46   50   48 ar
    47   51   50 1
    48   52   50 ar
    49   53   52 1
    50   54   52 ar
    51   55   54 1
    52   56   54 ar
    53   57   56 1
    54   58   45 1
    55   12   14 ar
    56   19   29 ar
    57   27   29 ar
    58   41   43 ar
    59   48   58 ar
    60   56   58 ar
@<TRIPOS>SUBSTRUCTURE
     1 RES1 1
     2 RES2 30

@<TRIPOS>CRYSIN
   7.5001   11.9920   14.1110  90.8670  93.5310 107.0840   2 1

