# MOL2 file generated by ConQuest
# Please check atom types

@<TRIPOS>MOLECULE
PANINO01
    32    33     1
SMALL
NO_CHARGES
****
Generated from CSD

@<TRIPOS>ATOM
      1 O1         0.0000    0.0000    2.4686 O.2       1 RES1    0.0000
      2 N1         0.0000    0.0000    1.1931 N.pl3     1 RES1    0.0000
      3 C1         0.0374    1.2535    0.5296 C.ar      1 RES1    0.0000
      4 C2         0.6381    2.3318    1.1807 C.ar      1 RES1    0.0000
      5 C3         0.6300    3.5694    0.6040 C.ar      1 RES1    0.0000
      6 C4         0.0235    3.7739   -0.6337 C.ar      1 RES1    0.0000
      7 C5        -0.5691    2.7089   -1.2848 C.ar      1 RES1    0.0000
      8 C6        -0.5559    1.4501   -0.7100 C.ar      1 RES1    0.0000
      9 O2         0.0749    5.0540   -1.1063 O.3       1 RES1    0.0000
     10 C7        -0.6102    5.3435   -2.3105 C.3       1 RES1    0.0000
     11 H1         1.0574    2.1246    2.0091 H         1 RES1    0.0000
     12 H2         1.1015    4.3821    1.0790 H         1 RES1    0.0000
     13 H3        -0.9766    2.7886   -2.1331 H         1 RES1    0.0000
     14 H4        -1.0280    0.7436   -1.1038 H         1 RES1    0.0000
     15 H5        -0.5728    6.2677   -2.4618 H         1 RES1    0.0000
     16 H6        -1.6889    5.0991   -2.2820 H         1 RES1    0.0000
     17 H7        -0.1101    4.8867   -2.9145 H         1 RES1    0.0000
     18 C1F       -0.0374   -1.2535    0.5296 C.ar      1 RES1    0.0000
     19 C2F       -0.6381   -2.3318    1.1807 C.ar      1 RES1    0.0000
     20 C6F        0.5559   -1.4501   -0.7100 C.ar      1 RES1    0.0000
     21 C3F       -0.6300   -3.5694    0.6040 C.ar      1 RES1    0.0000
     22 H1F       -1.0574   -2.1246    2.0091 H         1 RES1    0.0000
     23 C5F        0.5691   -2.7089   -1.2848 C.ar      1 RES1    0.0000
     24 H4F        1.0280   -0.7436   -1.1038 H         1 RES1    0.0000
     25 C4F       -0.0235   -3.7739   -0.6337 C.ar      1 RES1    0.0000
     26 H2F       -1.1015   -4.3821    1.0790 H         1 RES1    0.0000
     27 H3F        0.9766   -2.7886   -2.1331 H         1 RES1    0.0000
     28 O2F       -0.0749   -5.0540   -1.1063 O.3       1 RES1    0.0000
     29 C7F        0.6102   -5.3435   -2.3105 C.3       1 RES1    0.0000
     30 H5F        0.5728   -6.2677   -2.4618 H         1 RES1    0.0000
     31 H6F        1.6889   -5.0991   -2.2820 H         1 RES1    0.0000
     32 H7F        0.1101   -4.8867   -2.9145 H         1 RES1    0.0000
@<TRIPOS>BOND
     1    1    2 2
     2    2    3 1
     3    3    4 ar
     4    4    5 ar
     5    5    6 ar
     6    6    7 ar
     7    7    8 ar
     8    8    3 ar
     9    9    6 1
    10   10    9 1
    11   11    4 1
    12   12    5 1
    13   13    7 1
    14   14    8 1
    15   15   10 1
    16   16   10 1
    17   17   10 1
    18   18    2 1
    19   19   18 ar
    20   20   18 ar
    21   21   19 ar
    22   22   19 1
    23   23   20 ar
    24   24   20 1
    25   25   21 ar
    26   26   21 1
    27   27   23 1
    28   28   25 1
    29   29   28 1
    30   30   29 1
    31   31   29 1
    32   32   29 1
    33   23   25 ar
@<TRIPOS>SUBSTRUCTURE
     1 RES1 1

@<TRIPOS>CRYSIN
   7.3430   26.5580    6.2010  90.0000  90.0000  90.0000  41 1

