# MOL2 file generated by ConQuest
# Please check atom types

@<TRIPOS>MOLECULE
PANINO
    18    19     1
SMALL
NO_CHARGES
****
Generated from CSD

@<TRIPOS>ATOM
      1 O1         0.0000    0.0000    2.4000 O.2       1 RES1    0.0000
      2 N1         0.0000    0.0000    1.1700 N.pl3     1 RES1    0.0000
      3 C1         0.0700    1.2701    0.4900 C.ar      1 RES1    0.0000
      4 C2         0.5900    2.3501    1.1900 C.ar      1 RES1    0.0000
      5 C3         0.5500    3.6199    0.6200 C.ar      1 RES1    0.0000
      6 C4        -0.0600    3.8201   -0.5800 C.ar      1 RES1    0.0000
      7 C5        -0.6100    2.7400   -1.2500 C.ar      1 RES1    0.0000
      8 C6        -0.5400    1.4499   -0.7000 C.ar      1 RES1    0.0000
      9 O2        -0.0600    5.1000   -1.1600 O.3       1 RES1    0.0000
     10 C7        -0.7600    5.4500   -2.3700 C.3       1 RES1    0.0000
     11 C1F       -0.0700   -1.2701    0.4900 C.ar      1 RES1    0.0000
     12 C2F       -0.5900   -2.3501    1.1900 C.ar      1 RES1    0.0000
     13 C6F        0.5400   -1.4499   -0.7000 C.ar      1 RES1    0.0000
     14 C3F       -0.5500   -3.6199    0.6200 C.ar      1 RES1    0.0000
     15 C5F        0.6100   -2.7400   -1.2500 C.ar      1 RES1    0.0000
     16 C4F        0.0600   -3.8201   -0.5800 C.ar      1 RES1    0.0000
     17 O2F        0.0600   -5.1000   -1.1600 O.3       1 RES1    0.0000
     18 C7F        0.7600   -5.4500   -2.3700 C.3       1 RES1    0.0000
@<TRIPOS>BOND
     1    1    2 2
     2    2    3 1
     3    3    4 ar
     4    4    5 ar
     5    5    6 ar
     6    6    7 ar
     7    7    8 ar
     8    8    3 ar
     9    9    6 1
    10   10    9 1
    11   11    2 1
    12   12   11 ar
    13   13   11 ar
    14   14   12 ar
    15   15   13 ar
    16   16   14 ar
    17   17   16 1
    18   18   17 1
    19   15   16 ar
@<TRIPOS>SUBSTRUCTURE
     1 RES1 1

@<TRIPOS>CRYSIN
   7.3300   26.8000    6.2500  90.0000  90.0000  90.0000  41 1

