# MOL2 file generated by ConQuest
# Please check atom types

@<TRIPOS>MOLECULE
PANJOE
    33    35     1
SMALL
NO_CHARGES
****
Generated from CSD

@<TRIPOS>ATOM
      1 O1        -0.0392    2.8191   11.8176 O.2       1 RES1    0.0000
      2 O2        -1.5262    3.2146   10.3211 O.2       1 RES1    0.0000
      3 N1         2.7316    0.5916    6.6736 N.2       1 RES1    0.0000
      4 N2         0.5769    1.0027    6.1707 N.pl3     1 RES1    0.0000
      5 N3        -0.4374    2.7854   10.6607 N.pl3     1 RES1    0.0000
      6 C1         2.0941    1.1410    7.7767 C.ar      1 RES1    0.0000
      7 C2         2.6011    1.4030    9.0466 C.ar      1 RES1    0.0000
      8 C3         1.7562    1.9342    9.9752 C.ar      1 RES1    0.0000
      9 C4         0.4377    2.2097    9.6423 C.ar      1 RES1    0.0000
     10 C5        -0.1103    1.9656    8.3937 C.ar      1 RES1    0.0000
     11 C6         0.7589    1.4144    7.4787 C.ar      1 RES1    0.0000
     12 C7         1.7793    0.5399    5.7694 C.2       1 RES1    0.0000
     13 C8        -0.6615    0.9961    5.4010 C.3       1 RES1    0.0000
     14 C9        -0.8861    2.2534    4.6001 C.3       1 RES1    0.0000
     15 C10       -0.9711    3.4920    5.4452 C.ar      1 RES1    0.0000
     16 C11        0.1484    4.2413    5.7020 C.ar      1 RES1    0.0000
     17 C12        0.0990    5.3279    6.5302 C.ar      1 RES1    0.0000
     18 C13       -1.0884    5.6923    7.1188 C.ar      1 RES1    0.0000
     19 C14       -2.2144    4.9679    6.8767 C.ar      1 RES1    0.0000
     20 C15       -2.1544    3.8663    6.0461 C.ar      1 RES1    0.0000
     21 H1         3.4885    1.2214    9.2547 H         1 RES1    0.0000
     22 H2         2.0640    2.1126   10.8338 H         1 RES1    0.0000
     23 H3        -0.9969    2.1583    8.1891 H         1 RES1    0.0000
     24 H4         1.9233    0.2079    4.9138 H         1 RES1    0.0000
     25 H5        -1.4068    0.8752    6.0091 H         1 RES1    0.0000
     26 H6        -0.6496    0.2377    4.7968 H         1 RES1    0.0000
     27 H7        -0.1598    2.3560    3.9653 H         1 RES1    0.0000
     28 H8        -1.7089    2.1606    4.0946 H         1 RES1    0.0000
     29 H9         0.9564    4.0047    5.3051 H         1 RES1    0.0000
     30 H10        0.8694    5.8214    6.6956 H         1 RES1    0.0000
     31 H11       -1.1219    6.4316    7.6808 H         1 RES1    0.0000
     32 H12       -3.0209    5.2136    7.2685 H         1 RES1    0.0000
     33 H13       -2.9246    3.3695    5.8885 H         1 RES1    0.0000
@<TRIPOS>BOND
     1    1    5 2
     2    2    5 2
     3    3    6 1
     4    4   11 1
     5    5    9 1
     6    6    7 ar
     7    7    8 ar
     8    8    9 ar
     9    9   10 ar
    10   10   11 ar
    11   11    6 ar
    12   12    3 2
    13   13    4 1
    14   14   13 1
    15   15   14 1
    16   16   15 ar
    17   17   16 ar
    18   18   17 ar
    19   19   18 ar
    20   20   15 ar
    21   21    7 1
    22   22    8 1
    23   23   10 1
    24   24   12 1
    25   25   13 1
    26   26   13 1
    27   27   14 1
    28   28   14 1
    29   29   16 1
    30   30   17 1
    31   31   18 1
    32   32   19 1
    33   33   20 1
    34    4   12 1
    35   19   20 ar
@<TRIPOS>SUBSTRUCTURE
     1 RES1 1

@<TRIPOS>CRYSIN
   6.6382   11.4258   18.2702  90.0000 107.0390  90.0000  14 1

