# MOL2 file generated by ConQuest
# Please check atom types

@<TRIPOS>MOLECULE
PAPFIW
    58    39     2
SMALL
NO_CHARGES
****
Generated from CSD

@<TRIPOS>ATOM
      1 O1         2.1213    5.7432    0.3745 O.2       1 RES1    0.0000
      2 O2         0.2295    9.0005   -2.2228 O.2       1 RES1    0.0000
      3 O3         1.8174    8.5620    0.0699 O.3       1 RES1    0.0000
      4 N1         1.3751    7.5883   -0.8104 N.am      1 RES1    0.0000
      5 C1         1.4802    6.2312   -0.5136 C.2       1 RES1    0.0000
      6 C2         0.6423    5.5848   -1.5672 C.ar      1 RES1    0.0000
      7 C3         0.3939    4.2448   -1.8007 C.ar      1 RES1    0.0000
      8 H1         0.7769    3.5708   -1.2520 H         1 RES1    0.0000
      9 C4        -0.4335    3.9200   -2.8659 C.ar      1 RES1    0.0000
     10 H2        -0.6284    3.0064   -3.0425 H         1 RES1    0.0000
     11 C5        -0.9824    4.9051   -3.6810 C.ar      1 RES1    0.0000
     12 H3        -1.5439    4.6550   -4.4062 H         1 RES1    0.0000
     13 C6        -0.7210    6.2491   -3.4460 C.ar      1 RES1    0.0000
     14 H4        -1.0866    6.9264   -4.0024 H         1 RES1    0.0000
     15 C7         0.0873    6.5634   -2.3765 C.ar      1 RES1    0.0000
     16 C8         0.5063    7.8936   -1.8640 C.2       1 RES1    0.0000
     17 C9         2.9706    9.2782   -0.4645 C.3       1 RES1    0.0000
     18 H5         2.7107    9.7192   -1.3233 H         1 RES1    0.0000
     19 C10        4.1304    8.3728   -0.7122 C.2       1 RES1    0.0000
     20 H6         4.2249    7.5907   -0.1817 H         1 RES1    0.0000
     21 C11        5.0340    8.6229   -1.6505 C.2       1 RES1    0.0000
     22 H7         5.7828    8.0406   -1.7070 H         1 RES1    0.0000
     23 C12        4.9624    9.7533   -2.6238 C.3       1 RES1    0.0000
     24 H8         4.0221    9.8573   -2.9146 H         1 RES1    0.0000
     25 H9         5.4945    9.5121   -3.4235 H         1 RES1    0.0000
     26 C13        5.4583   11.0990   -2.1015 C.3       1 RES1    0.0000
     27 H10        6.3420   10.9569   -1.6788 H         1 RES1    0.0000
     28 H11        5.5973   11.6975   -2.8783 H         1 RES1    0.0000
     29 C14        4.5668   11.8209   -1.1012 C.3       1 RES1    0.0000
     30 H12        3.6528   11.8680   -1.4768 H         1 RES1    0.0000
     31 H13        4.8959   12.7500   -1.0056 H         1 RES1    0.0000
     32 C15        4.4839   11.1907    0.2975 C.3       1 RES1    0.0000
     33 H14        5.2849   10.6239    0.4294 H         1 RES1    0.0000
     34 H15        4.5220   11.9176    0.9679 H         1 RES1    0.0000
     35 C16        3.2516   10.3486    0.5762 C.3       1 RES1    0.0000
     36 H16        2.4656   10.9479    0.6341 H         1 RES1    0.0000
     37 H17        3.3603    9.9125    1.4580 H         1 RES1    0.0000
     38 C17        3.0310    9.1605   -0.4846 Du        2 SUP2    0.0000
     39 H18        3.8289    8.6010   -0.2692 Du        2 SUP2    0.0000
     40 C18        3.0969    9.6477   -1.9117 Du        2 SUP2    0.0000
     41 H19        2.3070    9.9312   -2.3519 Du        2 SUP2    0.0000
     42 C19        4.2374    9.6884   -2.5578 Du        2 SUP2    0.0000
     43 H20        4.2561   10.0416   -3.4423 Du        2 SUP2    0.0000
     44 C20        5.5195    9.1849   -1.9655 Du        2 SUP2    0.0000
     45 H21        6.1615    8.9932   -2.6952 Du        2 SUP2    0.0000
     46 H22        5.3440    8.3338   -1.4903 Du        2 SUP2    0.0000
     47 C21        6.1712   10.1513   -0.9962 Du        2 SUP2    0.0000
     48 H23        6.9903   10.5329   -1.4028 Du        2 SUP2    0.0000
     49 H24        6.4398    9.6664   -0.1710 Du        2 SUP2    0.0000
     50 C22        5.2027   11.2882   -0.6327 Du        2 SUP2    0.0000
     51 H25        5.7044   12.1263   -0.4739 Du        2 SUP2    0.0000
     52 H26        4.5704   11.4441   -1.3799 Du        2 SUP2    0.0000
     53 C23        4.4157   10.9309    0.6193 Du        2 SUP2    0.0000
     54 H27        4.3624   11.7365    1.1955 Du        2 SUP2    0.0000
     55 H28        4.9166   10.2414    1.1160 Du        2 SUP2    0.0000
     56 C24        3.0051   10.4274    0.3769 Du        2 SUP2    0.0000
     57 H29        2.4803   11.1266   -0.0862 Du        2 SUP2    0.0000
     58 H30        2.5729   10.2292    1.2372 Du        2 SUP2    0.0000
@<TRIPOS>BOND
     1    1    5 2
     2    2   16 2
     3    3    4 1
     4    4    5 1
     5    5    6 1
     6    6    7 ar
     7    7    8 1
     8    9    7 ar
     9   10    9 1
    10   11    9 ar
    11   12   11 1
    12   13   11 ar
    13   14   13 1
    14   15    6 ar
    15   16    4 1
    16   17    3 1
    17   18   17 1
    18   19   17 1
    19   20   19 1
    20   21   19 2
    21   22   21 1
    22   23   21 1
    23   24   23 1
    24   25   23 1
    25   26   23 1
    26   27   26 1
    27   28   26 1
    28   29   26 1
    29   30   29 1
    30   31   29 1
    31   32   29 1
    32   33   32 1
    33   34   32 1
    34   35   17 1
    35   36   35 1
    36   37   35 1
    37   13   15 ar
    38   15   16 1
    39   32   35 1
@<TRIPOS>SUBSTRUCTURE
     1 RES1 1
     2 SUP2 38

@<TRIPOS>CRYSIN
  12.6673    8.1210   14.0349  90.0000 106.4220  90.0000 231 1

