# MOL2 file generated by ConQuest
# Please check atom types

@<TRIPOS>MOLECULE
PAQLUQ
   104   108     2
SMALL
NO_CHARGES
****
Generated from CSD

@<TRIPOS>ATOM
      1 O1        -2.0322   11.0125   11.4039 O.3       1 RES1    0.0000
      2 O2        -3.7289    9.9865   12.5388 O.2       1 RES1    0.0000
      3 O3        -1.4006   10.1728   15.8989 O.3       1 RES1    0.0000
      4 O4        -3.0491    7.6226   16.4500 O.3       1 RES1    0.0000
      5 O5        -1.3657    9.3332   19.4415 O.3       1 RES1    0.0000
      6 N1        -0.4786    9.8220   20.4285 N.2       1 RES1    0.0000
      7 N2        -0.0757   10.7984   18.4186 N.2       1 RES1    0.0000
      8 N3        -1.5542    9.6139   13.0453 N.am      1 RES1    0.0000
      9 H1        -0.7411    9.8534   12.8967 H         1 RES1    0.0000
     10 C1         4.2717   13.9042   22.3772 C.3       1 RES1    0.0000
     11 H2         5.1324   13.7408   21.9834 H         1 RES1    0.0000
     12 H3         4.2998   13.6828   23.3096 H         1 RES1    0.0000
     13 H4         4.0435   14.8310   22.2736 H         1 RES1    0.0000
     14 C2         3.2401   13.0548   21.6935 C.ar      1 RES1    0.0000
     15 C3         2.6063   12.0252   22.3653 C.ar      1 RES1    0.0000
     16 H5         2.8210   11.8606   23.2565 H         1 RES1    0.0000
     17 C4         1.6548   11.2327   21.7366 C.ar      1 RES1    0.0000
     18 H6         1.2524   10.5370   22.2050 H         1 RES1    0.0000
     19 C5         1.2985   11.4735   20.4157 C.ar      1 RES1    0.0000
     20 C6         1.9355   12.5067   19.7417 C.ar      1 RES1    0.0000
     21 H7         1.7148   12.6834   18.8567 H         1 RES1    0.0000
     22 C7         2.8895   13.2738   20.3701 C.ar      1 RES1    0.0000
     23 H8         3.3095   13.9550   19.8958 H         1 RES1    0.0000
     24 C8         0.2494   10.6834   19.7601 C.2       1 RES1    0.0000
     25 C9        -1.0541    9.9720   18.3026 C.2       1 RES1    0.0000
     26 C10       -1.8911    9.6078   17.1240 C.3       1 RES1    0.0000
     27 H9        -2.8284    9.8522   17.2716 H         1 RES1    0.0000
     28 C11       -1.7765    8.1838   16.6050 C.3       1 RES1    0.0000
     29 H10       -1.1548    7.6236   17.1155 H         1 RES1    0.0000
     30 C12       -3.0110    6.2298   16.0895 C.3       1 RES1    0.0000
     31 H11       -2.5919    6.1330   15.2308 H         1 RES1    0.0000
     32 H12       -3.9059    5.8850   16.0484 H         1 RES1    0.0000
     33 H13       -2.5091    5.7434   16.7473 H         1 RES1    0.0000
     34 C13       -1.1435    8.8456   15.3556 C.3       1 RES1    0.0000
     35 H14       -0.1826    8.6617   15.2995 H         1 RES1    0.0000
     36 C14       -1.8255    8.5975   14.0444 C.3       1 RES1    0.0000
     37 H15       -1.5396    7.7361   13.7018 H         1 RES1    0.0000
     38 H16       -2.7831    8.5516   14.1917 H         1 RES1    0.0000
     39 C15       -2.5391   10.1861   12.3516 C.2       1 RES1    0.0000
     40 C16       -2.9401   11.7747   10.5196 C.3       1 RES1    0.0000
     41 C17       -3.7141   12.7899   11.3393 C.3       1 RES1    0.0000
     42 H17       -4.3673   12.3349   11.8763 H         1 RES1    0.0000
     43 H18       -4.1564   13.4057   10.7499 H         1 RES1    0.0000
     44 H19       -3.1089   13.2690   11.9107 H         1 RES1    0.0000
     45 C18       -1.9714   12.4922    9.5897 C.3       1 RES1    0.0000
     46 H20       -1.3670   13.0270   10.1102 H         1 RES1    0.0000
     47 H21       -2.4637   13.0572    8.9900 H         1 RES1    0.0000
     48 H22       -1.4738   11.8449    9.0836 H         1 RES1    0.0000
     49 C19       -3.8152   10.8334    9.7279 C.3       1 RES1    0.0000
     50 H23       -3.2831   10.1099    9.3894 H         1 RES1    0.0000
     51 H24       -4.2133   11.3077    8.9931 H         1 RES1    0.0000
     52 H25       -4.5065   10.4850   10.2974 H         1 RES1    0.0000
     53 O6         4.2263   10.4910   35.5710 O.3       2 RES2    0.0000
     54 O7         5.8510   11.4953   34.3153 O.2       2 RES2    0.0000
     55 O8         3.1982   12.9024   30.3636 O.3       2 RES2    0.0000
     56 O9         5.0807   10.5406   31.2539 O.3       2 RES2    0.0000
     57 O10        3.3571   12.2200   27.2753 O.3       2 RES2    0.0000
     58 N4         2.4656   11.7203   26.2937 N.2       2 RES2    0.0000
     59 N5         2.1856   10.6290   28.2449 N.2       2 RES2    0.0000
     60 N6         3.6349   11.7760   33.8866 N.am      2 RES2    0.0000
     61 H26        2.8376   11.5957   34.1531 H         2 RES2    0.0000
     62 C20       -2.2577    7.5945   24.3421 C.3       2 RES2    0.0000
     63 H27       -3.1049    7.7518   24.7637 H         2 RES2    0.0000
     64 H28       -2.0284    6.6653   24.4205 H         2 RES2    0.0000
     65 H29       -2.3139    7.8317   23.4126 H         2 RES2    0.0000
     66 C21       -1.1940    8.4342   25.0149 C.ar      2 RES2    0.0000
     67 C22       -0.6084    9.5110   24.3527 C.ar      2 RES2    0.0000
     68 H30       -0.8639    9.7094   23.4812 H         2 RES2    0.0000
     69 C23        0.3468   10.2842   24.9784 C.ar      2 RES2    0.0000
     70 H31        0.7253   11.0028   24.5266 H         2 RES2    0.0000
     71 C24        0.7510   10.0022   26.2802 C.ar      2 RES2    0.0000
     72 C25        0.1772    8.9315   26.9399 C.ar      2 RES2    0.0000
     73 H32        0.4475    8.7185   27.8030 H         2 RES2    0.0000
     74 C26       -0.8041    8.1717   26.3108 C.ar      2 RES2    0.0000
     75 H33       -1.2051    7.4723   26.7733 H         2 RES2    0.0000
     76 C27        1.7998   10.7996   26.9243 C.2       2 RES2    0.0000
     77 C28        3.1156   11.5207   28.3875 C.2       2 RES2    0.0000
     78 C29        3.8831   11.8631   29.6063 C.3       2 RES2    0.0000
     79 H34        4.8057   12.1171   29.3944 H         2 RES2    0.0000
     80 C30        3.8200   10.8927   30.7690 C.3       2 RES2    0.0000
     81 H35        3.2460   10.1184   30.5927 H         2 RES2    0.0000
     82 C31        5.2846    9.2582   31.5569 C.3       2 RES2    0.0000
     83 H36        4.6681    8.9896   32.2434 H         2 RES2    0.0000
     84 H37        6.1839    9.1432   31.8720 H         2 RES2    0.0000
     85 H38        5.1487    8.7185   30.7737 H         2 RES2    0.0000
     86 C32        3.0986   12.0167   31.5335 C.3       2 RES2    0.0000
     87 H39        2.1691   11.7820   31.7347 H         2 RES2    0.0000
     88 C33        3.7987   12.6193   32.7277 C.3       2 RES2    0.0000
     89 H40        4.7430   12.7233   32.5336 H         2 RES2    0.0000
     90 H41        3.4305   13.4989   32.9111 H         2 RES2    0.0000
     91 C34        4.6702   11.2605   34.5684 C.2       2 RES2    0.0000
     92 C35        5.1621    9.7312   36.4216 C.3       2 RES2    0.0000
     93 C36        5.9194    8.7185   35.5782 C.3       2 RES2    0.0000
     94 H42        5.2981    8.2164   35.0455 H         2 RES2    0.0000
     95 H43        6.4042    8.1221   36.1533 H         2 RES2    0.0000
     96 H44        6.5350    9.1783   35.0018 H         2 RES2    0.0000
     97 C37        4.2402    9.0343   37.3968 C.3       2 RES2    0.0000
     98 H45        3.7720    9.6901   37.9194 H         2 RES2    0.0000
     99 H46        4.7560    8.4717   37.9787 H         2 RES2    0.0000
    100 H47        3.6073    8.4995   36.9115 H         2 RES2    0.0000
    101 C38        6.0726   10.6846   37.1680 C.3       2 RES2    0.0000
    102 H48        6.7488   11.0149   36.5714 H         2 RES2    0.0000
    103 H49        6.4891   10.2224   37.9007 H         2 RES2    0.0000
    104 H50        5.5577   11.4215   37.5075 H         2 RES2    0.0000
@<TRIPOS>BOND
     1    1   39 1
     2    2   39 2
     3    3   26 1
     4    4   28 1
     5    5    6 1
     6    6   24 2
     7    7   24 1
     8    8    9 1
     9   10   11 1
    10   12   10 1
    11   13   10 1
    12   14   10 1
    13   15   14 ar
    14   16   15 1
    15   17   15 ar
    16   18   17 1
    17   19   17 ar
    18   20   19 ar
    19   21   20 1
    20   22   14 ar
    21   23   22 1
    22   24   19 1
    23   25    5 1
    24   26   25 1
    25   27   26 1
    26   28   26 1
    27   29   28 1
    28   30    4 1
    29   31   30 1
    30   32   30 1
    31   33   30 1
    32   34    3 1
    33   35   34 1
    34   36    8 1
    35   37   36 1
    36   38   36 1
    37   39    8 1
    38   40    1 1
    39   41   40 1
    40   42   41 1
    41   43   41 1
    42   44   41 1
    43   45   40 1
    44   46   45 1
    45   47   45 1
    46   48   45 1
    47   49   40 1
    48   50   49 1
    49   51   49 1
    50   52   49 1
    51   53   91 1
    52   54   91 2
    53   55   78 1
    54   56   80 1
    55   57   58 1
    56   58   76 2
    57   59   76 1
    58   60   61 1
    59   62   63 1
    60   64   62 1
    61   65   62 1
    62   66   62 1
    63   67   66 ar
    64   68   67 1
    65   69   67 ar
    66   70   69 1
    67   71   69 ar
    68   72   71 ar
    69   73   72 1
    70   74   66 ar
    71   75   74 1
    72   76   71 1
    73   77   57 1
    74   78   77 1
    75   79   78 1
    76   80   78 1
    77   81   80 1
    78   82   56 1
    79   83   82 1
    80   84   82 1
    81   85   82 1
    82   86   55 1
    83   87   86 1
    84   88   60 1
    85   89   88 1
    86   90   88 1
    87   91   60 1
    88   92   53 1
    89   93   92 1
    90   94   93 1
    91   95   93 1
    92   96   93 1
    93   97   92 1
    94   98   97 1
    95   99   97 1
    96  100   97 1
    97  101   92 1
    98  102  101 1
    99  103  101 1
   100  104  101 1
   101    7   25 2
   102   20   22 ar
   103   28   34 1
   104   34   36 1
   105   59   77 2
   106   72   74 ar
   107   80   86 1
   108   86   88 1
@<TRIPOS>SUBSTRUCTURE
     1 RES1 1
     2 RES2 53

@<TRIPOS>CRYSIN
   5.0707   12.0990   31.2670  90.0000  93.6300  90.0000   4 1

