# MOL2 file generated by ConQuest
# Please check atom types

@<TRIPOS>MOLECULE
PAQWOV
    36    37     1
SMALL
NO_CHARGES
****
Generated from CSD

@<TRIPOS>ATOM
      1 O1        -0.5775    3.5975    8.3537 O.2       1 RES1    0.0000
      2 N1         0.2073    2.6709    7.9058 N.3       1 RES1    0.0000
      3 N2         1.9381    1.3795    7.6016 N.pl3     1 RES1    0.0000
      4 C1         2.0184    2.8704    9.6186 C.ar      1 RES1    0.0000
      5 O2         3.0357    0.7560    7.7884 O.2       1 RES1    0.0000
      6 C2         1.3957    2.3150    8.4209 C.2       1 RES1    0.0000
      7 C3         1.1820    1.2726    6.3104 C.3       1 RES1    0.0000
      8 C4         3.4087    2.9479    9.6980 C.ar      1 RES1    0.0000
      9 C5         4.0231    3.5185   10.8152 C.ar      1 RES1    0.0000
     10 N3         5.4066    3.5349   10.9219 N.3       1 RES1    0.0000
     11 C6         3.2196    4.0099   11.8416 C.ar      1 RES1    0.0000
     12 H1         3.6127    4.4105   12.5830 H         1 RES1    0.0000
     13 C7         1.2371    3.3425   10.6717 C.ar      1 RES1    0.0000
     14 C8        -0.2062    1.7717    6.7731 C.3       1 RES1    0.0000
     15 C9         1.8529    3.9088   11.7685 C.ar      1 RES1    0.0000
     16 C10       -0.9767    2.5679    5.7328 C.3       1 RES1    0.0000
     17 C11        1.2330   -0.1506    5.7945 C.3       1 RES1    0.0000
     18 C12        1.8916    2.2165    5.3422 C.3       1 RES1    0.0000
     19 H2         1.8247    3.1166    5.6675 H         1 RES1    0.0000
     20 H3         1.4782    2.1566    4.4777 H         1 RES1    0.0000
     21 H4         2.8158    1.9677    5.2733 H         1 RES1    0.0000
     22 C13       -1.0790    0.6796    7.3857 C.3       1 RES1    0.0000
     23 H5         0.2884    3.3093   10.6002 H         1 RES1    0.0000
     24 H6         3.9562    2.6395    8.9625 H         1 RES1    0.0000
     25 H7         1.2828    4.2140   12.5401 H         1 RES1    0.0000
     26 H8         5.9217    3.3857   10.1372 H         1 RES1    0.0000
     27 H9         5.7154    4.1815   11.4781 H         1 RES1    0.0000
     28 H10        0.8606   -0.7310    6.4363 H         1 RES1    0.0000
     29 H11       -1.8609    2.7940    6.1055 H         1 RES1    0.0000
     30 H12       -1.3797    0.0229    6.6687 H         1 RES1    0.0000
     31 H13       -0.4384    3.4029    5.4351 H         1 RES1    0.0000
     32 H14        2.2116   -0.3893    5.6675 H         1 RES1    0.0000
     33 H15       -1.1015    1.9887    4.9971 H         1 RES1    0.0000
     34 H16       -0.5860    0.1622    8.0722 H         1 RES1    0.0000
     35 H17        0.7691   -0.1546    5.0060 H         1 RES1    0.0000
     36 H18       -1.7639    1.0936    7.8666 H         1 RES1    0.0000
@<TRIPOS>BOND
     1    1    2 1
     2    2    6 1
     3    3    5 1
     4    4    6 1
     5    6    3 2
     6    7    3 1
     7    8    4 ar
     8    9    8 ar
     9   10    9 1
    10   11    9 ar
    11   12   11 1
    12   13    4 ar
    13   14    2 1
    14   15   11 ar
    15   16   14 1
    16   17    7 1
    17   18    7 1
    18   19   18 1
    19   20   18 1
    20   21   18 1
    21   22   14 1
    22   23   13 1
    23   24    8 1
    24   25   15 1
    25   26   10 1
    26   27   10 1
    27   28   17 1
    28   29   16 1
    29   30   22 1
    30   31   16 1
    31   32   17 1
    32   33   16 1
    33   34   22 1
    34   35   17 1
    35   36   22 1
    36    7   14 1
    37   13   15 ar
@<TRIPOS>SUBSTRUCTURE
     1 RES1 1

@<TRIPOS>CRYSIN
   7.7380   19.0850    9.1480  90.0000 102.2620  90.0000  14 1

