# MOL2 file generated by ConQuest
# Please check atom types

@<TRIPOS>MOLECULE
PAQWIP
    51    52     1
SMALL
NO_CHARGES
****
Generated from CSD

@<TRIPOS>ATOM
      1 N1         0.1235    2.8703   14.3912 N.am      1 RES1    0.0000
      2 C1         0.6841    1.6148   14.6530 C.ar      1 RES1    0.0000
      3 N2         4.6712   -0.2691   16.6002 N.pl3     1 RES1    0.0000
      4 C2         2.3929    0.3851   15.8284 C.ar      1 RES1    0.0000
      5 C3         1.7479    1.5735   15.5484 C.ar      1 RES1    0.0000
      6 O1        -1.2088    4.4584   13.6786 O.3       1 RES1    0.0000
      7 C4         3.5334    0.4122   16.7436 C.2       1 RES1    0.0000
      8 O2        -1.7364    2.3050   13.2299 O.2       1 RES1    0.0000
      9 N3         3.6086    1.1743   17.8470 N.3       1 RES1    0.0000
     10 O3         4.9349   -1.0812   15.6592 O.2       1 RES1    0.0000
     11 C5         0.2562    0.4334   14.0744 C.ar      1 RES1    0.0000
     12 H1        -0.4636    0.4381   13.4848 H         1 RES1    0.0000
     13 C6         0.8952   -0.7444   14.3701 C.ar      1 RES1    0.0000
     14 C7         1.9741   -0.7832   15.2294 C.ar      1 RES1    0.0000
     15 C8        -1.0247    3.1271   13.7164 C.2       1 RES1    0.0000
     16 O4         2.6939    1.9316   18.3063 O.2       1 RES1    0.0000
     17 C9        -2.3333    5.0375   12.9028 C.3       1 RES1    0.0000
     18 C10        5.7011    0.1720   17.5909 C.3       1 RES1    0.0000
     19 C11        4.8908    0.9199   18.5609 C.3       1 RES1    0.0000
     20 C12       -2.1036    6.5062   13.0992 C.3       1 RES1    0.0000
     21 H2        -2.6410    6.9997   12.4730 H         1 RES1    0.0000
     22 H3        -1.1764    6.7076   12.9519 H         1 RES1    0.0000
     23 H4        -2.3486    6.7511   13.9931 H         1 RES1    0.0000
     24 C13        6.6881   -0.8044   17.8291 C.3       1 RES1    0.0000
     25 H5         7.2046   -0.5571   18.6002 H         1 RES1    0.0000
     26 H6         7.2645   -0.8680   17.0629 H         1 RES1    0.0000
     27 H7         6.2677   -1.6536   17.9838 H         1 RES1    0.0000
     28 C14       -3.6364    4.5734   13.4701 C.3       1 RES1    0.0000
     29 H8        -3.8285    3.6889   13.1484 H         1 RES1    0.0000
     30 H9        -4.3353    5.1717   13.1950 H         1 RES1    0.0000
     31 H10       -3.5821    4.5604   14.4278 H         1 RES1    0.0000
     32 C15        5.3140    2.0505   19.3296 C.3       1 RES1    0.0000
     33 H11        6.1855    1.8821   19.6931 H         1 RES1    0.0000
     34 H12        4.6917    2.2025   20.0442 H         1 RES1    0.0000
     35 H13        5.3474    2.8255   18.7648 H         1 RES1    0.0000
     36 C16        6.5433    1.3109   16.7215 C.3       1 RES1    0.0000
     37 H14        7.4733    1.2697   16.9573 H         1 RES1    0.0000
     38 H15        6.2009    2.1848   16.9229 H         1 RES1    0.0000
     39 H16        6.4417    1.1366   15.7834 H         1 RES1    0.0000
     40 C17       -2.1816    4.6076   11.4440 C.3       1 RES1    0.0000
     41 H17       -2.5477    3.7277   11.3286 H         1 RES1    0.0000
     42 H18       -1.2516    4.6005   11.2058 H         1 RES1    0.0000
     43 H19       -2.6521    5.2247   10.8767 H         1 RES1    0.0000
     44 C18        4.5247   -0.3404   19.6047 C.3       1 RES1    0.0000
     45 H20        3.6531   -0.6843   19.3959 H         1 RES1    0.0000
     46 H21        4.5344   -0.0200   20.5084 H         1 RES1    0.0000
     47 H22        5.1762   -1.0388   19.5040 H         1 RES1    0.0000
     48 H23        1.9533    2.3203   15.9529 H         1 RES1    0.0000
     49 H24        2.4364   -1.6136   15.4052 H         1 RES1    0.0000
     50 H25        0.5430    3.4863   14.5948 H         1 RES1    0.0000
     51 H26        0.5569   -1.5547   13.9981 H         1 RES1    0.0000
@<TRIPOS>BOND
     1    1    2 1
     2    2    5 ar
     3    3    7 2
     4    4    5 ar
     5    5   48 1
     6    6   15 1
     7    7    4 1
     8    8   15 2
     9    9    7 1
    10   10    3 1
    11   11    2 ar
    12   12   11 1
    13   13   11 ar
    14   14    4 ar
    15   15    1 1
    16   16    9 1
    17   17    6 1
    18   18    3 1
    19   19    9 1
    20   20   17 1
    21   21   20 1
    22   22   20 1
    23   23   20 1
    24   24   18 1
    25   25   24 1
    26   26   24 1
    27   27   24 1
    28   28   17 1
    29   29   28 1
    30   30   28 1
    31   31   28 1
    32   32   19 1
    33   33   32 1
    34   34   32 1
    35   35   32 1
    36   36   18 1
    37   37   36 1
    38   38   36 1
    39   39   36 1
    40   40   17 1
    41   41   40 1
    42   42   40 1
    43   43   40 1
    44   44   19 1
    45   45   44 1
    46   46   44 1
    47   47   44 1
    48   49   14 1
    49   50    1 1
    50   51   13 1
    51   13   14 ar
    52   18   19 1
@<TRIPOS>SUBSTRUCTURE
     1 RES1 1

@<TRIPOS>CRYSIN
  13.9220   11.7780   24.5580  90.0000  90.0000  90.0000  61 1

