# MOL2 file generated by ConQuest
# Please check atom types

@<TRIPOS>MOLECULE
PAQZEN
    78    82     2
SMALL
NO_CHARGES
****
Generated from CSD

@<TRIPOS>ATOM
      1 C1         1.2504    3.2064   14.2493 C.3       1 RES1    0.0000
      2 H1         1.7152    2.3526   14.3884 H         1 RES1    0.0000
      3 C2         0.2071    3.3728   15.3920 C.ar      1 RES1    0.0000
      4 C3        -0.8239    4.2048   15.3396 C.ar      1 RES1    0.0000
      5 H2        -0.9974    4.7123   14.5800 H         1 RES1    0.0000
      6 C4        -1.6255    4.2880   16.4527 C.ar      1 RES1    0.0000
      7 H3        -2.2997    4.9261   16.4709 H         1 RES1    0.0000
      8 C5        -1.4749    3.4816   17.5088 C.ar      1 RES1    0.0000
      9 C6        -0.4356    2.5920   17.6092 C.ar      1 RES1    0.0000
     10 H4        -0.3076    2.0634   18.3642 H         1 RES1    0.0000
     11 C7         0.4518    2.5344   16.4641 C.ar      1 RES1    0.0000
     12 H5         1.1687    1.9405   16.4481 H         1 RES1    0.0000
     13 C8         2.2829    4.3392   14.3975 C.2       1 RES1    0.0000
     14 C9         2.2308    5.3952   15.2392 C.2       1 RES1    0.0000
     15 H6         1.5730    5.5680   15.8756 H         1 RES1    0.0000
     16 C10        3.3598    6.1888   14.9678 C.2       1 RES1    0.0000
     17 H7         3.5992    6.9869   15.3852 H         1 RES1    0.0000
     18 C11        4.0412    5.5488   13.9733 C.2       1 RES1    0.0000
     19 H8         4.8209    5.8771   13.5855 H         1 RES1    0.0000
     20 C12        0.5813    3.1616   12.8556 C.2       1 RES1    0.0000
     21 C13        0.4827    4.1216   11.9432 C.2       1 RES1    0.0000
     22 H9         0.8695    4.9664   11.9683 H         1 RES1    0.0000
     23 C14       -0.3027    3.5712   10.9487 C.2       1 RES1    0.0000
     24 H10       -0.4890    4.0096   10.1481 H         1 RES1    0.0000
     25 C15       -0.7387    2.4704   11.2224 C.2       1 RES1    0.0000
     26 H11       -1.3170    1.9488   10.7138 H         1 RES1    0.0000
     27 C16        3.8605    3.4176   12.6731 C.3       1 RES1    0.0000
     28 H12        3.2053    2.7200   12.6184 H         1 RES1    0.0000
     29 H13        4.7030    3.0490   12.9446 H         1 RES1    0.0000
     30 H14        3.9555    3.8381   11.8155 H         1 RES1    0.0000
     31 C17       -0.5088    0.9024   13.2251 C.3       1 RES1    0.0000
     32 H15       -1.0915    0.3648   12.6822 H         1 RES1    0.0000
     33 H16       -0.9508    1.1226   14.0463 H         1 RES1    0.0000
     34 H17        0.2939    0.4102   13.4144 H         1 RES1    0.0000
     35 C18        3.1359    2.4448   19.9517 C.3       2 RES2    0.0000
     36 H18        2.6323    3.2826   19.9221 H         2 RES2    0.0000
     37 C19        4.1348    2.4064   18.7633 C.ar      2 RES2    0.0000
     38 C20        4.0334    3.1872   17.6456 C.ar      2 RES2    0.0000
     39 H19        3.3365    3.8022   17.5886 H         2 RES2    0.0000
     40 C21        4.9172    3.1040   16.6238 C.ar      2 RES2    0.0000
     41 H20        4.8757    3.6896   15.9030 H         2 RES2    0.0000
     42 C22        5.8760    2.0992   16.6876 C.ar      2 RES2    0.0000
     43 C23        6.1177    1.3120   17.7985 C.ar      2 RES2    0.0000
     44 H21        6.8463    0.7360   17.8532 H         2 RES2    0.0000
     45 C24        5.1809    1.4464   18.8386 C.ar      2 RES2    0.0000
     46 H22        5.2454    0.8960   19.5868 H         2 RES2    0.0000
     47 C25        3.8510    2.3488   21.2542 C.2       2 RES2    0.0000
     48 C26        3.8358    1.3824   22.2509 C.2       2 RES2    0.0000
     49 H23        3.3698    0.5766   22.2281 H         2 RES2    0.0000
     50 C27        4.6620    1.8432   23.3162 C.2       2 RES2    0.0000
     51 H24        4.8588    1.4042   24.1122 H         2 RES2    0.0000
     52 C28        5.1383    3.1744   22.8896 C.2       2 RES2    0.0000
     53 H25        5.7096    3.7210   23.3777 H         2 RES2    0.0000
     54 C29        2.1855    1.2992   19.7966 C.2       2 RES2    0.0000
     55 C30        2.1708    0.1792   19.0302 C.2       2 RES2    0.0000
     56 H26        2.8266   -0.0435   18.4098 H         2 RES2    0.0000
     57 C31        1.0083   -0.6144   19.3016 C.2       2 RES2    0.0000
     58 H27        0.7647   -1.4278   18.9184 H         2 RES2    0.0000
     59 C32        0.3260    0.1088   20.2779 C.2       2 RES2    0.0000
     60 H28       -0.4932   -0.1235   20.6520 H         2 RES2    0.0000
     61 C33        4.9095    4.6336   20.9622 C.3       2 RES2    0.0000
     62 H29        4.4037    4.6278   20.1456 H         2 RES2    0.0000
     63 H30        5.8467    4.6662   20.7592 H         2 RES2    0.0000
     64 H31        4.6685    5.4067   21.4800 H         2 RES2    0.0000
     65 C34        0.5657    2.2656   21.5735 C.3       2 RES2    0.0000
     66 H32       -0.2354    1.9642   22.0069 H         2 RES2    0.0000
     67 H33        0.3856    3.0816   21.0990 H         2 RES2    0.0000
     68 H34        1.2464    2.4243   22.2327 H         2 RES2    0.0000
     69 N1         3.4450    4.3712   13.6129 N.3       1 RES1    0.0000
     70 N2        -0.1671    2.1376   12.5020 N.3       1 RES1    0.0000
     71 N3        -2.4048    3.7312   18.6972 N.pl3     1 RES1    0.0000
     72 N4         4.6267    3.4688   21.6989 N.3       2 RES2    0.0000
     73 N5         1.0480    1.2032   20.5881 N.3       2 RES2    0.0000
     74 N6         6.7665    2.0160   15.5198 N.pl3     2 RES2    0.0000
     75 O1        -3.2314    4.5568   18.6766 O.2       1 RES1    0.0000
     76 O2        -2.2736    2.8864   19.6141 O.2       1 RES1    0.0000
     77 O3         6.6633    2.7648   14.6028 O.2       2 RES2    0.0000
     78 O4         7.5669    1.1008   15.5768 O.2       2 RES2    0.0000
@<TRIPOS>BOND
     1    1    2 1
     2    3    1 1
     3    4    3 ar
     4    5    4 1
     5    6    4 ar
     6    7    6 1
     7    8    6 ar
     8    9    8 ar
     9   10    9 1
    10   11    3 ar
    11   12   11 1
    12   13    1 1
    13   14   13 2
    14   15   14 1
    15   16   14 1
    16   17   16 1
    17   18   16 2
    18   19   18 1
    19   20    1 1
    20   21   20 2
    21   22   21 1
    22   23   21 1
    23   24   23 1
    24   25   23 2
    25   26   25 1
    26   27   28 1
    27   29   27 1
    28   30   27 1
    29   31   32 1
    30   33   31 1
    31   34   31 1
    32   35   36 1
    33   37   35 1
    34   38   37 ar
    35   39   38 1
    36   40   38 ar
    37   41   40 1
    38   42   40 ar
    39   43   42 ar
    40   44   43 1
    41   45   37 ar
    42   46   45 1
    43   47   35 1
    44   48   47 2
    45   49   48 1
    46   50   48 1
    47   51   50 1
    48   52   50 2
    49   53   52 1
    50   54   35 1
    51   55   54 2
    52   56   55 1
    53   57   55 1
    54   58   57 1
    55   59   57 2
    56   60   59 1
    57   61   62 1
    58   63   61 1
    59   64   61 1
    60   65   66 1
    61   67   65 1
    62   68   65 1
    63   69   13 1
    64   70   20 1
    65   71    8 1
    66   72   47 1
    67   73   54 1
    68   74   42 1
    69   75   71 2
    70   76   71 2
    71   77   74 2
    72   78   74 2
    73    9   11 ar
    74   18   69 1
    75   25   70 1
    76   27   69 1
    77   31   70 1
    78   43   45 ar
    79   52   72 1
    80   59   73 1
    81   61   72 1
    82   65   73 1
@<TRIPOS>SUBSTRUCTURE
     1 RES1 1
     2 RES2 35

@<TRIPOS>CRYSIN
  10.7850    6.4000   23.2020  90.0000 100.5500  90.0000   4 1

