# MOL2 file generated by ConQuest
# Please check atom types

@<TRIPOS>MOLECULE
PARDOC
    55    59     1
SMALL
NO_CHARGES
****
Generated from CSD

@<TRIPOS>ATOM
      1 O1         7.6265    8.9279    5.3803 O.2       1 RES1    0.0000
      2 O2         7.4220    8.0331    2.4206 O.3       1 RES1    0.0000
      3 O3         3.1911    2.8464    7.3094 O.2       1 RES1    0.0000
      4 O4         1.9156    2.3942    5.6541 O.2       1 RES1    0.0000
      5 O5         3.4945    8.7807    1.9324 O.2       1 RES1    0.0000
      6 O6         3.9173   10.3096    3.5206 O.3       1 RES1    0.0000
      7 N1         7.9809   10.7903    4.0794 N.am      1 RES1    0.0000
      8 H1         8.3948   11.2630    4.6989 H         1 RES1    0.0000
      9 N2         6.9057    6.7730    2.9967 N.3       1 RES1    0.0000
     10 N3         2.8147    3.0322    6.1703 N.pl3     1 RES1    0.0000
     11 C1         6.7665   10.2938    2.1932 C.ar      1 RES1    0.0000
     12 C2         6.2579   10.5230    0.9259 C.ar      1 RES1    0.0000
     13 H2         5.7233    9.8686    0.4920 H         1 RES1    0.0000
     14 C3         6.5467   11.7333    0.3021 C.ar      1 RES1    0.0000
     15 H3         6.1939   11.9159   -0.5608 H         1 RES1    0.0000
     16 C4         7.3452   12.6721    0.9315 C.ar      1 RES1    0.0000
     17 H4         7.5383   13.4891    0.4874 H         1 RES1    0.0000
     18 C5         7.8717   12.4482    2.1992 C.ar      1 RES1    0.0000
     19 H5         8.4232   13.0948    2.6258 H         1 RES1    0.0000
     20 C6         7.5638   11.2518    2.8137 C.ar      1 RES1    0.0000
     21 C7         7.4839    9.5577    4.3455 C.2       1 RES1    0.0000
     22 C8         6.6986    9.0831    3.0859 C.3       1 RES1    0.0000
     23 C9         7.4511    5.7322    2.1786 C.ar      1 RES1    0.0000
     24 C10        6.6654    4.7459    1.5803 C.ar      1 RES1    0.0000
     25 H6         5.7200    4.7720    1.6709 H         1 RES1    0.0000
     26 C11        7.2654    3.7260    0.8519 C.ar      1 RES1    0.0000
     27 H7         6.7245    3.0503    0.4606 H         1 RES1    0.0000
     28 C12        8.6347    3.6794    0.6877 C.ar      1 RES1    0.0000
     29 H8         9.0385    2.9841    0.1819 H         1 RES1    0.0000
     30 C13        9.4141    4.6704    1.2764 C.ar      1 RES1    0.0000
     31 H9        10.3566    4.6488    1.1660 H         1 RES1    0.0000
     32 C14        8.8403    5.6832    2.0183 C.ar      1 RES1    0.0000
     33 H10        9.3886    6.3473    2.4194 H         1 RES1    0.0000
     34 C15        5.4449    6.9977    2.9570 C.3       1 RES1    0.0000
     35 H11        5.1133    6.9352    2.0160 H         1 RES1    0.0000
     36 C16        4.7232    5.9950    3.8303 C.ar      1 RES1    0.0000
     37 C17        5.2116    5.6669    5.0930 C.ar      1 RES1    0.0000
     38 H12        5.9782    6.1159    5.4300 H         1 RES1    0.0000
     39 C18        4.5961    4.6954    5.8644 C.ar      1 RES1    0.0000
     40 H13        4.9409    4.4586    6.7172 H         1 RES1    0.0000
     41 C19        3.4669    4.0792    5.3597 C.ar      1 RES1    0.0000
     42 C20        2.9244    4.4146    4.1363 C.ar      1 RES1    0.0000
     43 H14        2.1310    3.9942    3.8256 H         1 RES1    0.0000
     44 C21        3.5616    5.3783    3.3717 C.ar      1 RES1    0.0000
     45 H15        3.2035    5.6210    2.5255 H         1 RES1    0.0000
     46 C22        5.3266    8.4459    3.4651 C.3       1 RES1    0.0000
     47 H16        5.2374    8.4350    4.4610 H         1 RES1    0.0000
     48 C23        4.1347    9.1708    2.8710 C.2       1 RES1    0.0000
     49 C24        2.8058   11.1206    3.0386 C.3       1 RES1    0.0000
     50 H17        1.9500   10.6381    3.1621 H         1 RES1    0.0000
     51 H18        2.9185   11.3202    2.0754 H         1 RES1    0.0000
     52 C25        2.8085   12.3858    3.8349 C.3       1 RES1    0.0000
     53 H19        2.0407   12.9367    3.5761 H         1 RES1    0.0000
     54 H20        3.6382   12.8789    3.6624 H         1 RES1    0.0000
     55 H21        2.7502   12.1715    4.7899 H         1 RES1    0.0000
@<TRIPOS>BOND
     1    1   21 2
     2    2    9 1
     3    3   10 2
     4    4   10 2
     5    5   48 2
     6    6   48 1
     7    7    8 1
     8    9   23 1
     9   10   41 1
    10   11   12 ar
    11   12   13 1
    12   14   12 ar
    13   15   14 1
    14   16   14 ar
    15   17   16 1
    16   18   16 ar
    17   19   18 1
    18   20    7 1
    19   21    7 1
    20   22    2 1
    21   23   24 ar
    22   24   25 1
    23   26   24 ar
    24   27   26 1
    25   28   26 ar
    26   29   28 1
    27   30   28 ar
    28   31   30 1
    29   32   23 ar
    30   33   32 1
    31   34    9 1
    32   35   34 1
    33   36   34 1
    34   37   36 ar
    35   38   37 1
    36   39   37 ar
    37   40   39 1
    38   41   39 ar
    39   42   41 ar
    40   43   42 1
    41   44   36 ar
    42   45   44 1
    43   46   22 1
    44   47   46 1
    45   48   46 1
    46   49    6 1
    47   50   49 1
    48   51   49 1
    49   52   49 1
    50   53   52 1
    51   54   52 1
    52   55   52 1
    53   11   20 ar
    54   11   22 1
    55   18   20 ar
    56   21   22 1
    57   30   32 ar
    58   34   46 1
    59   42   44 ar
@<TRIPOS>SUBSTRUCTURE
     1 RES1 1

@<TRIPOS>CRYSIN
   8.8355   10.9983   11.7112  87.3450  84.7250  71.0290   2 1

