# MOL2 file generated by ConQuest
# Please check atom types

@<TRIPOS>MOLECULE
PARKUR
    38    39     1
SMALL
NO_CHARGES
****
Generated from CSD

@<TRIPOS>ATOM
      1 O1        -2.1871   -1.4718   19.9896 O.2       1 RES1    0.0000
      2 N1        -2.5368   -0.3867   19.5251 N.pl3     1 RES1    0.0000
      3 O2        -3.5902    0.1836   19.8285 O.2       1 RES1    0.0000
      4 N2         6.0014    5.4324   11.1351 N.3       1 RES1    0.0000
      5 C1         1.7103    2.6602   15.0984 C.1       1 RES1    0.0000
      6 C2         5.1315    4.8803   11.9612 C.1       1 RES1    0.0000
      7 C3         2.6198    3.2513   14.2608 C.1       1 RES1    0.0000
      8 C4         3.4444    3.7727   13.5446 C.1       1 RES1    0.0000
      9 C5         0.0341    1.5154   16.7752 C.ar      1 RES1    0.0000
     10 C6         0.9236    2.1519   15.8441 C.1       1 RES1    0.0000
     11 C7        -0.4145   -0.2912   18.3038 C.ar      1 RES1    0.0000
     12 H1        -0.1497   -1.0932   18.7379 H         1 RES1    0.0000
     13 C8         4.3507    4.3671   12.7245 C.1       1 RES1    0.0000
     14 C9        -1.2251    2.0686   17.0502 C.ar      1 RES1    0.0000
     15 H2        -1.4978    2.8690   16.6176 H         1 RES1    0.0000
     16 C10       -2.0702    1.4467   17.9544 C.ar      1 RES1    0.0000
     17 H3        -2.9229    1.8158   18.1530 H         1 RES1    0.0000
     18 C11        5.6979    6.4969    8.9199 C.ar      1 RES1    0.0000
     19 C12       -1.6507    0.2806   18.5597 C.ar      1 RES1    0.0000
     20 C13        0.4221    0.3331   17.4020 C.ar      1 RES1    0.0000
     21 H4         1.2707   -0.0465   17.2058 H         1 RES1    0.0000
     22 C14        7.3211    4.8281   10.9317 C.3       1 RES1    0.0000
     23 H5         7.3971    4.0183   11.4780 H         1 RES1    0.0000
     24 H6         8.0165    5.4659   11.1944 H         1 RES1    0.0000
     25 H7         7.4321    4.5956    9.9860 H         1 RES1    0.0000
     26 C15        5.6821    6.6796   10.4158 C.3       1 RES1    0.0000
     27 H8         6.3405    7.3758   10.6655 H         1 RES1    0.0000
     28 H9         4.7858    6.9943   10.6943 H         1 RES1    0.0000
     29 C16        6.8054    6.8710    8.1861 C.ar      1 RES1    0.0000
     30 H10        7.5542    7.2537    8.6285 H         1 RES1    0.0000
     31 C17        6.8378    6.6960    6.8108 C.ar      1 RES1    0.0000
     32 H11        7.6108    6.9502    6.3208 H         1 RES1    0.0000
     33 C18        4.6507    5.7702    6.8714 C.ar      1 RES1    0.0000
     34 H12        3.9069    5.3858    6.4233 H         1 RES1    0.0000
     35 C19        5.7618    6.1590    6.1533 C.ar      1 RES1    0.0000
     36 H13        5.7809    6.0541    5.2085 H         1 RES1    0.0000
     37 C20        4.6166    5.9412    8.2529 C.ar      1 RES1    0.0000
     38 H14        3.8472    5.6739    8.7423 H         1 RES1    0.0000
@<TRIPOS>BOND
     1    1    2 2
     2    2    3 2
     3    4    6 1
     4    5    7 1
     5    6   13 3
     6    7    8 3
     7    8   13 1
     8    9   10 1
     9   10    5 3
    10   11   12 1
    11   14    9 ar
    12   15   14 1
    13   16   14 ar
    14   17   16 1
    15   18   26 1
    16   19    2 1
    17   20    9 ar
    18   21   20 1
    19   22    4 1
    20   23   22 1
    21   24   22 1
    22   25   22 1
    23   26    4 1
    24   27   26 1
    25   28   26 1
    26   29   18 ar
    27   30   29 1
    28   31   29 ar
    29   32   31 1
    30   33   34 1
    31   35   31 ar
    32   36   35 1
    33   37   18 ar
    34   38   37 1
    35   11   19 ar
    36   11   20 ar
    37   16   19 ar
    38   33   35 ar
    39   33   37 ar
@<TRIPOS>SUBSTRUCTURE
     1 RES1 1

@<TRIPOS>CRYSIN
   6.0498    8.2177   16.1710  88.7900  82.3300  81.9400   2 1

