# MOL2 file generated by ConQuest
# Please check atom types

@<TRIPOS>MOLECULE
PARLIG
    40    40     1
SMALL
NO_CHARGES
****
Generated from CSD

@<TRIPOS>ATOM
      1 N1        -0.1461   -2.4442    6.3671 N.3       1 RES1    0.0000
      2 O1         5.6286    8.5467   12.8018 O.2       1 RES1    0.0000
      3 O2         4.2485    9.7034   11.5877 O.2       1 RES1    0.0000
      4 N2         4.7537    8.6390   11.9416 N.pl3     1 RES1    0.0000
      5 C1         0.3465   -1.3364    6.8916 C.1       1 RES1    0.0000
      6 C2         2.8453    3.8873    9.5359 C.1       1 RES1    0.0000
      7 C3         0.7871   -0.3038    7.3621 C.1       1 RES1    0.0000
      8 C4         3.3554    5.0867   10.1280 C.ar      1 RES1    0.0000
      9 C5         1.3180    0.8118    7.9251 C.1       1 RES1    0.0000
     10 C6         1.8117    1.7969    8.4427 C.1       1 RES1    0.0000
     11 C7         3.2740    7.4916   10.3510 C.ar      1 RES1    0.0000
     12 H1         2.9078    8.3350   10.1105 H         1 RES1    0.0000
     13 C8         0.6476   -3.1517    5.3243 C.3       1 RES1    0.0000
     14 H2         0.1525   -3.9873    5.0836 H         1 RES1    0.0000
     15 C9         2.3716    2.9012    9.0232 C.1       1 RES1    0.0000
     16 C10        4.8594    6.1989   11.6633 C.ar      1 RES1    0.0000
     17 H3         5.5591    6.1715   12.3064 H         1 RES1    0.0000
     18 C11        4.2852    7.3995   11.2926 C.ar      1 RES1    0.0000
     19 C12        2.8105    6.3258    9.7666 C.ar      1 RES1    0.0000
     20 H4         2.1184    6.3664    9.1169 H         1 RES1    0.0000
     21 C13        4.3894    5.0352   11.0746 C.ar      1 RES1    0.0000
     22 H5         4.7697    4.1977   11.3128 H         1 RES1    0.0000
     23 C14       -0.7980   -3.5754    8.4897 C.3       1 RES1    0.0000
     24 H6        -0.0033   -4.1459    8.4319 H         1 RES1    0.0000
     25 H7        -1.5234   -4.0692    8.9241 H         1 RES1    0.0000
     26 H8        -0.5873   -2.7749    9.0149 H         1 RES1    0.0000
     27 C15        0.7513   -2.3072    4.0687 C.3       1 RES1    0.0000
     28 H9        -0.1478   -2.0781    3.7543 H         1 RES1    0.0000
     29 H10        1.2231   -2.8120    3.3732 H         1 RES1    0.0000
     30 H11        1.2466   -1.4849    4.2670 H         1 RES1    0.0000
     31 C16       -1.2319   -3.1653    7.0894 C.3       1 RES1    0.0000
     32 H12       -1.4315   -4.0011    6.5785 H         1 RES1    0.0000
     33 C17        2.0146   -3.5643    5.8472 C.3       1 RES1    0.0000
     34 H13        2.5344   -2.7637    6.0704 H         1 RES1    0.0000
     35 H14        2.4857   -4.0787    5.1585 H         1 RES1    0.0000
     36 H15        1.9044   -4.1158    6.6488 H         1 RES1    0.0000
     37 C18       -2.5016   -2.3363    7.1236 C.3       1 RES1    0.0000
     38 H16       -2.3487   -1.5271    7.6538 H         1 RES1    0.0000
     39 H17       -3.2235   -2.8611    7.5290 H         1 RES1    0.0000
     40 H18       -2.7530   -2.0850    6.2110 H         1 RES1    0.0000
@<TRIPOS>BOND
     1    1    5 1
     2    2    4 2
     3    3    4 2
     4    4   18 1
     5    5    7 3
     6    6    8 1
     7    7    9 1
     8    8   19 ar
     9    9   10 3
    10   10   15 1
    11   11   12 1
    12   13    1 1
    13   14   13 1
    14   15    6 3
    15   16   17 1
    16   18   11 ar
    17   19   11 ar
    18   20   19 1
    19   21    8 ar
    20   22   21 1
    21   23   24 1
    22   25   23 1
    23   26   23 1
    24   27   13 1
    25   28   27 1
    26   29   27 1
    27   30   27 1
    28   31    1 1
    29   32   31 1
    30   33   13 1
    31   34   33 1
    32   35   33 1
    33   36   33 1
    34   37   31 1
    35   38   37 1
    36   39   37 1
    37   40   37 1
    38   16   18 ar
    39   16   21 ar
    40   23   31 1
@<TRIPOS>SUBSTRUCTURE
     1 RES1 1

@<TRIPOS>CRYSIN
   8.0740    8.6230   22.9920  90.0000  99.3800  90.0000  14 1

