# MOL2 file generated by ConQuest
# Please check atom types

@<TRIPOS>MOLECULE
PARPOO
    28    29     1
SMALL
NO_CHARGES
****
Generated from CSD

@<TRIPOS>ATOM
      1 N1         2.5918    1.4733    3.6092 N.ar      1 RES1    0.0000
      2 N2         3.2326    1.1589    5.7938 N.2       1 RES1    0.0000
      3 N3         2.9496    0.6485    6.8879 N.2       1 RES1    0.0000
      4 N4        -0.5123    0.7102    1.6899 N.pl3     1 RES1    0.0000
      5 C1         2.2243    1.0091    4.7909 C.ar      1 RES1    0.0000
      6 C2         0.9661    0.4245    5.0438 C.ar      1 RES1    0.0000
      7 C3         0.0873    0.3546    3.9928 C.ar      1 RES1    0.0000
      8 C4         0.4628    0.8377    2.7717 C.ar      1 RES1    0.0000
      9 C5         1.7306    1.4058    2.5755 C.ar      1 RES1    0.0000
     10 C6         2.2476    1.9278    1.2643 C.3       1 RES1    0.0000
     11 C7         3.9277    0.7784    7.9092 C.ar      1 RES1    0.0000
     12 C8         5.1559    1.4184    7.7378 C.ar      1 RES1    0.0000
     13 C9         6.0345    1.4668    8.7936 C.ar      1 RES1    0.0000
     14 C10        5.7205    0.8755    9.9963 C.ar      1 RES1    0.0000
     15 C11        4.5141    0.2507   10.1690 C.ar      1 RES1    0.0000
     16 C12        3.6265    0.1998    9.1328 C.ar      1 RES1    0.0000
     17 O1        -1.3542   -0.1704    1.7676 O.2       1 RES1    0.0000
     18 O2        -0.4509    1.4924    0.7524 O.2       1 RES1    0.0000
     19 H1         0.7418    0.1013    5.8863 H         1 RES1    0.0000
     20 H2        -0.7572   -0.0173    4.1100 H         1 RES1    0.0000
     21 H3         1.7102    2.6573    0.9769 H         1 RES1    0.0000
     22 H4         2.2220    1.2312    0.6130 H         1 RES1    0.0000
     23 H5         3.1519    2.2214    1.3766 H         1 RES1    0.0000
     24 H6         5.3757    1.8065    6.9224 H         1 RES1    0.0000
     25 H7         6.8493    1.9037    8.6937 H         1 RES1    0.0000
     26 H8         6.3322    0.9009   10.6969 H         1 RES1    0.0000
     27 H9         4.3005   -0.1373   10.9880 H         1 RES1    0.0000
     28 H10        2.8089   -0.2286    9.2488 H         1 RES1    0.0000
@<TRIPOS>BOND
     1    1    5 ar
     2    2    3 2
     3    3   11 1
     4    4    8 1
     5    5    2 1
     6    6    5 ar
     7    7    6 ar
     8    8    7 ar
     9    9    1 ar
    10   10    9 1
    11   11   12 ar
    12   12   13 ar
    13   13   14 ar
    14   14   15 ar
    15   15   16 ar
    16   16   11 ar
    17   17    4 2
    18   18    4 2
    19   19    6 1
    20   20    7 1
    21   21   10 1
    22   22   10 1
    23   23   10 1
    24   24   12 1
    25   25   13 1
    26   26   14 1
    27   27   15 1
    28   28   16 1
    29    8    9 ar
@<TRIPOS>SUBSTRUCTURE
     1 RES1 1

@<TRIPOS>CRYSIN
   6.3720    7.5220   12.4950  99.0600  89.6200 101.5700   2 1

