# MOL2 file generated by ConQuest
# Please check atom types

@<TRIPOS>MOLECULE
PASJID
    75    74     3
SMALL
NO_CHARGES
****
Generated from CSD

@<TRIPOS>ATOM
      1 O1         7.6193    3.2963    1.8520 O.2       1 RES1    0.0000
      2 O2         3.0962    3.0062    2.7633 O.2       1 RES1    0.0000
      3 O3         6.6454   -3.3441    0.9419 O.2       1 RES1    0.0000
      4 O4         4.4784   -3.4309    1.0791 O.2       1 RES1    0.0000
      5 N1         6.4234    3.5915    2.2056 N.pl3     1 RES1    0.0000
      6 N2         4.2745    3.4682    2.5738 N.pl3     1 RES1    0.0000
      7 N3         5.5414   -2.8193    1.1050 N.pl3     1 RES1    0.0000
      8 C1         5.3655    2.7497    2.2222 C.2       1 RES1    0.0000
      9 C2         6.0876    4.9332    2.7844 C.3       1 RES1    0.0000
     10 C3         4.5519    4.9540    2.5887 C.3       1 RES1    0.0000
     11 C4         6.8494    6.0070    2.0078 C.3       1 RES1    0.0000
     12 H1         7.8486    5.8663    2.3370 H         1 RES1    0.0000
     13 H2         6.5744    6.8800    2.2949 H         1 RES1    0.0000
     14 H3         6.6810    5.9931    1.0278 H         1 RES1    0.0000
     15 C5         6.5446    4.8730    4.2536 C.3       1 RES1    0.0000
     16 H4         6.3047    5.7650    4.6894 H         1 RES1    0.0000
     17 C6         6.3130    3.7010    4.9574 C.3       1 RES1    0.0000
     18 C7         7.9615    4.5537    4.6167 Du        3 SUP3    0.0000
     19 C8         4.1040    5.4533    1.2074 C.3       1 RES1    0.0000
     20 H5         3.0943    5.4786    1.0853 H         1 RES1    0.0000
     21 H6         4.3065    6.4238    1.0853 H         1 RES1    0.0000
     22 H7         4.6254    5.0935    0.5111 H         1 RES1    0.0000
     23 C9         3.7199    5.6076    3.7050 C.3       1 RES1    0.0000
     24 H8         2.7279    5.3849    3.5735 H         1 RES1    0.0000
     25 H9         3.9224    5.2708    4.5420 H         1 RES1    0.0000
     26 C10        3.8151    7.1017    3.7632 C.3       1 RES1    0.0000
     27 H10        3.4144    7.6022    2.9476 H         1 RES1    0.0000
     28 H11        4.7313    7.6402    3.9047 H         1 RES1    0.0000
     29 H12        3.1918    7.5008    4.4865 H         1 RES1    0.0000
     30 C11        5.4042    1.3270    1.9267 C.ar      1 RES1    0.0000
     31 C12        6.6233    0.6241    1.9985 C.ar      1 RES1    0.0000
     32 H13        7.4170    1.1010    2.2452 H         1 RES1    0.0000
     33 C13        6.6653   -0.7164    1.7123 C.ar      1 RES1    0.0000
     34 H14        7.5532   -1.1809    1.8413 H         1 RES1    0.0000
     35 C14        5.4948   -1.3676    1.3555 C.ar      1 RES1    0.0000
     36 C15        4.2813   -0.7192    1.2843 C.ar      1 RES1    0.0000
     37 H15        3.4490   -1.2316    1.0336 H         1 RES1    0.0000
     38 C16        4.2393    0.6395    1.5619 C.ar      1 RES1    0.0000
     39 H16        3.3346    1.0960    1.4796 H         1 RES1    0.0000
     40 O5        10.8573    6.0147    8.1908 O.2       2 RES2    0.0000
     41 O6        15.2469    6.0162    6.7514 O.2       2 RES2    0.0000
     42 O7        12.0399   12.6372    7.8537 O.2       2 RES2    0.0000
     43 O8        14.1212   12.6173    8.3052 O.2       2 RES2    0.0000
     44 N4        11.9631    5.6447    7.6658 N.pl3     2 RES2    0.0000
     45 N5        14.0646    5.6280    7.0674 N.pl3     2 RES2    0.0000
     46 N6        13.0922   12.0483    8.0252 N.pl3     2 RES2    0.0000
     47 C17       13.0510    6.4208    7.4740 C.2       2 RES2    0.0000
     48 C18       12.1535    4.2815    7.0762 C.3       2 RES2    0.0000
     49 C19       13.6958    4.1651    7.1476 C.3       2 RES2    0.0000
     50 C20       11.4044    3.2588    7.9052 C.3       2 RES2    0.0000
     51 H17       11.5905    2.4454    7.6562 H         2 RES2    0.0000
     52 H18       11.6777    3.3196    8.9635 H         2 RES2    0.0000
     53 H19       10.5308    3.4590    7.8457 H         2 RES2    0.0000
     54 C21       11.6104    4.3599    5.6246 C.3       2 RES2    0.0000
     55 H20       11.6874    3.4210    5.2330 H         2 RES2    0.0000
     56 C22       10.2092    4.7514    5.3555 C.3       2 RES2    0.0000
     57 C23       11.7805    5.5204    4.9306 Du        3 SUP3    0.0000
     58 C24       14.1942    3.6934    8.5083 C.3       2 RES2    0.0000
     59 H21       13.9923    2.7292    8.6515 H         2 RES2    0.0000
     60 H22       15.0396    3.8074    8.5252 H         2 RES2    0.0000
     61 H23       13.6846    4.2407    9.2850 H         2 RES2    0.0000
     62 C25       14.3576    3.3931    5.9957 C.3       2 RES2    0.0000
     63 H24       14.1521    3.8062    5.2598 H         2 RES2    0.0000
     64 C26       15.6794    2.7190    6.2857 Du        3 SUP3    0.0000
     65 C27       14.2467    2.0653    5.8168 C.3       2 RES2    0.0000
     66 C28       13.0888    7.8680    7.6039 C.ar      2 RES2    0.0000
     67 C29       14.2747    8.5479    7.9077 C.ar      2 RES2    0.0000
     68 H25       15.0971    8.1356    8.0658 H         2 RES2    0.0000
     69 C30       14.2766    9.9183    8.0415 C.ar      2 RES2    0.0000
     70 H26       14.9828   10.4163    8.2515 H         2 RES2    0.0000
     71 C31       13.1004   10.6043    7.8516 C.ar      2 RES2    0.0000
     72 C32       11.9199    9.9715    7.5166 C.ar      2 RES2    0.0000
     73 H27       11.1528   10.4809    7.3557 H         2 RES2    0.0000
     74 C33       11.9133    8.6002    7.3980 C.ar      2 RES2    0.0000
     75 H28       11.1339    8.1128    7.1451 H         2 RES2    0.0000
@<TRIPOS>BOND
     1    1    5 1
     2    2    6 1
     3    3    7 2
     4    4    7 2
     5    5    8 un
     6    6    8 un
     7    7   35 1
     8    8   30 1
     9    9    5 1
    10   10    6 1
    11   11    9 1
    12   12   11 1
    13   13   11 1
    14   14   11 1
    15   15    9 1
    16   16   15 1
    17   17   15 1
    18   19   10 1
    19   20   19 1
    20   21   19 1
    21   22   19 1
    22   23   10 1
    23   24   23 1
    24   25   23 1
    25   26   23 1
    26   27   26 1
    27   28   26 1
    28   29   26 1
    29   30   31 ar
    30   31   32 1
    31   33   31 ar
    32   34   33 1
    33   35   33 ar
    34   36   35 ar
    35   37   36 1
    36   38   30 ar
    37   39   38 1
    38   40   44 1
    39   41   45 1
    40   42   46 2
    41   43   46 2
    42   44   47 un
    43   45   47 un
    44   46   71 1
    45   47   66 1
    46   48   44 1
    47   49   45 1
    48   50   48 1
    49   51   50 1
    50   52   50 1
    51   53   50 1
    52   54   48 1
    53   55   54 1
    54   56   54 1
    55   58   49 1
    56   59   58 1
    57   60   58 1
    58   61   58 1
    59   62   49 1
    60   63   62 1
    61   65   62 1
    62   66   67 ar
    63   67   68 1
    64   69   67 ar
    65   70   69 1
    66   71   69 ar
    67   72   71 ar
    68   73   72 1
    69   74   66 ar
    70   75   74 1
    71    9   10 1
    72   36   38 ar
    73   48   49 1
    74   72   74 ar
@<TRIPOS>SUBSTRUCTURE
     1 RES1 1
     2 RES2 40
     3 SUP3 18

@<TRIPOS>CRYSIN
  12.9104   12.6703   19.2254  90.0000  95.3880  90.0000  14 1

