# MOL2 file generated by ConQuest
# Please check atom types

@<TRIPOS>MOLECULE
PASJOJ
    78    80     2
SMALL
NO_CHARGES
****
Generated from CSD

@<TRIPOS>ATOM
      1 O1         6.1151   19.2726    2.0248 O.2       1 RES1    0.0000
      2 O2         2.3968   17.2745    3.8843 O.2       1 RES1    0.0000
      3 N1         5.3195   18.3879    2.4948 N.pl3     1 RES1    0.0000
      4 N2         3.5480   17.4345    3.3554 N.pl3     1 RES1    0.0000
      5 N3         3.4943   22.2878    2.8574 N.ar      1 RES1    0.0000
      6 C1         4.0675   18.6036    2.9354 C.2       1 RES1    0.0000
      7 C2         5.7665   16.9762    2.7564 C.3       1 RES1    0.0000
      8 C3         4.3989   16.2636    2.9604 C.3       1 RES1    0.0000
      9 C4         6.5859   17.0562    4.0416 C.3       1 RES1    0.0000
     10 H1         6.9019   16.1275    4.3245 H         1 RES1    0.0000
     11 H2         7.3688   17.6246    3.8718 H         1 RES1    0.0000
     12 H3         6.0219   17.4668    4.7958 H         1 RES1    0.0000
     13 C5         6.6128   16.5135    1.5747 C.3       1 RES1    0.0000
     14 H4         6.0513   16.5605    0.7120 H         1 RES1    0.0000
     15 H5         7.2896   17.1659    1.3983 H         1 RES1    0.0000
     16 C6         7.2524   15.1459    1.7564 C.3       1 RES1    0.0000
     17 H6         6.5424   14.4175    1.8623 H         1 RES1    0.0000
     18 H7         7.6970   14.9495    0.9672 H         1 RES1    0.0000
     19 H8         7.9062   15.1037    2.5414 H         1 RES1    0.0000
     20 C7         4.3776   15.2156    4.0663 C.3       1 RES1    0.0000
     21 H9         3.4318   14.9716    4.2422 H         1 RES1    0.0000
     22 H10        4.8656   14.4175    3.7288 H         1 RES1    0.0000
     23 H11        4.7735   15.6174    4.9182 H         1 RES1    0.0000
     24 C8         3.7578   15.6394    1.7130 C.3       1 RES1    0.0000
     25 H12        4.4103   14.9826    1.2645 H         1 RES1    0.0000
     26 H13        2.9195   15.1183    2.0259 H         1 RES1    0.0000
     27 C9         3.2733   16.5718    0.6289 C.3       1 RES1    0.0000
     28 H14        4.0774   17.1035    0.2974 H         1 RES1    0.0000
     29 H15        2.5218   17.2980    0.9878 H         1 RES1    0.0000
     30 H16        2.8693   15.9880   -0.0823 H         1 RES1    0.0000
     31 C10        3.3658   19.8861    2.8669 C.ar      1 RES1    0.0000
     32 C11        4.0543   21.0868    2.9999 C.ar      1 RES1    0.0000
     33 H17        4.9870   21.0776    3.2267 H         1 RES1    0.0000
     34 C12        2.1922   22.3113    2.5560 C.ar      1 RES1    0.0000
     35 H18        1.8415   23.2059    2.4468 H         1 RES1    0.0000
     36 C13        1.4211   21.1866    2.4244 C.ar      1 RES1    0.0000
     37 H19        0.5422   21.2758    2.1937 H         1 RES1    0.0000
     38 C14        2.0088   19.9511    2.5858 C.ar      1 RES1    0.0000
     39 H20        1.4866   19.1511    2.4962 H         1 RES1    0.0000
     40 O3         5.7196   30.4091    2.8002 O.2       2 RES2    0.0000
     41 O4         1.5917   28.6404    1.7332 O.2       2 RES2    0.0000
     42 N4         4.7844   29.8044    2.1732 N.pl3     2 RES2    0.0000
     43 N5         2.8176   28.9905    1.6586 N.pl3     2 RES2    0.0000
     44 N6         3.3495   30.6807    6.1867 N.ar      2 RES2    0.0000
     45 C15        3.5134   29.6400    2.6086 C.2       2 RES2    0.0000
     46 C16        5.0426   29.0404    0.8950 C.3       2 RES2    0.0000
     47 C17        3.5842   28.8573    0.3774 C.3       2 RES2    0.0000
     48 C18        5.6935   27.7315    1.3374 C.3       2 RES2    0.0000
     49 H21        6.5601   27.9102    1.7286 H         2 RES2    0.0000
     50 H22        5.1245   27.2350    1.9848 H         2 RES2    0.0000
     51 H23        5.8936   27.1396    0.5731 H         2 RES2    0.0000
     52 C19        5.9928   29.8382    0.0085 C.3       2 RES2    0.0000
     53 H24        6.7628   30.0349    0.5361 H         2 RES2    0.0000
     54 H25        5.5931   30.6844   -0.2541 H         2 RES2    0.0000
     55 C20        6.4419   29.1267   -1.2588 C.3       2 RES2    0.0000
     56 H26        6.9976   29.7230   -1.7955 H         2 RES2    0.0000
     57 H27        6.9517   28.2918   -1.0382 H         2 RES2    0.0000
     58 H28        5.6557   28.8753   -1.7821 H         2 RES2    0.0000
     59 C21        3.2919   27.4912   -0.2264 C.3       2 RES2    0.0000
     60 H29        2.3759   27.4662   -0.4445 H         2 RES2    0.0000
     61 H30        3.4855   26.7617    0.3982 H         2 RES2    0.0000
     62 H31        3.8334   27.3855   -1.0320 H         2 RES2    0.0000
     63 C22        3.0551   29.9615   -0.5629 C.3       2 RES2    0.0000
     64 H32        3.6336   29.9835   -1.3376 H         2 RES2    0.0000
     65 H33        2.1630   29.6496   -0.8252 H         2 RES2    0.0000
     66 C23        2.9065   31.3566    0.0041 C.3       2 RES2    0.0000
     67 H34        2.2106   31.3595    0.7202 H         2 RES2    0.0000
     68 H35        3.7729   31.7705    0.4013 H         2 RES2    0.0000
     69 H36        2.5268   31.8990   -0.6071 H         2 RES2    0.0000
     70 C24        2.9712   30.1160    3.8765 C.ar      2 RES2    0.0000
     71 C25        3.7787   30.2400    5.0049 C.ar      2 RES2    0.0000
     72 H37        4.6845   30.0275    4.9419 H         2 RES2    0.0000
     73 C26        2.0590   31.0278    6.2615 C.ar      2 RES2    0.0000
     74 H38        1.7705   31.3559    7.0903 H         2 RES2    0.0000
     75 C27        1.1845   30.9486    5.2129 C.ar      2 RES2    0.0000
     76 H39        0.2682   31.2091    5.3205 H         2 RES2    0.0000
     77 C28        1.6281   30.4730    3.9946 C.ar      2 RES2    0.0000
     78 H40        1.0570   30.4165    3.2709 H         2 RES2    0.0000
@<TRIPOS>BOND
     1    1    3 1
     2    2    4 1
     3    3    6 un
     4    4    6 un
     5    5   32 ar
     6    6   31 1
     7    7    3 1
     8    8    4 1
     9    9    7 1
    10   10    9 1
    11   11    9 1
    12   12    9 1
    13   13    7 1
    14   14   13 1
    15   15   13 1
    16   16   13 1
    17   17   16 1
    18   18   16 1
    19   19   16 1
    20   20    8 1
    21   21   20 1
    22   22   20 1
    23   23   20 1
    24   24    8 1
    25   25   24 1
    26   26   24 1
    27   27   24 1
    28   28   27 1
    29   29   27 1
    30   30   27 1
    31   31   32 ar
    32   32   33 1
    33   34    5 ar
    34   35   34 1
    35   36   34 ar
    36   37   36 1
    37   38   31 ar
    38   39   38 1
    39   40   42 1
    40   41   43 1
    41   42   45 un
    42   43   45 un
    43   44   71 ar
    44   45   70 1
    45   46   42 1
    46   47   43 1
    47   48   46 1
    48   49   48 1
    49   50   48 1
    50   51   48 1
    51   52   46 1
    52   53   52 1
    53   54   52 1
    54   55   52 1
    55   56   55 1
    56   57   55 1
    57   58   55 1
    58   59   47 1
    59   60   59 1
    60   61   59 1
    61   62   59 1
    62   63   47 1
    63   64   63 1
    64   65   63 1
    65   66   63 1
    66   67   66 1
    67   68   66 1
    68   69   66 1
    69   70   71 ar
    70   71   72 1
    71   73   44 ar
    72   74   73 1
    73   75   73 ar
    74   76   75 1
    75   77   70 ar
    76   78   77 1
    77    7    8 1
    78   36   38 ar
    79   46   47 1
    80   75   77 ar
@<TRIPOS>SUBSTRUCTURE
     1 RES1 1
     2 RES2 40

@<TRIPOS>CRYSIN
   7.3715   36.6950   10.2916  90.0000  91.2400  90.0000 231 1

