# MOL2 file generated by ConQuest
# Please check atom types

@<TRIPOS>MOLECULE
PASKEA
    39    40     1
SMALL
NO_CHARGES
****
Generated from CSD

@<TRIPOS>ATOM
      1 O1        -4.8690    6.8228    5.7839 O.2       1 RES1    0.0000
      2 N1        -4.0565    6.4258    6.6654 N.3       1 RES1    0.0000
      3 N2        -2.2190    6.3640    7.9441 N.2       1 RES1    0.0000
      4 C1        -2.8732    7.0444    7.0711 C.2       1 RES1    0.0000
      5 C2        -4.3273    5.2491    7.5528 C.3       1 RES1    0.0000
      6 C3        -2.8764    5.0385    8.1144 C.3       1 RES1    0.0000
      7 C4        -5.3246    5.7468    8.6165 C.3       1 RES1    0.0000
      8 H1        -6.1550    5.9946    8.1897 H         1 RES1    0.0000
      9 H2        -4.8630    6.4782    9.1725 H         1 RES1    0.0000
     10 H3        -5.5506    5.0577    9.3073 H         1 RES1    0.0000
     11 C5        -4.9422    4.1308    6.7136 C.3       1 RES1    0.0000
     12 H4        -5.7928    4.5136    6.3012 H         1 RES1    0.0000
     13 H5        -4.3249    3.8990    5.9929 H         1 RES1    0.0000
     14 C6        -5.3015    2.8653    7.4854 C.3       1 RES1    0.0000
     15 H6        -5.5577    2.3777    6.9083 H         1 RES1    0.0000
     16 H7        -5.8771    3.1031    8.2186 H         1 RES1    0.0000
     17 H8        -4.5413    2.4079    7.8139 H         1 RES1    0.0000
     18 C7        -2.0643    4.0602    7.2619 C.3       1 RES1    0.0000
     19 H9        -1.1010    4.2114    7.5056 H         1 RES1    0.0000
     20 H10       -2.2107    4.2416    6.3302 H         1 RES1    0.0000
     21 H11       -2.3540    3.1233    7.4863 H         1 RES1    0.0000
     22 C8        -2.8237    4.6405    9.5925 C.3       1 RES1    0.0000
     23 H12       -3.3335    5.3801   10.1552 H         1 RES1    0.0000
     24 H13       -3.2972    3.8487    9.7409 H         1 RES1    0.0000
     25 C9        -1.4103    4.4935   10.1562 C.3       1 RES1    0.0000
     26 H14       -1.5074    4.2718   11.0513 H         1 RES1    0.0000
     27 H15       -0.9129    5.3297    9.9433 H         1 RES1    0.0000
     28 H16       -0.8344    3.7580    9.6349 H         1 RES1    0.0000
     29 C10       -2.4242    8.3582    6.5650 C.ar      1 RES1    0.0000
     30 C11       -1.0809    8.6887    6.7242 C.ar      1 RES1    0.0000
     31 H17       -0.4715    8.0902    7.2069 H         1 RES1    0.0000
     32 C12       -0.6098    9.9289    6.3282 C.ar      1 RES1    0.0000
     33 H18        0.4249   10.1052    6.3687 H         1 RES1    0.0000
     34 C13       -1.4744   10.8548    5.7761 C.ar      1 RES1    0.0000
     35 H19       -1.2274   11.7374    5.5112 H         1 RES1    0.0000
     36 C14       -2.7948   10.5274    5.5844 C.ar      1 RES1    0.0000
     37 H20       -3.3444   11.1027    5.2029 H         1 RES1    0.0000
     38 C15       -3.2742    9.2831    5.9669 C.ar      1 RES1    0.0000
     39 H21       -4.1738    9.0373    5.8484 H         1 RES1    0.0000
@<TRIPOS>BOND
     1    1    2 1
     2    2    4 1
     3    3    4 2
     4    4   29 1
     5    5    2 1
     6    6    3 1
     7    7    5 1
     8    8    7 1
     9    9    7 1
    10   10    7 1
    11   11    5 1
    12   12   11 1
    13   13   11 1
    14   14   11 1
    15   15   14 1
    16   16   14 1
    17   17   14 1
    18   18    6 1
    19   19   18 1
    20   20   18 1
    21   21   18 1
    22   22    6 1
    23   23   22 1
    24   24   22 1
    25   25   22 1
    26   26   25 1
    27   27   25 1
    28   28   25 1
    29   29   30 ar
    30   30   31 1
    31   32   30 ar
    32   33   32 1
    33   34   32 ar
    34   35   34 1
    35   36   34 ar
    36   37   36 1
    37   38   29 ar
    38   39   38 1
    39    5    6 1
    40   36   38 ar
@<TRIPOS>SUBSTRUCTURE
     1 RES1 1

@<TRIPOS>CRYSIN
   7.1986   10.0750   10.2020  90.0000 109.1930  90.0000   4 1

