# MOL2 file generated by ConQuest
# Please check atom types

@<TRIPOS>MOLECULE
PATJUR
    42    44     1
SMALL
NO_CHARGES
****
Generated from CSD

@<TRIPOS>ATOM
      1 C1        -0.0228    3.1434    5.9428 C.3       1 RES1    0.0000
      2 H1        -0.4041    3.1322    6.8564 H         1 RES1    0.0000
      3 H2         0.3029    2.2337    5.7293 H         1 RES1    0.0000
      4 C2        -1.0827    3.5634    4.9444 C.3       1 RES1    0.0000
      5 H3        -1.8015    2.8834    4.9159 H         1 RES1    0.0000
      6 H4        -1.4829    4.4236    5.2262 H         1 RES1    0.0000
      7 C3        -0.4694    3.7136    3.5687 C.3       1 RES1    0.0000
      8 C4         0.9276    4.3642    3.5238 C.3       1 RES1    0.0000
      9 H5         0.8719    5.3629    3.5422 H         1 RES1    0.0000
     10 C5         1.4056    3.8420    2.1483 C.3       1 RES1    0.0000
     11 H6         1.0351    4.4286    1.4290 H         1 RES1    0.0000
     12 C6         0.7520    2.4488    2.0505 C.3       1 RES1    0.0000
     13 H7         1.4323    1.7452    2.2558 H         1 RES1    0.0000
     14 C7         2.9671    4.6705    4.7955 C.3       1 RES1    0.0000
     15 H8         2.6970    5.5858    5.0601 H         1 RES1    0.0000
     16 H9         3.4537    4.7331    3.9347 H         1 RES1    0.0000
     17 C8         3.8824    4.0959    5.8462 C.ar      1 RES1    0.0000
     18 C9         4.6619    4.9435    6.6264 C.ar      1 RES1    0.0000
     19 H10        4.6066    5.8833    6.4975 H         1 RES1    0.0000
     20 C10        5.5229    4.4305    7.5944 C.ar      1 RES1    0.0000
     21 H11        6.0546    5.0196    8.1176 H         1 RES1    0.0000
     22 C11        5.6048    3.0570    7.7961 C.ar      1 RES1    0.0000
     23 H12        6.1838    2.7023    8.4615 H         1 RES1    0.0000
     24 C12        4.8348    2.2143    7.0187 C.ar      1 RES1    0.0000
     25 H13        4.8886    1.2756    7.1516 H         1 RES1    0.0000
     26 C13        3.9822    2.7221    6.0443 C.ar      1 RES1    0.0000
     27 H14        3.4659    2.1282    5.5113 H         1 RES1    0.0000
     28 C14        0.1741    2.2070    0.6724 C.3       1 RES1    0.0000
     29 H15       -0.5359    2.8755    0.5032 H         1 RES1    0.0000
     30 H16        0.8859    2.3501    0.0000 H         1 RES1    0.0000
     31 C15       -2.6038    4.0975    2.5566 C.3       1 RES1    0.0000
     32 H17       -2.6297    3.1431    2.3347 H         1 RES1    0.0000
     33 H18       -3.0339    4.6117    1.8416 H         1 RES1    0.0000
     34 H19       -3.0792    4.2495    3.3997 H         1 RES1    0.0000
     35 N1         1.7708    3.8447    4.6163 N.3       1 RES1    0.0000
     36 O1         1.0567    4.0775    5.8749 O.3       1 RES1    0.0000
     37 O2        -0.2945    2.4070    3.0336 O.3       1 RES1    0.0000
     38 O3        -1.2490    4.5163    2.6938 O.3       1 RES1    0.0000
     39 O4         2.8159    3.7587    1.9996 O.3       1 RES1    0.0000
     40 H20        3.0321    4.0147    1.2294 H         1 RES1    0.0000
     41 O5        -0.3728    0.9029    0.4902 O.3       1 RES1    0.0000
     42 H21       -0.6878    0.6268    1.2176 H         1 RES1    0.0000
@<TRIPOS>BOND
     1    1    2 1
     2    3    1 1
     3    4    1 1
     4    5    4 1
     5    6    4 1
     6    7    4 1
     7    8    7 1
     8    9    8 1
     9   10    8 1
    10   11   10 1
    11   12   10 1
    12   13   12 1
    13   14   15 1
    14   16   14 1
    15   17   14 1
    16   18   17 ar
    17   19   18 1
    18   20   18 ar
    19   21   20 1
    20   22   20 ar
    21   23   22 1
    22   24   22 ar
    23   25   24 1
    24   26   17 ar
    25   27   26 1
    26   28   12 1
    27   29   28 1
    28   30   28 1
    29   31   32 1
    30   33   31 1
    31   34   31 1
    32   35    8 1
    33   36    1 1
    34   37    7 1
    35   38    7 1
    36   39   10 1
    37   40   39 1
    38   41   28 1
    39   42   41 1
    40   12   37 1
    41   14   35 1
    42   24   26 ar
    43   31   38 1
    44   35   36 1
@<TRIPOS>SUBSTRUCTURE
     1 RES1 1

@<TRIPOS>CRYSIN
   8.7280    9.9497   16.7720  90.0000  90.0000  90.0000  19 1

