# MOL2 file generated by ConQuest
# Please check atom types

@<TRIPOS>MOLECULE
PATNUU
    42    43     1
SMALL
NO_CHARGES
****
Generated from CSD

@<TRIPOS>ATOM
      1 O1         4.5421    5.5159    2.8472 O.2       1 RES1    0.0000
      2 O2         3.9695    4.9800    7.3987 O.2       1 RES1    0.0000
      3 O3        -1.1434    9.0267    3.8202 O.2       1 RES1    0.0000
      4 O4        -0.9649    9.4615    5.8168 O.2       1 RES1    0.0000
      5 N1         4.6672    5.0896    4.0480 N.pl3     1 RES1    0.0000
      6 N2         4.4715    4.9490    6.2197 N.pl3     1 RES1    0.0000
      7 N3        -0.5984    8.9094    4.8562 N.pl3     1 RES1    0.0000
      8 C1         3.8950    5.4658    5.1000 C.2       1 RES1    0.0000
      9 C2         5.6855    4.0569    4.4504 C.3       1 RES1    0.0000
     10 C3         5.8335    4.4088    5.9490 C.3       1 RES1    0.0000
     11 C4         6.9702    4.2023    3.6365 C.3       1 RES1    0.0000
     12 H1         6.7965    3.9715    2.7208 H         1 RES1    0.0000
     13 H2         7.6421    3.6158    3.9920 H         1 RES1    0.0000
     14 H3         7.2785    5.1100    3.6841 H         1 RES1    0.0000
     15 C5         5.0251    2.6876    4.2113 C.3       1 RES1    0.0000
     16 H4         5.6760    1.9966    4.4162 H         1 RES1    0.0000
     17 H5         4.2921    2.5894    4.8390 H         1 RES1    0.0000
     18 C6         4.4935    2.4377    2.8225 C.3       1 RES1    0.0000
     19 H6         4.1126    1.5580    2.7789 H         1 RES1    0.0000
     20 H7         5.2102    2.5091    2.1869 H         1 RES1    0.0000
     21 H8         3.8177    3.0892    2.6164 H         1 RES1    0.0000
     22 C7         6.0854    3.2027    6.8489 C.3       1 RES1    0.0000
     23 H9         6.1694    3.4947    7.7593 H         1 RES1    0.0000
     24 H10        6.8948    2.7641    6.5780 H         1 RES1    0.0000
     25 H11        5.3496    2.5894    6.7762 H         1 RES1    0.0000
     26 C8         6.8366    5.5818    6.1498 C.3       1 RES1    0.0000
     27 H12        7.7309    5.2184    6.0507 H         1 RES1    0.0000
     28 H13        6.7030    6.2052    5.4191 H         1 RES1    0.0000
     29 C9         6.8165    6.3289    7.3510 C.3       1 RES1    0.0000
     30 H14        7.4846    7.0161    7.3114 H         1 RES1    0.0000
     31 H15        6.9988    5.7475    8.0923 H         1 RES1    0.0000
     32 H16        5.9518    6.7305    7.4633 H         1 RES1    0.0000
     33 C10        2.7058    6.2932    5.0562 C.ar      1 RES1    0.0000
     34 C11        2.3116    7.0097    6.1646 C.ar      1 RES1    0.0000
     35 H17        2.7888    6.9320    6.9585 H         1 RES1    0.0000
     36 C12        1.2198    7.8372    6.1062 C.ar      1 RES1    0.0000
     37 H18        0.9573    8.3242    6.8542 H         1 RES1    0.0000
     38 C13        0.5211    7.9366    4.9368 C.ar      1 RES1    0.0000
     39 C14        0.8590    7.2099    3.8413 C.ar      1 RES1    0.0000
     40 H19        0.3560    7.2736    3.0617 H         1 RES1    0.0000
     41 C15        1.9499    6.3812    3.8962 C.ar      1 RES1    0.0000
     42 H20        2.1847    5.8750    3.1516 H         1 RES1    0.0000
@<TRIPOS>BOND
     1    1    5 1
     2    2    6 1
     3    3    7 2
     4    4    7 2
     5    5    8 un
     6    6    8 un
     7    7   38 1
     8    8   33 1
     9    9    5 1
    10   10    6 1
    11   11    9 1
    12   12   11 1
    13   13   11 1
    14   14   11 1
    15   15    9 1
    16   16   15 1
    17   17   15 1
    18   18   15 1
    19   19   18 1
    20   20   18 1
    21   21   18 1
    22   22   10 1
    23   23   22 1
    24   24   22 1
    25   25   22 1
    26   26   10 1
    27   27   26 1
    28   28   26 1
    29   29   26 1
    30   30   29 1
    31   31   29 1
    32   32   29 1
    33   33   34 ar
    34   34   35 1
    35   36   34 ar
    36   37   36 1
    37   38   36 ar
    38   39   38 ar
    39   40   39 1
    40   41   33 ar
    41   42   41 1
    42    9   10 1
    43   39   41 ar
@<TRIPOS>SUBSTRUCTURE
     1 RES1 1

@<TRIPOS>CRYSIN
   9.5443   12.7496   13.2141  90.0000  90.0000  90.0000  19 1

