# MOL2 file generated by ConQuest
# Please check atom types

@<TRIPOS>MOLECULE
PATPAC
    80    82     2
SMALL
NO_CHARGES
****
Generated from CSD

@<TRIPOS>ATOM
      1 O1         9.6541   -4.7256    2.2196 O.2       1 RES1    0.0000
      2 O2         8.4667   -6.0668   -2.0234 O.2       1 RES1    0.0000
      3 O3         8.2237   -2.2816   -4.2294 O.2       2 RES2    0.0000
      4 O4         6.3746   -1.4423   -8.3887 O.2       2 RES2    0.0000
      5 N1         7.5620   -2.3960   -5.3429 N.pl3     2 RES2    0.0000
      6 N2         6.7555   -2.0250   -7.3223 N.pl3     2 RES2    0.0000
      7 C1         7.4975   -1.5169   -6.3369 C.2       2 RES2    0.0000
      8 C2         6.5889   -3.5082   -5.5391 C.3       2 RES2    0.0000
      9 C3         6.4133   -3.4745   -7.0225 C.3       2 RES2    0.0000
     10 C4         7.1781   -4.8003   -4.9202 C.3       2 RES2    0.0000
     11 H1         8.0124   -5.0088   -5.3489 H         2 RES2    0.0000
     12 H2         6.5631   -5.5260   -5.0508 H         2 RES2    0.0000
     13 H3         7.3239   -4.6684   -3.9804 H         2 RES2    0.0000
     14 C5         4.9898   -3.5348   -4.5766 C.3       2 RES2    0.0000
     15 H4         4.2706   -4.0234   -5.0082 H         2 RES2    0.0000
     16 H5         5.0860   -3.7883   -3.6454 H         2 RES2    0.0000
     17 C6         4.9709   -2.3173   -4.7754 C.3       2 RES2    0.0000
     18 H6         4.1902   -1.9391   -4.3665 H         2 RES2    0.0000
     19 H7         4.9491   -2.1476   -5.7208 H         2 RES2    0.0000
     20 H8         5.7576   -1.9187   -4.3978 H         2 RES2    0.0000
     21 C7         5.0136   -3.7893   -7.5818 C.3       2 RES2    0.0000
     22 H9         4.3618   -3.2404   -7.1403 H         2 RES2    0.0000
     23 H10        4.8082   -4.7144   -7.4299 H         2 RES2    0.0000
     24 H11        4.9977   -3.6094   -8.5258 H         2 RES2    0.0000
     25 C8         7.4618   -4.3352   -7.7422 C.3       2 RES2    0.0000
     26 H12        8.3278   -4.1184   -7.3618 H         2 RES2    0.0000
     27 H13        7.2793   -5.2613   -7.5236 H         2 RES2    0.0000
     28 C9         7.5848   -4.2442   -9.1703 C.3       2 RES2    0.0000
     29 H14        8.2792   -4.8350   -9.4712 H         2 RES2    0.0000
     30 H15        7.8031   -3.3426   -9.4173 H         2 RES2    0.0000
     31 H16        6.7535   -4.4956   -9.5791 H         2 RES2    0.0000
     32 C10        8.0947   -0.1513   -6.3624 C.ar      2 RES2    0.0000
     33 C11        8.2138    0.5387   -5.1388 C.ar      2 RES2    0.0000
     34 H17        7.9995    0.1370   -4.3268 H         2 RES2    0.0000
     35 C12        8.6770    1.8757   -5.2069 C.ar      2 RES2    0.0000
     36 H18        8.7475    2.3756   -4.4233 H         2 RES2    0.0000
     37 C13        9.0183    2.4390   -6.3851 C.ar      2 RES2    0.0000
     38 H19        9.3337    3.3130   -6.3965 H         2 RES2    0.0000
     39 C14        8.9121    1.7613   -7.5435 C.ar      2 RES2    0.0000
     40 H20        9.1720    2.1660   -8.3384 H         2 RES2    0.0000
     41 C15        8.4112    0.4426   -7.5605 C.ar      2 RES2    0.0000
     42 H21        8.2971   -0.0133   -8.3640 H         2 RES2    0.0000
     43 N3         9.6422   -5.3022    1.0953 N.pl3     1 RES1    0.0000
     44 N4         9.1294   -5.8102   -0.9613 N.pl3     1 RES1    0.0000
     45 C16        8.7108   -5.1897    0.1368 C.2       1 RES1    0.0000
     46 C17       10.7156   -6.2968    0.6419 C.3       1 RES1    0.0000
     47 C18       10.6025   -6.1925   -0.8409 C.3       1 RES1    0.0000
     48 C19       12.0399   -5.8838    1.2890 C.3       1 RES1    0.0000
     49 H22       12.3147   -5.0323    0.9426 H         1 RES1    0.0000
     50 H23       12.7115   -6.5411    1.0931 H         1 RES1    0.0000
     51 H24       11.9248   -5.8194    2.2400 H         1 RES1    0.0000
     52 C20       10.2454   -7.6880    1.1867 C.3       1 RES1    0.0000
     53 H25        9.4071   -7.9077    0.7524 H         1 RES1    0.0000
     54 H26       10.8961   -8.3504    0.9057 H         1 RES1    0.0000
     55 C21       10.0450   -7.8413    2.6716 C.3       1 RES1    0.0000
     56 H27        9.7732   -8.7419    2.8647 H         1 RES1    0.0000
     57 H28        9.3655   -7.2310    2.9669 H         1 RES1    0.0000
     58 H29       10.8674   -7.6501    3.1258 H         1 RES1    0.0000
     59 C22       10.8941   -7.4672   -1.6316 C.3       1 RES1    0.0000
     60 H30       10.3724   -8.1899   -1.2776 H         1 RES1    0.0000
     61 H31       11.8276   -7.6808   -1.5615 H         1 RES1    0.0000
     62 H32       10.6670   -7.3302   -2.5552 H         1 RES1    0.0000
     63 C23       11.4060   -5.0016   -1.4224 C.3       1 RES1    0.0000
     64 H33       11.2294   -4.2237   -0.8688 H         1 RES1    0.0000
     65 H34       12.3494   -5.2071   -1.3372 H         1 RES1    0.0000
     66 C24       11.1441   -4.6234   -2.8476 C.3       1 RES1    0.0000
     67 H35       11.7175   -3.8946   -3.0975 H         1 RES1    0.0000
     68 H36       10.2275   -4.3566   -2.9470 H         1 RES1    0.0000
     69 H37       11.3197   -5.3768   -3.4183 H         1 RES1    0.0000
     70 C25        7.3835   -4.5386    0.3009 C.ar      1 RES1    0.0000
     71 C26        6.8339   -4.4660    1.5416 C.ar      1 RES1    0.0000
     72 H38        7.2952   -4.7839    2.2826 H         1 RES1    0.0000
     73 C27        5.5145   -3.8844    1.6864 C.ar      1 RES1    0.0000
     74 H39        5.0909   -3.8680    2.5126 H         1 RES1    0.0000
     75 C28        4.9124   -3.3661    0.5905 C.ar      1 RES1    0.0000
     76 H40        4.0811   -2.9613    0.6871 H         1 RES1    0.0000
     77 C29        5.4739   -3.4121   -0.6530 C.ar      1 RES1    0.0000
     78 H41        5.0205   -3.0666   -1.3883 H         1 RES1    0.0000
     79 C30        6.7446   -3.9886   -0.8063 C.ar      1 RES1    0.0000
     80 H42        7.1563   -4.0029   -1.6410 H         1 RES1    0.0000
@<TRIPOS>BOND
     1    1   43 1
     2    2   44 1
     3    3    5 1
     4    4    6 1
     5    5    7 un
     6    6    7 un
     7    7   32 1
     8    8    5 1
     9    9    6 1
    10   10    8 1
    11   11   10 1
    12   12   10 1
    13   13   10 1
    14   14    8 1
    15   15   14 1
    16   16   14 1
    17   17   14 1
    18   18   17 1
    19   19   17 1
    20   20   17 1
    21   21    9 1
    22   22   21 1
    23   23   21 1
    24   24   21 1
    25   25    9 1
    26   26   25 1
    27   27   25 1
    28   28   25 1
    29   29   28 1
    30   30   28 1
    31   31   28 1
    32   32   33 ar
    33   33   34 1
    34   35   33 ar
    35   36   35 1
    36   37   35 ar
    37   38   37 1
    38   39   37 ar
    39   40   39 1
    40   41   32 ar
    41   42   41 1
    42   43   45 un
    43   44   45 un
    44   45   70 1
    45   46   43 1
    46   47   44 1
    47   48   46 1
    48   49   48 1
    49   50   48 1
    50   51   48 1
    51   52   46 1
    52   53   52 1
    53   54   52 1
    54   55   52 1
    55   56   55 1
    56   57   55 1
    57   58   55 1
    58   59   47 1
    59   60   59 1
    60   61   59 1
    61   62   59 1
    62   63   47 1
    63   64   63 1
    64   65   63 1
    65   66   63 1
    66   67   66 1
    67   68   66 1
    68   69   66 1
    69   70   71 ar
    70   71   72 1
    71   73   71 ar
    72   74   73 1
    73   75   73 ar
    74   76   75 1
    75   77   75 ar
    76   78   77 1
    77   79   70 ar
    78   80   79 1
    79    8    9 1
    80   39   41 ar
    81   46   47 1
    82   77   79 ar
@<TRIPOS>SUBSTRUCTURE
     1 RES1 1
     2 RES2 3

@<TRIPOS>CRYSIN
   9.9200   10.2220   28.3910  90.0000  90.0000  90.0000  19 1

