# MOL2 file generated by ConQuest
# Please check atom types

@<TRIPOS>MOLECULE
PATRAG
    34    35     1
SMALL
NO_CHARGES
****
Generated from CSD

@<TRIPOS>ATOM
      1 O1         9.0692    6.3526    4.7856 O.3       1 RES1    0.0000
      2 O2         9.9671   -0.0488    0.6891 O.3       1 RES1    0.0000
      3 N1         9.8397    0.9360    1.7179 N.2       1 RES1    0.0000
      4 N2         9.7550   -2.7017   -1.6737 N.1       1 RES1    0.0000
      5 C1         9.5705    4.5302    1.6398 C.ar      1 RES1    0.0000
      6 H1         9.7614    4.6907    0.7440 H         1 RES1    0.0000
      7 C2         9.4590    5.6036    2.4993 C.ar      1 RES1    0.0000
      8 H2         9.5773    6.4705    2.1856 H         1 RES1    0.0000
      9 C3         9.1679    5.3794    3.8343 C.ar      1 RES1    0.0000
     10 C4         8.9510    4.0808    4.2709 C.ar      1 RES1    0.0000
     11 H3         8.7254    3.9257    5.1592 H         1 RES1    0.0000
     12 C5         9.0652    3.0270    3.4077 C.ar      1 RES1    0.0000
     13 H4         8.9147    2.1636    3.7163 H         1 RES1    0.0000
     14 C6         9.4076    3.2282    2.0652 C.ar      1 RES1    0.0000
     15 C7         9.5914    2.0679    1.1869 C.2       1 RES1    0.0000
     16 C8         9.6018    2.0404   -0.3475 C.3       1 RES1    0.0000
     17 C9         9.4306    0.5247   -0.4968 C.3       1 RES1    0.0000
     18 H5         8.4706    0.3333   -0.5144 H         1 RES1    0.0000
     19 C10       10.0454   -0.1294   -1.6900 C.3       1 RES1    0.0000
     20 H6         9.6489    0.2384   -2.4955 H         1 RES1    0.0000
     21 H7        10.9952    0.0691   -1.7089 H         1 RES1    0.0000
     22 C11        9.8582   -1.5786   -1.6813 C.1       1 RES1    0.0000
     23 C12        9.3993    7.6857    4.4076 C.3       1 RES1    0.0000
     24 H8         8.7903    7.9862    3.7301 H         1 RES1    0.0000
     25 H9        10.2964    7.7079    4.0639 H         1 RES1    0.0000
     26 H10        9.3371    8.2610    5.1730 H         1 RES1    0.0000
     27 C13        8.4394    2.7717   -1.0050 C.3       1 RES1    0.0000
     28 H11        7.6136    2.4809   -0.6098 H         1 RES1    0.0000
     29 H12        8.4299    2.5785   -1.9447 H         1 RES1    0.0000
     30 H13        8.5410    3.7174   -0.8732 H         1 RES1    0.0000
     31 C14       10.9422    2.5598   -0.8632 C.3       1 RES1    0.0000
     32 H14       11.0262    3.4932   -0.6549 H         1 RES1    0.0000
     33 H15       10.9879    2.4393   -1.8142 H         1 RES1    0.0000
     34 H16       11.6562    2.0732   -0.4454 H         1 RES1    0.0000
@<TRIPOS>BOND
     1    1    9 1
     2    2    3 1
     3    3   15 2
     4    4   22 3
     5    5    6 1
     6    7    5 ar
     7    8    7 1
     8    9    7 ar
     9   10    9 ar
    10   11   10 1
    11   12   10 ar
    12   13   12 1
    13   14    5 ar
    14   15   14 1
    15   16   15 1
    16   17    2 1
    17   18   17 1
    18   19   17 1
    19   20   19 1
    20   21   19 1
    21   22   19 1
    22   23    1 1
    23   24   23 1
    24   25   23 1
    25   26   23 1
    26   27   16 1
    27   28   27 1
    28   29   27 1
    29   30   27 1
    30   31   16 1
    31   32   31 1
    32   33   31 1
    33   34   31 1
    34   12   14 ar
    35   16   17 1
@<TRIPOS>SUBSTRUCTURE
     1 RES1 1

@<TRIPOS>CRYSIN
  11.7785    8.8637   13.5121  90.0000 111.7900  90.0000 231 1

