# MOL2 file generated by ConQuest
# Please check atom types

@<TRIPOS>MOLECULE
PATTUC
    42    45     1
SMALL
NO_CHARGES
****
Generated from CSD

@<TRIPOS>ATOM
      1 C1        -0.0744    5.0463    7.8538 C.ar      1 RES1    0.0000
      2 C2        -0.3652    3.7138    7.7159 C.ar      1 RES1    0.0000
      3 H1        -1.0502    3.3091    8.1967 H         1 RES1    0.0000
      4 C3         0.4237    2.9973    6.8135 C.ar      1 RES1    0.0000
      5 H2         0.2650    2.0901    6.6832 H         1 RES1    0.0000
      6 C4         1.4389    3.6219    6.1121 C.ar      1 RES1    0.0000
      7 H3         1.9643    3.1341    5.5202 H         1 RES1    0.0000
      8 C5         1.6732    4.9700    6.2919 C.ar      1 RES1    0.0000
      9 H4         2.3497    5.3933    5.8150 H         1 RES1    0.0000
     10 C6         0.9114    5.6778    7.1682 C.ar      1 RES1    0.0000
     11 C7         1.0037    7.1197    7.6515 C.3       1 RES1    0.0000
     12 C8         2.1457    7.2331    8.6673 C.3       1 RES1    0.0000
     13 H5         1.9692    6.6563    9.4137 H         1 RES1    0.0000
     14 H6         2.2134    8.1403    8.9733 H         1 RES1    0.0000
     15 H7         2.9716    6.9731    8.2507 H         1 RES1    0.0000
     16 C9        -0.5014    8.1071    9.4020 C.ar      1 RES1    0.0000
     17 C10       -0.7576    7.6838   10.6796 C.ar      1 RES1    0.0000
     18 H8        -0.8008    6.7737   10.8643 H         1 RES1    0.0000
     19 C11       -0.9509    8.5959   11.6879 C.ar      1 RES1    0.0000
     20 H9        -1.1175    8.2948   12.5521 H         1 RES1    0.0000
     21 C12       -0.9023    9.9175   11.4425 C.ar      1 RES1    0.0000
     22 H10       -1.0450   10.5246   12.1315 H         1 RES1    0.0000
     23 C13       -0.6437   10.3633   10.1860 C.ar      1 RES1    0.0000
     24 H11       -0.5912   11.2774   10.0212 H         1 RES1    0.0000
     25 C14       -0.4581    9.4669    9.1550 C.ar      1 RES1    0.0000
     26 H12       -0.3049    9.7768    8.2920 H         1 RES1    0.0000
     27 C15        1.0864    8.1227    6.5015 C.ar      1 RES1    0.0000
     28 C16        0.0106    8.3143    5.6511 C.ar      1 RES1    0.0000
     29 H13       -0.7856    7.8637    5.8186 H         1 RES1    0.0000
     30 C17        0.0918    9.1531    4.5648 C.ar      1 RES1    0.0000
     31 H14       -0.6525    9.2606    4.0175 H         1 RES1    0.0000
     32 C18        1.2502    9.8364    4.2697 C.ar      1 RES1    0.0000
     33 C19        2.3079    9.6653    5.1246 C.ar      1 RES1    0.0000
     34 H15        3.0988   10.1248    4.9594 H         1 RES1    0.0000
     35 C20        2.2347    8.8275    6.2318 C.ar      1 RES1    0.0000
     36 H16        2.9705    8.7425    6.7947 H         1 RES1    0.0000
     37 C21        1.3471   10.7329    3.0535 C.3       1 RES1    0.0000
     38 H17        1.8016   11.5452    3.2895 H         1 RES1    0.0000
     39 H18        0.4643   10.9401    2.7376 H         1 RES1    0.0000
     40 H19        1.8365   10.2822    2.3620 H         1 RES1    0.0000
     41 N1        -0.3719    7.2233    8.2767 N.3       1 RES1    0.0000
     42 O1        -0.7349    5.8772    8.7360 O.3       1 RES1    0.0000
@<TRIPOS>BOND
     1    1    2 ar
     2    2    3 1
     3    4    2 ar
     4    5    4 1
     5    6    4 ar
     6    7    6 1
     7    8    6 ar
     8    9    8 1
     9   10    1 ar
    10   11   10 1
    11   12   11 1
    12   13   12 1
    13   14   12 1
    14   15   12 1
    15   16   17 ar
    16   17   18 1
    17   19   17 ar
    18   20   19 1
    19   21   19 ar
    20   22   21 1
    21   23   21 ar
    22   24   23 1
    23   25   16 ar
    24   26   25 1
    25   27   11 1
    26   28   27 ar
    27   29   28 1
    28   30   28 ar
    29   31   30 1
    30   32   30 ar
    31   33   32 ar
    32   34   33 1
    33   35   27 ar
    34   36   35 1
    35   37   32 1
    36   38   37 1
    37   39   37 1
    38   40   37 1
    39   41   11 1
    40   42    1 1
    41    8   10 ar
    42   16   41 1
    43   23   25 ar
    44   33   35 ar
    45   41   42 1
@<TRIPOS>SUBSTRUCTURE
     1 RES1 1

@<TRIPOS>CRYSIN
   9.4297    9.7758   18.5030  90.0000 103.7170  90.0000  14 1

