# MOL2 file generated by ConQuest
# Please check atom types

@<TRIPOS>MOLECULE
PATVIS
    46    50     1
SMALL
NO_CHARGES
****
Generated from CSD

@<TRIPOS>ATOM
      1 C1         7.3172    8.4619    4.3110 C.ar      1 RES1    0.0000
      2 C2         7.2524    8.2101    5.8217 C.3       1 RES1    0.0000
      3 C3         6.0955    7.3071    6.2507 C.ar      1 RES1    0.0000
      4 C4         9.3106    6.7708    5.4760 C.ar      1 RES1    0.0000
      5 C5         7.2525    9.4994    6.6196 C.ar      1 RES1    0.0000
      6 C6         7.0922    7.4219    3.4191 C.ar      1 RES1    0.0000
      7 H1         6.8548    6.5827    3.7414 H         1 RES1    0.0000
      8 C7         8.5242    9.7657    7.0468 C.ar      1 RES1    0.0000
      9 C8         9.0158    5.4256    5.4913 C.ar      1 RES1    0.0000
     10 H2         8.3439    5.1048    6.0492 H         1 RES1    0.0000
     11 C9         7.6873    9.6879    3.7961 C.ar      1 RES1    0.0000
     12 H3         7.8396   10.4004    4.3737 H         1 RES1    0.0000
     13 C10        6.2051    6.5199    7.3862 C.ar      1 RES1    0.0000
     14 H4         7.0108    6.4933    7.8500 H         1 RES1    0.0000
     15 C11        6.2284   10.3704    6.9187 C.ar      1 RES1    0.0000
     16 H5         5.3567   10.1958    6.6456 H         1 RES1    0.0000
     17 C12        4.8846    7.3486    5.5960 C.ar      1 RES1    0.0000
     18 H6         4.7822    7.8877    4.8465 H         1 RES1    0.0000
     19 C13        7.2182    7.6181    2.0525 C.ar      1 RES1    0.0000
     20 H7         7.0558    6.9144    1.4660 H         1 RES1    0.0000
     21 C14       10.3160    7.2350    4.6522 C.ar      1 RES1    0.0000
     22 H8        10.5195    8.1419    4.6298 H         1 RES1    0.0000
     23 C15        7.8340    9.8740    2.4358 C.ar      1 RES1    0.0000
     24 H9         8.1048   10.7023    2.1089 H         1 RES1    0.0000
     25 C16        9.7118    4.5501    4.6826 C.ar      1 RES1    0.0000
     26 H10        9.4964    3.6449    4.6862 H         1 RES1    0.0000
     27 C17        7.5813    8.8457    1.5627 C.ar      1 RES1    0.0000
     28 H11        7.6565    8.9802    0.6457 H         1 RES1    0.0000
     29 C18        6.5345   11.5163    7.6396 C.ar      1 RES1    0.0000
     30 H12        5.8594   12.1205    7.8518 H         1 RES1    0.0000
     31 C19        8.8547   10.9007    7.7533 C.ar      1 RES1    0.0000
     32 H13        9.7297   11.0698    8.0211 H         1 RES1    0.0000
     33 C20        7.8309   11.7709    8.0444 C.ar      1 RES1    0.0000
     34 H14        8.0141   12.5456    8.5244 H         1 RES1    0.0000
     35 C21       10.7210    5.0067    3.8731 C.ar      1 RES1    0.0000
     36 H15       11.1987    4.4156    3.3385 H         1 RES1    0.0000
     37 C22       11.0167    6.3463    3.8614 C.ar      1 RES1    0.0000
     38 H16       11.6987    6.6601    3.3134 H         1 RES1    0.0000
     39 C23        3.9494    5.7925    7.1695 C.ar      1 RES1    0.0000
     40 H17        3.2375    5.2717    7.4641 H         1 RES1    0.0000
     41 C24        5.1338    5.7748    7.8393 C.ar      1 RES1    0.0000
     42 H18        5.2232    5.2578    8.6068 H         1 RES1    0.0000
     43 C25        3.8122    6.5872    6.0510 C.ar      1 RES1    0.0000
     44 H19        2.9999    6.6144    5.5987 H         1 RES1    0.0000
     45 N1         8.5554    7.6128    6.3519 N.3       1 RES1    0.0000
     46 O1         9.4158    8.7857    6.6778 O.3       1 RES1    0.0000
@<TRIPOS>BOND
     1    1    2 1
     2    2    3 1
     3    3   13 ar
     4    4    9 ar
     5    5    2 1
     6    6    1 ar
     7    7    6 1
     8    8    5 ar
     9    9   10 1
    10   11    1 ar
    11   12   11 1
    12   13   14 1
    13   15    5 ar
    14   16   15 1
    15   17    3 ar
    16   18   17 1
    17   19    6 ar
    18   20   19 1
    19   21    4 ar
    20   22   21 1
    21   23   11 ar
    22   24   23 1
    23   25    9 ar
    24   26   25 1
    25   27   19 ar
    26   28   27 1
    27   29   15 ar
    28   30   29 1
    29   31    8 ar
    30   32   31 1
    31   33   29 ar
    32   34   33 1
    33   35   25 ar
    34   36   35 1
    35   37   21 ar
    36   38   37 1
    37   39   40 1
    38   41   13 ar
    39   42   41 1
    40   43   17 ar
    41   44   43 1
    42   45    2 1
    43   46    8 1
    44    4   45 1
    45   23   27 ar
    46   31   33 ar
    47   35   37 ar
    48   39   41 ar
    49   39   43 ar
    50   45   46 1
@<TRIPOS>SUBSTRUCTURE
     1 RES1 1

@<TRIPOS>CRYSIN
  10.4008   19.8632    8.9591  90.0000  91.7100  90.0000  14 1

