# MOL2 file generated by ConQuest
# Please check atom types

@<TRIPOS>MOLECULE
PAVDOH
    34    35     1
SMALL
NO_CHARGES
****
Generated from CSD

@<TRIPOS>ATOM
      1 N1        27.7980    2.7443    3.8998 N.pl3     1 RES1    0.0000
      2 N2        23.0996    1.2664    2.5131 N.2       1 RES1    0.0000
      3 N3        21.7711    0.9644    2.4632 N.am      1 RES1    0.0000
      4 O1        29.0167    2.8377    3.9541 O.2       1 RES1    0.0000
      5 O2        27.0472    3.4527    4.5278 O.2       1 RES1    0.0000
      6 O3        21.1751    3.0023    3.2095 O.2       1 RES1    0.0000
      7 C1        25.3346    0.5748    2.1987 C.ar      1 RES1    0.0000
      8 C2        25.8817    1.5378    3.0168 C.ar      1 RES1    0.0000
      9 H1        25.3353    2.0528    3.5669 H         1 RES1    0.0000
     10 C3        27.2284    1.7254    3.0116 C.ar      1 RES1    0.0000
     11 C4        28.0772    1.0137    2.1969 C.ar      1 RES1    0.0000
     12 H2        28.9929    1.1716    2.2083 H         1 RES1    0.0000
     13 C5        27.5380    0.0665    1.3691 C.ar      1 RES1    0.0000
     14 H3        28.0883   -0.4217    0.8006 H         1 RES1    0.0000
     15 C6        26.1834   -0.1632    1.3770 C.ar      1 RES1    0.0000
     16 H4        25.8284   -0.8218    0.8252 H         1 RES1    0.0000
     17 C7        23.8896    0.3360    2.1575 C.2       1 RES1    0.0000
     18 H5        23.5555   -0.4844    1.8746 H         1 RES1    0.0000
     19 C8        20.8577    1.8867    2.8171 C.2       1 RES1    0.0000
     20 C9        19.4401    1.4693    2.7076 C.ar      1 RES1    0.0000
     21 C10       18.4829    2.1250    3.4539 C.ar      1 RES1    0.0000
     22 H6        18.7419    2.7956    4.0443 H         1 RES1    0.0000
     23 C11       17.1521    1.8010    3.3365 C.ar      1 RES1    0.0000
     24 H7        16.5310    2.2399    3.8700 H         1 RES1    0.0000
     25 C12       16.7217    0.8481    2.4536 C.ar      1 RES1    0.0000
     26 C13       17.6802    0.1919    1.7064 C.ar      1 RES1    0.0000
     27 H8        17.4160   -0.4729    1.1116 H         1 RES1    0.0000
     28 C14       19.0201    0.5011    1.8246 C.ar      1 RES1    0.0000
     29 H9        19.6432    0.0512    1.3034 H         1 RES1    0.0000
     30 C15       15.2619    0.4777    2.2889 C.3       1 RES1    0.0000
     31 H10       14.7120    1.1913    2.6191 H         1 RES1    0.0000
     32 H11       15.0777   -0.3245    2.7829 H         1 RES1    0.0000
     33 H12       15.0712    0.3312    1.3586 H         1 RES1    0.0000
     34 H13       21.5144    0.1197    2.3301 H         1 RES1    0.0000
@<TRIPOS>BOND
     1    1    4 2
     2    2    3 1
     3    3   19 1
     4    5    1 2
     5    6   19 2
     6    7    8 ar
     7    8    9 1
     8   10    1 1
     9   11   10 ar
    10   12   11 1
    11   13   11 ar
    12   14   13 1
    13   15    7 ar
    14   16   15 1
    15   17    2 2
    16   18   17 1
    17   19   20 1
    18   20   21 ar
    19   21   22 1
    20   23   21 ar
    21   24   23 1
    22   25   23 ar
    23   26   25 ar
    24   27   26 1
    25   28   20 ar
    26   29   28 1
    27   30   25 1
    28   31   30 1
    29   32   30 1
    30   33   30 1
    31   34    3 1
    32    7   17 1
    33    8   10 ar
    34   13   15 ar
    35   26   28 ar
@<TRIPOS>SUBSTRUCTURE
     1 RES1 1

@<TRIPOS>CRYSIN
  32.6570    4.7861    8.7596  90.0000  90.0000  90.0000  29 1

