# MOL2 file generated by ConQuest
# Please check atom types

@<TRIPOS>MOLECULE
PAVFEZ
    46    44     2
SMALL
NO_CHARGES
****
Generated from CSD

@<TRIPOS>ATOM
      1 C1         6.8848    7.4917    4.6026 C.2       1 RES1    0.0000
      2 H1         7.6437    7.7192    4.1152 H         1 RES1    0.0000
      3 C2         6.4945    6.0891    4.7146 C.ar      1 RES1    0.0000
      4 C3         5.7107    5.6232    5.7608 C.ar      1 RES1    0.0000
      5 H2         5.4222    6.2171    6.4153 H         1 RES1    0.0000
      6 C4         5.3520    4.2956    5.8467 C.ar      1 RES1    0.0000
      7 H3         4.8241    3.9981    6.5522 H         1 RES1    0.0000
      8 C5         5.7806    3.4114    4.8814 C.ar      1 RES1    0.0000
      9 H4         5.5324    2.5170    4.9355 H         1 RES1    0.0000
     10 C6         6.5749    3.8370    3.8342 C.ar      1 RES1    0.0000
     11 H5         6.8622    3.2325    3.1888 H         1 RES1    0.0000
     12 C7         6.9405    5.1713    3.7520 C.ar      1 RES1    0.0000
     13 C8         8.2154    4.8313    1.7350 C.3       1 RES1    0.0000
     14 H6         7.4840    4.5544    1.1603 H         1 RES1    0.0000
     15 H7         8.6200    4.0386    2.1209 H         1 RES1    0.0000
     16 C9         9.2279    5.5950    0.9482 C.2       1 RES1    0.0000
     17 C10       10.6681    5.3874    1.2625 C.2       1 RES1    0.0000
     18 C11       12.2098    4.3876    2.7407 C.3       1 RES1    0.0000
     19 H8        12.7334    4.2157    1.9544 H         1 RES1    0.0000
     20 H9        12.2395    3.6213    3.3177 H         1 RES1    0.0000
     21 H10       12.5672    5.1496    3.2025 H         1 RES1    0.0000
     22 C12        8.9632    6.4656   -0.0335 C.2       1 RES1    0.0000
     23 H11        9.7181    6.8578   -0.4096 H         1 RES1    0.0000
     24 C13        7.7044    6.9083   -0.6176 C.ar      1 RES1    0.0000
     25 C14        6.4532    6.8171   -0.0185 C.ar      1 RES1    0.0000
     26 H12        6.3813    6.4697    0.8408 H         1 RES1    0.0000
     27 C15        5.3182    7.2337   -0.6788 C.ar      1 RES1    0.0000
     28 H13        4.4925    7.1496   -0.2601 H         1 RES1    0.0000
     29 C16        5.3782    7.7748   -1.9507 C.ar      1 RES1    0.0000
     30 C17        6.6224    7.9047   -2.5328 C.ar      1 RES1    0.0000
     31 H14        6.6923    8.2828   -3.3794 H         1 RES1    0.0000
     32 C18        7.7568    7.4874   -1.8872 C.ar      1 RES1    0.0000
     33 H15        8.5816    7.5921   -2.3046 H         1 RES1    0.0000
     34 C19        4.1226    8.1955   -2.6689 C.3       1 RES1    0.0000
     35 H16        3.3568    7.9362   -2.1517 H         1 RES1    0.0000
     36 H17        4.0881    7.7692   -3.5288 H         1 RES1    0.0000
     37 H18        4.1235    9.1485   -2.7838 H         1 RES1    0.0000
     38 N1         6.2047    8.4011    5.1588 N.2       1 RES1    0.0000
     39 O1         6.7627    9.6743    4.9528 O.3       1 RES1    0.0000
     40 H19        6.2769   10.2436    5.2881 H         1 RES1    0.0000
     41 O2         7.7294    5.6982    2.7750 O.3       1 RES1    0.0000
     42 O3        11.5764    5.7961    0.6095 O.2       1 RES1    0.0000
     43 O4        10.8429    4.6515    2.3609 O.3       1 RES1    0.0000
     44 H20        3.5459    7.4358   -2.7758 Du        2 SUP2    0.0000
     45 H21        3.6718    8.8703   -2.1563 Du        2 SUP2    0.0000
     46 H22        4.3508    8.5478   -3.5322 Du        2 SUP2    0.0000
@<TRIPOS>BOND
     1    1    2 1
     2    3    1 1
     3    4    3 ar
     4    5    4 1
     5    6    4 ar
     6    7    6 1
     7    8    6 ar
     8    9    8 1
     9   10    8 ar
    10   11   10 1
    11   12    3 ar
    12   13   14 1
    13   15   13 1
    14   16   13 1
    15   17   16 1
    16   18   19 1
    17   20   18 1
    18   21   18 1
    19   22   16 2
    20   23   22 1
    21   24   22 1
    22   25   24 ar
    23   26   25 1
    24   27   25 ar
    25   28   27 1
    26   29   27 ar
    27   30   29 ar
    28   31   30 1
    29   32   24 ar
    30   33   32 1
    31   34   29 1
    32   35   34 1
    33   36   34 1
    34   37   34 1
    35   38    1 2
    36   39   38 1
    37   40   39 1
    38   41   12 1
    39   42   17 2
    40   43   17 1
    41   10   12 ar
    42   13   41 1
    43   18   43 1
    44   30   32 ar
@<TRIPOS>SUBSTRUCTURE
     1 RES1 1
     2 SUP2 44

@<TRIPOS>CRYSIN
   8.8683    9.3246   11.9259  75.2000  76.4530  65.1420   2 1

