# MOL2 file generated by ConQuest
# Please check atom types

@<TRIPOS>MOLECULE
PAVJAY01
    32    33     1
SMALL
NO_CHARGES
****
Generated from CSD

@<TRIPOS>ATOM
      1 O1        10.6513    7.7731    2.8306 O.2       1 RES1    0.0000
      2 C1         5.3912    6.6018    8.1298 C.ar      1 RES1    0.0000
      3 N1         9.9565    7.6916    3.8291 N.pl3     1 RES1    0.0000
      4 O2         6.1433    6.7041    6.9292 O.3       1 RES1    0.0000
      5 O3        10.2475    8.1790    4.9138 O.2       1 RES1    0.0000
      6 O4         4.7500    5.3347    5.8120 O.2       1 RES1    0.0000
      7 C2         8.6899    6.9533    3.7225 C.ar      1 RES1    0.0000
      8 C3         7.8761    6.8631    4.8330 C.ar      1 RES1    0.0000
      9 H1         8.1289    7.2657    5.6550 H         1 RES1    0.0000
     10 C4         8.3677    6.4037    2.5063 C.ar      1 RES1    0.0000
     11 H2         8.9370    6.4947    1.7516 H         1 RES1    0.0000
     12 O5         5.7109    4.5037    1.1175 O.2       1 RES1    0.0000
     13 C5         6.6859    6.1744    4.7197 C.ar      1 RES1    0.0000
     14 O6         7.5328    5.2068    0.2121 O.2       1 RES1    0.0000
     15 C6         4.1418    7.1555    8.2192 C.ar      1 RES1    0.0000
     16 H3         3.7362    7.5741    7.4690 H         1 RES1    0.0000
     17 N2         6.7820    5.0990    1.1580 N.pl3     1 RES1    0.0000
     18 C7         6.3369    5.5879    3.5068 C.ar      1 RES1    0.0000
     19 H4         5.5224    5.1054    3.4252 H         1 RES1    0.0000
     20 C8         6.0051    6.0090    9.1940 C.ar      1 RES1    0.0000
     21 H5         6.8763    5.6399    9.1088 H         1 RES1    0.0000
     22 C9         7.1743    5.7110    2.4330 C.ar      1 RES1    0.0000
     23 C10        5.3326    5.9578   10.3973 C.ar      1 RES1    0.0000
     24 H6         5.7536    5.5528   11.1463 H         1 RES1    0.0000
     25 C11        5.7357    6.0090    5.8554 C.2       1 RES1    0.0000
     26 C12        3.4910    7.0860    9.4336 C.ar      1 RES1    0.0000
     27 H7         2.6243    7.4663    9.5142 H         1 RES1    0.0000
     28 C13        4.0616    6.4804   10.5384 C.ar      1 RES1    0.0000
     29 C14        3.3203    6.4045   11.8516 C.3       1 RES1    0.0000
     30 H8         3.5922    7.1515   12.4249 H         1 RES1    0.0000
     31 H9         3.5311    5.5576   12.2975 H         1 RES1    0.0000
     32 H10        2.3556    6.4540   11.6868 H         1 RES1    0.0000
@<TRIPOS>BOND
     1    1    3 2
     2    2    4 1
     3    3    5 2
     4    4   25 1
     5    6   25 2
     6    7    3 1
     7    8    7 ar
     8    9    8 1
     9   10    7 ar
    10   11   10 1
    11   12   17 2
    12   13    8 ar
    13   14   17 2
    14   15    2 ar
    15   16   15 1
    16   17   22 1
    17   18   13 ar
    18   19   18 1
    19   20    2 ar
    20   21   20 1
    21   22   10 ar
    22   23   20 ar
    23   24   23 1
    24   25   13 1
    25   26   15 ar
    26   27   26 1
    27   28   23 ar
    28   29   28 1
    29   30   29 1
    30   31   29 1
    31   32   29 1
    32   18   22 ar
    33   26   28 ar
@<TRIPOS>SUBSTRUCTURE
     1 RES1 1

@<TRIPOS>CRYSIN
   6.3681    7.9896   25.9880  90.0000  90.0000  90.0000  19 1

