# MOL2 file generated by ConQuest
# Please check atom types

@<TRIPOS>MOLECULE
PAVMIK
    52    56     1
SMALL
NO_CHARGES
****
Generated from CSD

@<TRIPOS>ATOM
      1 O1         7.2502    3.4667   12.9182 O.3       1 RES1    0.0000
      2 O2         9.6481   -0.2969   12.2810 O.3       1 RES1    0.0000
      3 O3         5.2497    4.9315   12.0854 O.3       1 RES1    0.0000
      4 N1         8.8717    0.4782   11.2950 N.3       1 RES1    0.0000
      5 C1         7.6353    0.7135   12.0873 C.3       1 RES1    0.0000
      6 H1         7.2043   -0.1425   12.2924 H         1 RES1    0.0000
      7 C2         8.2615    1.2950   13.3558 C.3       1 RES1    0.0000
      8 C3         6.4680    2.9331   11.9388 C.ar      1 RES1    0.0000
      9 C4         6.6474    1.6397   11.4489 C.ar      1 RES1    0.0000
     10 C5         9.8244   -0.3160   14.6647 C.ar      1 RES1    0.0000
     11 C6         9.6229    0.5362   13.4442 C.3       1 RES1    0.0000
     12 H2        10.3533    1.1864   13.3865 H         1 RES1    0.0000
     13 C7         8.7002   -0.3665   10.1432 C.ar      1 RES1    0.0000
     14 C8         8.4871    2.7838   13.1099 C.3       1 RES1    0.0000
     15 H3         8.9535    3.1692   13.8684 H         1 RES1    0.0000
     16 H4         9.0438    2.8999   12.3245 H         1 RES1    0.0000
     17 C9         5.3989    3.7160   11.4769 C.ar      1 RES1    0.0000
     18 C10        5.7936    1.1766   10.4492 C.ar      1 RES1    0.0000
     19 H5         5.9100    0.3213   10.1024 H         1 RES1    0.0000
     20 C11       10.6538    0.1131   15.6812 C.ar      1 RES1    0.0000
     21 H6        11.1075    0.9209   15.5962 H         1 RES1    0.0000
     22 C12        7.3833    1.1245   14.5260 C.1       1 RES1    0.0000
     23 C13        4.5807    3.2318   10.4899 C.ar      1 RES1    0.0000
     24 H7         3.8844    3.7567   10.1648 H         1 RES1    0.0000
     25 C14        4.0346    5.6551   11.8332 C.3       1 RES1    0.0000
     26 H8         3.2750    5.0547   11.8837 H         1 RES1    0.0000
     27 H9         4.0593    6.0442   10.9448 H         1 RES1    0.0000
     28 C15        8.7988    0.2338    8.9063 C.ar      1 RES1    0.0000
     29 H10        8.9782    1.1441    8.8458 H         1 RES1    0.0000
     30 C16        4.7872    1.9670    9.9755 C.ar      1 RES1    0.0000
     31 H11        4.2345    1.6510    9.2974 H         1 RES1    0.0000
     32 N2         6.6727    1.0491   15.4107 N.1       1 RES1    0.0000
     33 C17        9.1561   -1.5220   14.8210 C.ar      1 RES1    0.0000
     34 H12        8.5887   -1.8267   14.1504 H         1 RES1    0.0000
     35 C18        8.2766   -2.4700    9.0850 C.ar      1 RES1    0.0000
     36 H13        8.1036   -3.3826    9.1385 H         1 RES1    0.0000
     37 C19        8.4171   -1.7226   10.2435 C.ar      1 RES1    0.0000
     38 H14        8.3227   -2.1239   11.0769 H         1 RES1    0.0000
     39 C20        9.3288   -2.2664   15.9592 C.ar      1 RES1    0.0000
     40 H15        8.8755   -3.0719   16.0585 H         1 RES1    0.0000
     41 C21        8.3927   -1.8599    7.8491 C.ar      1 RES1    0.0000
     42 H16        8.3081   -2.3675    7.0752 H         1 RES1    0.0000
     43 C22        8.6317   -0.5129    7.7569 C.ar      1 RES1    0.0000
     44 H17        8.6806   -0.1033    6.9235 H         1 RES1    0.0000
     45 C23        3.9046    6.7162   12.8437 C.3       1 RES1    0.0000
     46 H18        3.0974    7.2118   12.6851 H         1 RES1    0.0000
     47 H19        4.6593    7.3068   12.7868 H         1 RES1    0.0000
     48 H20        3.8712    6.3225   13.7185 H         1 RES1    0.0000
     49 C24       10.1704   -1.8252   16.9541 C.ar      1 RES1    0.0000
     50 H21       10.2967   -2.3396   17.7184 H         1 RES1    0.0000
     51 C25       10.8152   -0.6426   16.8179 C.ar      1 RES1    0.0000
     52 H22       11.3715   -0.3386   17.4989 H         1 RES1    0.0000
@<TRIPOS>BOND
     1    1    8 1
     2    2    4 1
     3    3   17 1
     4    4    5 1
     5    5    6 1
     6    7    5 1
     7    8    9 ar
     8    9    5 1
     9   10   11 1
    10   11    2 1
    11   12   11 1
    12   13    4 1
    13   14    1 1
    14   15   14 1
    15   16   14 1
    16   17    8 ar
    17   18    9 ar
    18   19   18 1
    19   20   10 ar
    20   21   20 1
    21   22    7 1
    22   23   17 ar
    23   24   23 1
    24   25    3 1
    25   26   25 1
    26   27   25 1
    27   28   13 ar
    28   29   28 1
    29   30   18 ar
    30   31   30 1
    31   32   22 3
    32   33   10 ar
    33   34   33 1
    34   35   36 1
    35   37   13 ar
    36   38   37 1
    37   39   33 ar
    38   40   39 1
    39   41   35 ar
    40   42   41 1
    41   43   28 ar
    42   44   43 1
    43   45   25 1
    44   46   45 1
    45   47   45 1
    46   48   45 1
    47   49   39 ar
    48   50   49 1
    49   51   20 ar
    50   52   51 1
    51    7   11 1
    52    7   14 1
    53   23   30 ar
    54   35   37 ar
    55   41   43 ar
    56   49   51 ar
@<TRIPOS>SUBSTRUCTURE
     1 RES1 1

@<TRIPOS>CRYSIN
  15.2994    7.5421   18.7248  90.0000 107.5960  90.0000  14 1

