# MOL2 file generated by ConQuest
# Please check atom types

@<TRIPOS>MOLECULE
PAVVEN
    34    36     1
SMALL
NO_CHARGES
****
Generated from CSD

@<TRIPOS>ATOM
      1 O1         5.5508    0.7412    2.2102 O.3       1 RES1    0.0000
      2 O2         2.7230    1.0859    1.3390 O.3       1 RES1    0.0000
      3 O3         2.9089    2.8412    4.5439 O.3       1 RES1    0.0000
      4 O4         4.5269   -0.9809   -3.0886 O.2       1 RES1    0.0000
      5 O5         5.1185    0.8072   -2.0646 O.2       1 RES1    0.0000
      6 N1         2.6413    2.0739   -0.7804 N.pl3     1 RES1    0.0000
      7 N2         4.2893    0.1391   -2.6695 N.pl3     1 RES1    0.0000
      8 C1         3.5250    1.4904    0.2211 C.3       1 RES1    0.0000
      9 C2         1.6686    3.0136   -0.4392 C.2       1 RES1    0.0000
     10 C3         4.5611    2.4466    0.7864 C.3       1 RES1    0.0000
     11 C4         4.7589    1.9177    2.1907 C.3       1 RES1    0.0000
     12 C5         0.7822    3.1361   -1.4405 C.2       1 RES1    0.0000
     13 C6         0.6295    1.9661   -3.7324 C.ar      1 RES1    0.0000
     14 C7         3.3555    1.4994    2.5699 C.3       1 RES1    0.0000
     15 C8         1.2259    1.0503   -4.5342 C.ar      1 RES1    0.0000
     16 C9         2.5005    2.5744    3.1961 C.3       1 RES1    0.0000
     17 C10        2.3965    0.4150   -4.1426 C.ar      1 RES1    0.0000
     18 C11        2.9750    0.7207   -2.9202 C.ar      1 RES1    0.0000
     19 C12        2.3551    1.6077   -2.0470 C.ar      1 RES1    0.0000
     20 C13        1.1720    2.2643   -2.4738 C.ar      1 RES1    0.0000
     21 H1         3.9305    0.6742   -0.1343 H         1 RES1    0.0000
     22 H2         1.7013    3.4518    0.4340 H         1 RES1    0.0000
     23 H3         5.3712    2.4072    0.2687 H         1 RES1    0.0000
     24 H4         4.2046    3.3806    0.7957 H         1 RES1    0.0000
     25 H5         6.2940    0.9021    2.2837 H         1 RES1    0.0000
     26 H6         0.0569    3.6702   -1.4363 H         1 RES1    0.0000
     27 H7         5.1297    2.5497    2.7383 H         1 RES1    0.0000
     28 H8        -0.1405    2.4785   -4.0506 H         1 RES1    0.0000
     29 H9         3.3946    0.7122    3.1403 H         1 RES1    0.0000
     30 H10        1.5457    2.2933    3.1517 H         1 RES1    0.0000
     31 H11        2.8186    2.0749    4.9910 H         1 RES1    0.0000
     32 H12        0.8893    0.8689   -5.3630 H         1 RES1    0.0000
     33 H13        2.6224    3.4993    2.7280 H         1 RES1    0.0000
     34 H14        2.8315   -0.2327   -4.6293 H         1 RES1    0.0000
@<TRIPOS>BOND
     1    1   11 1
     2    2    8 1
     3    3   16 1
     4    4    7 2
     5    5    7 2
     6    6    8 1
     7    7   18 1
     8    8   10 1
     9    9    6 1
    10   10   11 1
    11   11   14 1
    12   12    9 2
    13   13   15 ar
    14   14    2 1
    15   15   17 ar
    16   16   14 1
    17   17   18 ar
    18   18   19 ar
    19   19    6 1
    20   20   12 1
    21   21    8 1
    22   22    9 1
    23   23   10 1
    24   24   10 1
    25   25    1 1
    26   26   12 1
    27   27   11 1
    28   28   13 1
    29   29   14 1
    30   30   16 1
    31   31    3 1
    32   32   15 1
    33   33   16 1
    34   34   17 1
    35   13   20 ar
    36   19   20 ar
@<TRIPOS>SUBSTRUCTURE
     1 RES1 1

@<TRIPOS>CRYSIN
  12.8970    4.7480   12.8880  90.0000 126.7000  90.0000   4 1

