# MOL2 file generated by ConQuest
# Please check atom types

@<TRIPOS>MOLECULE
PAVYOB
   200   205     5
SMALL
NO_CHARGES
****
Generated from CSD

@<TRIPOS>ATOM
      1 N1        23.3272    5.3942   14.2658 N.am      1 RES1    0.0000
      2 H1        23.9983    4.8658   14.3714 H         1 RES1    0.0000
      3 O1        21.9067    3.6493   14.4179 O.2       1 RES1    0.0000
      4 N2        21.0347    5.7203   14.1662 N.am      1 RES1    0.0000
      5 O2        19.0583    5.6253   12.9702 O.3       1 RES1    0.0000
      6 O3        25.7509    6.2139   14.1767 O.3       1 RES1    0.0000
      7 H2        26.4962    6.5426   14.0819 H         1 RES1    0.0000
      8 C1        23.5927    6.7318   14.0874 C.2       1 RES1    0.0000
      9 C2        17.6738    5.8886   13.1872 C.3       1 RES1    0.0000
     10 H3        17.1469    5.1989   12.7302 H         1 RES1    0.0000
     11 O4        16.8347    4.5004   14.9403 O.3       1 RES1    0.0000
     12 N3        24.7708    7.2236   14.0427 N.2       1 RES1    0.0000
     13 C3        22.0778    4.8457   14.2868 C.2       1 RES1    0.0000
     14 C4        19.6780    5.2276   14.1804 C.3       1 RES1    0.0000
     15 H4        19.6846    4.2501   14.2414 H         1 RES1    0.0000
     16 C5        22.4667    7.5977   13.9442 C.2       1 RES1    0.0000
     17 H5        22.5853    8.5133   13.8289 H         1 RES1    0.0000
     18 C6        18.8119    5.8032   15.2858 C.3       1 RES1    0.0000
     19 H6        18.8583    5.2582   16.0877 H         1 RES1    0.0000
     20 H7        19.0820    6.7100   15.5042 H         1 RES1    0.0000
     21 C7        17.4262    5.7761   14.6918 C.3       1 RES1    0.0000
     22 H8        16.8682    6.5095   15.0278 H         1 RES1    0.0000
     23 C8        15.6016    4.4838   15.3891 C.2       1 RES1    0.0000
     24 O5        14.9769    5.4840   15.6250 O.2       1 RES1    0.0000
     25 O6        18.0931    8.2326   13.2670 O.3       1 RES1    0.0000
     26 C9        17.3249    7.2202   12.6049 C.3       1 RES1    0.0000
     27 H9        17.5188    7.2254   11.6544 H         1 RES1    0.0000
     28 H10       16.3765    7.3937   12.7234 H         1 RES1    0.0000
     29 C10       15.0536    3.1017   15.4928 C.3       1 RES1    0.0000
     30 H11       14.1026    3.1436   15.6045 H         1 RES1    0.0000
     31 H12       15.4469    2.6587   16.2496 H         1 RES1    0.0000
     32 H13       15.2620    2.6143   14.6928 H         1 RES1    0.0000
     33 C11       21.2412    7.0763   13.9766 C.2       1 RES1    0.0000
     34 H14       20.5057    7.6361   13.8699 H         1 RES1    0.0000
     35 C12       17.7702    9.3766   13.3046 C.2       1 RES1    0.0000
     36 C13       18.6380   10.3210   14.0135 C.3       1 RES1    0.0000
     37 H15       19.0774    9.8702   14.7383 H         1 RES1    0.0000
     38 H16       18.1119   11.0439   14.3600 H         1 RES1    0.0000
     39 H17       19.2988   10.6672   13.4072 H         1 RES1    0.0000
     40 O7        16.9573    9.7071   12.4271 O.2       1 RES1    0.0000
     41 O8        24.7135    2.5977   22.1166 O.2       2 RES2    0.0000
     42 O9        28.4319   -0.0087   22.9707 O.3       2 RES2    0.0000
     43 H18       29.1708   -0.3462   23.0831 H         2 RES2    0.0000
     44 O10       21.7101    0.5372   23.1041 O.3       2 RES2    0.0000
     45 N4        26.0803    0.8258   22.4649 N.am      2 RES2    0.0000
     46 H19       26.7620    1.3499   22.4905 H         2 RES2    0.0000
     47 O11       19.6897    1.8469   20.9640 O.3       2 RES2    0.0000
     48 C14       24.8628    1.3865   22.2384 C.2       2 RES2    0.0000
     49 C15       22.4618    1.0525   22.0375 C.3       2 RES2    0.0000
     50 H20       22.4849    2.0309   22.0916 H         2 RES2    0.0000
     51 N5        23.8038    0.5197   22.1579 N.am      2 RES2    0.0000
     52 C16       26.3059   -0.5232   22.6564 C.2       2 RES2    0.0000
     53 C17       23.9846   -0.8354   22.2985 C.2       2 RES2    0.0000
     54 H21       23.2442   -1.3926   22.2192 H         2 RES2    0.0000
     55 C18       20.2891    0.5677   21.2049 C.3       2 RES2    0.0000
     56 H22       19.8064   -0.1448   20.7353 H         2 RES2    0.0000
     57 O12       20.8072   -1.9672   22.2764 O.3       2 RES2    0.0000
     58 N6        27.4605   -1.0229   22.9051 N.2       2 RES2    0.0000
     59 C19       20.3571    0.2939   22.7079 C.3       2 RES2    0.0000
     60 H23       19.7675    0.9200   23.1765 H         2 RES2    0.0000
     61 C20       25.1680   -1.3882   22.5433 C.2       2 RES2    0.0000
     62 H24       25.2577   -2.3091   22.6386 H         2 RES2    0.0000
     63 C21       21.7320    0.6235   20.7782 C.3       2 RES2    0.0000
     64 H25       21.8609    1.2696   20.0652 H         2 RES2    0.0000
     65 H26       22.0406   -0.2450   20.4755 H         2 RES2    0.0000
     66 C22       19.9904   -1.0996   23.0831 C.3       2 RES2    0.0000
     67 H27       20.1600   -1.2531   24.0245 H         2 RES2    0.0000
     68 H28       19.0487   -1.2618   22.9099 H         2 RES2    0.0000
     69 O13       17.7048    0.8563   21.1057 O.2       2 RES2    0.0000
     70 C23       18.3484    1.8678   20.9776 C.2       2 RES2    0.0000
     71 C24       17.8063    3.2194   20.8014 C.3       2 RES2    0.0000
     72 H29       16.8576    3.2037   20.9405 H         2 RES2    0.0000
     73 H30       17.9963    3.5264   19.9102 H         2 RES2    0.0000
     74 H31       18.2116    3.8124   21.4374 H         2 RES2    0.0000
     75 C25       20.6807   -3.2866   22.3970 C.2       2 RES2    0.0000
     76 O14       19.9426   -3.7601   23.1948 O.2       2 RES2    0.0000
     77 C26       21.5985   -4.0164   21.4556 C.3       2 RES2    0.0000
     78 H32       21.0952   -4.6591   20.9519 H         2 RES2    0.0000
     79 H33       22.2796   -4.4673   21.9594 H         2 RES2    0.0000
     80 H34       22.0056   -3.3877   20.8562 H         2 RES2    0.0000
     81 O15       27.7381    7.9535   13.6358 O.2       3 RES3    0.0000
     82 N7        26.3521    9.7054   14.0112 N.am      3 RES3    0.0000
     83 H35       25.6850    9.1682   14.0887 H         3 RES3    0.0000
     84 N8        28.6236   10.0324   13.6853 N.am      3 RES3    0.0000
     85 N9        24.9344   11.5662   14.2793 N.2       3 RES3    0.0000
     86 O16       30.8657   10.1030   14.2462 O.3       3 RES3    0.0000
     87 O17       32.4783    8.6834   11.8864 O.3       3 RES3    0.0000
     88 O18       23.9588   10.5477   14.3114 O.3       3 RES3    0.0000
     89 H36       23.2251   10.8756   14.4808 H         3 RES3    0.0000
     90 C27       26.1006   11.0657   14.1270 C.2       3 RES3    0.0000
     91 C28       30.4197    9.8789   11.9650 C.3       3 RES3    0.0000
     92 H37       30.1820    9.1900   11.3261 H         3 RES3    0.0000
     93 H38       30.0432   10.7239   11.6749 H         3 RES3    0.0000
     94 C29       31.9251    9.9792   12.1230 C.3       3 RES3    0.0000
     95 H39       32.3072   10.6506   11.5199 H         3 RES3    0.0000
     96 C30       27.2439   11.9150   14.0785 C.2       3 RES3    0.0000
     97 H40       27.1496   12.8324   14.2004 H         3 RES3    0.0000
     98 O19       31.5082   12.5786   13.0393 O.3       3 RES3    0.0000
     99 C31       29.9447    9.5161   13.3625 C.3       3 RES3    0.0000
    100 H41       29.9567    8.5430   13.4733 H         3 RES3    0.0000
    101 C32       28.4338   11.4014   13.8615 C.2       3 RES3    0.0000
    102 H42       29.1691   11.9673   13.8243 H         3 RES3    0.0000
    103 C33       27.5858    9.1551   13.7828 C.2       3 RES3    0.0000
    104 C34       32.0966   10.3733   13.5889 C.3       3 RES3    0.0000
    105 H43       32.7959    9.8117   13.9862 H         3 RES3    0.0000
    106 C35       32.4536   11.8025   13.8047 C.3       3 RES3    0.0000
    107 H44       32.3939   12.0284   14.7452 H         3 RES3    0.0000
    108 H45       33.3585   11.9752   13.5007 H         3 RES3    0.0000
    109 O20       34.4839    9.6234   11.8939 O.2       3 RES3    0.0000
    110 C36       31.5571   13.8918   13.1959 C.2       3 RES3    0.0000
    111 O21       32.3789   14.4438   13.8642 O.2       3 RES3    0.0000
    112 C37       34.3203    7.2786   11.5705 C.3       3 RES3    0.0000
    113 H46       35.2753    7.2978   11.4925 H         3 RES3    0.0000
    114 H47       33.9387    6.9254   10.7631 H         3 RES3    0.0000
    115 H48       34.0730    6.7214   12.3108 H         3 RES3    0.0000
    116 C38       33.8166    8.6494   11.7936 C.2       3 RES3    0.0000
    117 C39       30.4762   14.5659   12.4088 C.3       3 RES3    0.0000
    118 H49       30.8596   15.2600   11.8686 H         3 RES3    0.0000
    119 H50       29.8332   14.9470   13.0106 H         3 RES3    0.0000
    120 H51       30.0434   13.9224   11.8436 H         3 RES3    0.0000
    121 N10       18.5942    8.7095   17.9723 N.am      4 RES4    0.0000
    122 H52       19.2691    9.1996   17.7676 H         4 RES4    0.0000
    123 O22       14.3533    8.7758   19.4017 O.3       4 RES4    0.0000
    124 O23       17.2242   10.4823   17.6970 O.2       4 RES4    0.0000
    125 N11       16.2992    8.4767   18.2018 N.am      4 RES4    0.0000
    126 C40       14.9646    9.0322   18.1601 C.3       4 RES4    0.0000
    127 H53       15.0154   10.0001   18.0161 H         4 RES4    0.0000
    128 C41       17.3597    9.2955   17.9518 C.2       4 RES4    0.0000
    129 O24       20.9615    7.8402   17.9126 O.3       4 RES4    0.0000
    130 H54       21.7100    7.5053   17.9249 H         4 RES4    0.0000
    131 C42       18.8351    7.3998   18.2939 C.2       4 RES4    0.0000
    132 C43       16.4828    7.1565   18.5390 C.2       4 RES4    0.0000
    133 H55       15.7370    6.6298   18.7249 H         4 RES4    0.0000
    134 C44       12.6928    8.6468   17.7200 C.3       4 RES4    0.0000
    135 H56       12.0518    7.9614   17.4371 H         4 RES4    0.0000
    136 O25       13.1893    6.2313   19.3360 O.3       4 RES4    0.0000
    137 N12       20.0092    6.8748   18.2839 N.2       4 RES4    0.0000
    138 C45       14.0616    8.4131   17.1157 C.3       4 RES4    0.0000
    139 H57       14.2424    7.4669   17.0063 H         4 RES4    0.0000
    140 H58       14.1531    8.8586   16.2587 H         4 RES4    0.0000
    141 O26       12.2423    9.9574   17.3817 O.3       4 RES4    0.0000
    142 C46       12.9418    8.5988   19.2282 C.3       4 RES4    0.0000
    143 H59       12.4813    9.3583   19.6435 H         4 RES4    0.0000
    144 O27       10.5619    9.1316   16.1748 O.2       4 RES4    0.0000
    145 C47       12.5160    7.3544   19.9239 C.3       4 RES4    0.0000
    146 H60       12.7363    7.4137   20.8675 H         4 RES4    0.0000
    147 H61       11.5576    7.2437   19.8418 H         4 RES4    0.0000
    148 C48       11.1597   10.0594   16.5919 C.2       4 RES4    0.0000
    149 C49       17.7005    6.6080   18.6089 C.2       4 RES4    0.0000
    150 H62       17.8042    5.7186   18.8617 H         4 RES4    0.0000
    151 C50       13.8066    3.9659   19.3358 C.3       4 RES4    0.0000
    152 H63       13.6645    3.9606   18.3876 H         4 RES4    0.0000
    153 H64       13.5353    3.1209   19.7051 H         4 RES4    0.0000
    154 H65       14.7344    4.1158   19.5227 H         4 RES4    0.0000
    155 C51       12.9965    5.0506   19.9490 C.2       4 RES4    0.0000
    156 C52       10.8449   11.4816   16.3225 C.3       4 RES4    0.0000
    157 H66        9.9237   11.5627   16.0718 H         4 RES4    0.0000
    158 H67       11.4016   11.8034   15.6091 H         4 RES4    0.0000
    159 H68       11.0061   12.0013   17.1134 H         4 RES4    0.0000
    160 O28       12.2906    4.9251   20.8858 O.2       4 RES4    0.0000
    161 N13       21.6470    4.3583   17.7115 N.am      5 RES5    0.0000
    162 H69       20.9603    4.8710   17.7790 H         5 RES5    0.0000
    163 N14       23.9467    4.1115   17.6170 N.am      5 RES5    0.0000
    164 O29       19.2705    3.4740   17.6828 O.3       5 RES5    0.0000
    165 H70       18.5436    3.1235   17.8314 H         5 RES5    0.0000
    166 C53       22.8797    4.9373   17.7738 C.2       5 RES5    0.0000
    167 O30       23.0179    6.1302   17.9860 O.2       5 RES5    0.0000
    168 C54       21.4249    3.0032   17.5470 C.2       5 RES5    0.0000
    169 C55       25.2698    4.6722   17.9078 C.3       5 RES5    0.0000
    170 H71       25.2921    5.6218   17.6696 H         5 RES5    0.0000
    171 O31       27.6768    5.7378   19.4598 O.3       5 RES5    0.0000
    172 N15       20.2521    2.4721   17.5178 N.2       5 RES5    0.0000
    173 C56       23.7857    2.7581   17.4460 C.2       5 RES5    0.0000
    174 H72       24.5413    2.2219   17.3642 H         5 RES5    0.0000
    175 O32       26.2120    3.9685   17.1561 O.3       5 RES5    0.0000
    176 C57       25.6676    4.4917   19.3461 C.3       5 RES5    0.0000
    177 H73       25.2858    3.6790   19.7142 H         5 RES5    0.0000
    178 H74       25.3807    5.2468   19.8851 H         5 RES5    0.0000
    179 C58       22.5885    2.1913   17.3938 C.2       5 RES5    0.0000
    180 H75       22.5067    1.2749   17.2593 H         5 RES5    0.0000
    181 C59       27.1697    4.4071   19.2825 C.3       5 RES5    0.0000
    182 H76       27.5206    3.7967   19.9626 H         5 RES5    0.0000
    183 O33       29.6899    4.8631   19.7901 O.2       5 RES5    0.0000
    184 C60       27.4450    3.8874   17.8718 C.3       5 RES5    0.0000
    185 H77       28.0967    4.4803   17.4417 H         5 RES5    0.0000
    186 C61       28.9848    5.8328   19.7349 C.2       5 RES5    0.0000
    187 O34       26.9962    1.6524   18.4651 O.3       5 RES5    0.0000
    188 C62       26.7708    0.4543   18.0320 C.2       5 RES5    0.0000
    189 O35       27.3763    0.0131   17.1499 O.2       5 RES5    0.0000
    190 C63       27.9488    2.4974   17.7904 C.3       5 RES5    0.0000
    191 H78       28.0391    2.2262   16.8650 H         5 RES5    0.0000
    192 H79       28.8160    2.4303   18.2189 H         5 RES5    0.0000
    193 C64       29.3963    7.2402   19.9421 C.3       5 RES5    0.0000
    194 H80       29.7759    7.5847   19.1307 H         5 RES5    0.0000
    195 H81       30.0475    7.2829   20.6465 H         5 RES5    0.0000
    196 H82       28.6311    7.7660   20.1837 H         5 RES5    0.0000
    197 C65       25.6756   -0.2363   18.7865 C.3       5 RES5    0.0000
    198 H83       26.0618   -0.8659   19.4019 H         5 RES5    0.0000
    199 H84       25.1036   -0.6985   18.1711 H         5 RES5    0.0000
    200 H85       25.1642    0.4142   19.2743 H         5 RES5    0.0000
@<TRIPOS>BOND
     1    1    2 1
     2    3   13 2
     3    4   13 1
     4    5    9 1
     5    6    7 1
     6    8    1 1
     7    9   10 1
     8   11   21 1
     9   12    6 1
    10   13    1 1
    11   14    4 1
    12   15   14 1
    13   16    8 1
    14   17   16 1
    15   18   14 1
    16   19   18 1
    17   20   18 1
    18   21    9 1
    19   22   21 1
    20   23   11 1
    21   24   23 2
    22   25   26 1
    23   26    9 1
    24   27   26 1
    25   28   26 1
    26   29   23 1
    27   30   29 1
    28   31   29 1
    29   32   29 1
    30   33    4 1
    31   34   33 1
    32   35   25 1
    33   36   35 1
    34   37   36 1
    35   38   36 1
    36   39   36 1
    37   40   35 2
    38   41   48 2
    39   42   43 1
    40   44   49 1
    41   45   46 1
    42   47   55 1
    43   48   45 1
    44   49   50 1
    45   51   48 1
    46   52   45 1
    47   53   51 1
    48   54   53 1
    49   55   56 1
    50   57   66 1
    51   58   42 1
    52   59   44 1
    53   60   59 1
    54   61   52 1
    55   62   61 1
    56   63   49 1
    57   64   63 1
    58   65   63 1
    59   66   59 1
    60   67   66 1
    61   68   66 1
    62   69   70 2
    63   70   47 1
    64   71   70 1
    65   72   71 1
    66   73   71 1
    67   74   71 1
    68   75   57 1
    69   76   75 2
    70   77   75 1
    71   78   77 1
    72   79   77 1
    73   80   77 1
    74   81  103 2
    75   82   83 1
    76   84   99 1
    77   85   88 1
    78   86   99 1
    79   87   94 1
    80   88   89 1
    81   90   82 1
    82   91   92 1
    83   93   91 1
    84   94   91 1
    85   95   94 1
    86   96   90 1
    87   97   96 1
    88   98  106 1
    89   99   91 1
    90  100   99 1
    91  101   84 1
    92  102  101 1
    93  103   82 1
    94  104   86 1
    95  105  104 1
    96  106  104 1
    97  107  106 1
    98  108  106 1
    99  109  116 2
   100  110   98 1
   101  111  110 2
   102  112  113 1
   103  114  112 1
   104  115  112 1
   105  116   87 1
   106  117  110 1
   107  118  117 1
   108  119  117 1
   109  120  117 1
   110  121  122 1
   111  123  126 1
   112  124  128 2
   113  125  126 1
   114  126  127 1
   115  128  121 1
   116  129  130 1
   117  131  121 1
   118  132  125 1
   119  133  132 1
   120  134  135 1
   121  136  145 1
   122  137  129 1
   123  138  126 1
   124  139  138 1
   125  140  138 1
   126  141  134 1
   127  142  123 1
   128  143  142 1
   129  144  148 2
   130  145  142 1
   131  146  145 1
   132  147  145 1
   133  148  141 1
   134  149  131 1
   135  150  149 1
   136  151  152 1
   137  153  151 1
   138  154  151 1
   139  155  136 1
   140  156  148 1
   141  157  156 1
   142  158  156 1
   143  159  156 1
   144  160  155 2
   145  161  162 1
   146  163  166 1
   147  164  165 1
   148  166  161 1
   149  167  166 2
   150  168  161 1
   151  169  163 1
   152  170  169 1
   153  171  181 1
   154  172  164 1
   155  173  163 1
   156  174  173 1
   157  175  169 1
   158  176  169 1
   159  177  176 1
   160  178  176 1
   161  179  168 1
   162  180  179 1
   163  181  176 1
   164  182  181 1
   165  183  186 2
   166  184  175 1
   167  185  184 1
   168  186  171 1
   169  187  188 1
   170  188  189 2
   171  190  184 1
   172  191  190 1
   173  192  190 1
   174  193  186 1
   175  194  193 1
   176  195  193 1
   177  196  193 1
   178  197  188 1
   179  198  197 1
   180  199  197 1
   181  200  197 1
   182    5   14 1
   183    8   12 2
   184   16   33 2
   185   18   21 1
   186   49   51 1
   187   52   58 2
   188   53   61 2
   189   55   59 1
   190   55   63 1
   191   84  103 1
   192   85   90 2
   193   94  104 1
   194   96  101 2
   195  112  116 1
   196  125  128 1
   197  131  137 2
   198  132  149 2
   199  134  138 1
   200  134  142 1
   201  151  155 1
   202  168  172 2
   203  173  179 2
   204  181  184 1
   205  187  190 1
@<TRIPOS>SUBSTRUCTURE
     1 RES1 1
     2 RES2 41
     3 RES3 81
     4 RES4 121
     5 RES5 161

@<TRIPOS>CRYSIN
  39.5400    8.7200   22.8900  90.0000  95.2600  90.0000   5 1

