# MOL2 file generated by ConQuest
# Please check atom types

@<TRIPOS>MOLECULE
PAVZIX
    33    34     1
SMALL
NO_CHARGES
****
Generated from CSD

@<TRIPOS>ATOM
      1 O1         4.1571    6.1959    3.4319 O.2       1 RES1    0.0000
      2 O2         2.9341    2.6389    8.3821 O.2       1 RES1    0.0000
      3 O3         1.3254    2.1463    9.7157 O.2       1 RES1    0.0000
      4 N1         9.3012    3.2967    1.1083 N.pl3     1 RES1    0.0000
      5 H1         9.6712    3.7958    0.4842 H         1 RES1    0.0000
      6 H2         9.9178    2.9637    1.6639 H         1 RES1    0.0000
      7 N2         3.9460    4.2258    4.4910 N.am      1 RES1    0.0000
      8 H3         4.1802    3.4108    4.5445 H         1 RES1    0.0000
      9 N3         2.9557    4.7148    5.2983 N.2       1 RES1    0.0000
     10 N4         1.7824    2.7677    8.7825 N.pl3     1 RES1    0.0000
     11 C1         8.1247    3.7084    1.7146 C.ar      1 RES1    0.0000
     12 C2         7.6950    3.0920    2.8785 C.ar      1 RES1    0.0000
     13 H4         8.1947    2.4075    3.2520 H         1 RES1    0.0000
     14 C3         6.5239    3.4986    3.4818 C.ar      1 RES1    0.0000
     15 H5         6.2554    3.0888    4.2635 H         1 RES1    0.0000
     16 C4         5.7420    4.5119    2.9333 C.ar      1 RES1    0.0000
     17 C5         6.1646    5.1062    1.7616 C.ar      1 RES1    0.0000
     18 H6         5.6510    5.7750    1.3767 H         1 RES1    0.0000
     19 C6         7.3400    4.7203    1.1537 C.ar      1 RES1    0.0000
     20 H7         7.6063    5.1343    0.3734 H         1 RES1    0.0000
     21 C7         4.5463    5.0474    3.6094 C.2       1 RES1    0.0000
     22 C8         2.4140    3.8638    6.0661 C.2       1 RES1    0.0000
     23 H8         2.7292    3.0014    6.1100 H         1 RES1    0.0000
     24 C9         1.2723    4.2902    6.8831 C.ar      1 RES1    0.0000
     25 C10        0.9134    3.7341    8.1012 C.ar      1 RES1    0.0000
     26 C11       -0.2656    4.0750    8.7425 C.ar      1 RES1    0.0000
     27 H9        -0.4896    3.6683    9.5404 H         1 RES1    0.0000
     28 C12       -1.0944    5.0179    8.1839 C.ar      1 RES1    0.0000
     29 H10       -1.8851    5.2461    8.5987 H         1 RES1    0.0000
     30 C13       -0.7446    5.6233    7.0029 C.ar      1 RES1    0.0000
     31 H11       -1.2911    6.2773    6.6393 H         1 RES1    0.0000
     32 C14        0.4190    5.2617    6.3535 C.ar      1 RES1    0.0000
     33 H12        0.6341    5.6720    5.5540 H         1 RES1    0.0000
@<TRIPOS>BOND
     1    1   21 2
     2    2   10 2
     3    3   10 2
     4    4    5 1
     5    6    4 1
     6    7    8 1
     7    9    7 1
     8   10   25 1
     9   11    4 1
    10   12   11 ar
    11   13   12 1
    12   14   12 ar
    13   15   14 1
    14   16   14 ar
    15   17   16 ar
    16   18   17 1
    17   19   11 ar
    18   20   19 1
    19   21    7 1
    20   22    9 2
    21   23   22 1
    22   24   22 1
    23   25   24 ar
    24   26   25 ar
    25   27   26 1
    26   28   26 ar
    27   29   28 1
    28   30   28 ar
    29   31   30 1
    30   32   24 ar
    31   33   32 1
    32   16   21 1
    33   17   19 ar
    34   30   32 ar
@<TRIPOS>SUBSTRUCTURE
     1 RES1 1

@<TRIPOS>CRYSIN
   6.4594    4.5998   20.5980  90.0000  95.0800  90.0000   4 1

