# MOL2 file generated by ConQuest
# Please check atom types

@<TRIPOS>MOLECULE
PAVZET
    35    36     1
SMALL
NO_CHARGES
****
Generated from CSD

@<TRIPOS>ATOM
      1 O1        -0.4598   -0.0314    1.8754 O.2       1 RES1    0.0000
      2 O2         0.6489   -0.6560    3.6124 O.2       1 RES1    0.0000
      3 O3         6.0929   -0.3012    6.3432 O.2       1 RES1    0.0000
      4 O4        10.9839    2.0847    9.5387 O.3       1 RES1    0.0000
      5 N1         0.4886    0.0656    2.6442 N.pl3     1 RES1    0.0000
      6 N2         5.0103    1.4978    4.6528 N.2       1 RES1    0.0000
      7 N3         6.0596    1.7932    5.4958 N.am      1 RES1    0.0000
      8 C1         1.5022    1.0851    2.3624 C.ar      1 RES1    0.0000
      9 C2         2.5316    1.2482    3.2529 C.ar      1 RES1    0.0000
     10 C3         3.4879    2.2286    2.9984 C.ar      1 RES1    0.0000
     11 C4         3.3716    3.0028    1.8544 C.ar      1 RES1    0.0000
     12 C5         2.3361    2.8006    0.9579 C.ar      1 RES1    0.0000
     13 C6         1.3841    1.8342    1.2104 C.ar      1 RES1    0.0000
     14 C7         4.5990    2.4564    3.9335 C.2       1 RES1    0.0000
     15 C8         6.5650    0.8259    6.2936 C.2       1 RES1    0.0000
     16 C9         7.7442    1.2284    7.1094 C.ar      1 RES1    0.0000
     17 C10        7.9636    0.5754    8.3200 C.ar      1 RES1    0.0000
     18 C11        9.0403    0.9046    9.0988 C.ar      1 RES1    0.0000
     19 C12        9.9452    1.8588    8.6871 C.ar      1 RES1    0.0000
     20 C13        9.7550    2.5085    7.4789 C.ar      1 RES1    0.0000
     21 C14        8.6479    2.1991    6.7081 C.ar      1 RES1    0.0000
     22 C15       11.9213    3.0945    9.1950 C.3       1 RES1    0.0000
     23 H1         2.5902    0.7144    4.0133 H         1 RES1    0.0000
     24 H2         6.2935    2.6548    5.5913 H         1 RES1    0.0000
     25 H3         3.9986    3.6689    1.6865 H         1 RES1    0.0000
     26 H4         2.2817    3.3161    0.1850 H         1 RES1    0.0000
     27 H5         0.6812    1.6913    0.6189 H         1 RES1    0.0000
     28 H6         4.9963    3.2948    3.9962 H         1 RES1    0.0000
     29 H7         7.3760   -0.0883    8.6008 H         1 RES1    0.0000
     30 H8         9.1620    0.4788    9.9172 H         1 RES1    0.0000
     31 H9        10.3656    3.1467    7.1886 H         1 RES1    0.0000
     32 H10        8.5076    2.6509    5.9082 H         1 RES1    0.0000
     33 H11       12.3460    2.8677    8.3647 H         1 RES1    0.0000
     34 H12       12.5852    3.1631    9.8853 H         1 RES1    0.0000
     35 H13       11.4672    3.9349    9.1027 H         1 RES1    0.0000
@<TRIPOS>BOND
     1    1    5 2
     2    2    5 2
     3    3   15 2
     4    4   19 1
     5    5    8 1
     6    6    7 1
     7    7   15 1
     8    8    9 ar
     9    9   10 ar
    10   10   11 ar
    11   11   12 ar
    12   12   13 ar
    13   13    8 ar
    14   14    6 2
    15   15   16 1
    16   16   17 ar
    17   17   18 ar
    18   18   19 ar
    19   19   20 ar
    20   20   21 ar
    21   21   16 ar
    22   22    4 1
    23   23    9 1
    24   24    7 1
    25   25   11 1
    26   26   12 1
    27   27   13 1
    28   28   14 1
    29   29   17 1
    30   30   18 1
    31   31   20 1
    32   32   21 1
    33   33   22 1
    34   34   22 1
    35   35   22 1
    36   10   14 1
@<TRIPOS>SUBSTRUCTURE
     1 RES1 1

@<TRIPOS>CRYSIN
   6.8472    4.8269   21.4140  90.0000  96.6960  90.0000   4 1

