# MOL2 file generated by ConQuest
# Please check atom types

@<TRIPOS>MOLECULE
PAWCEX
    88    94     2
SMALL
NO_CHARGES
****
Generated from CSD

@<TRIPOS>ATOM
      1 C1         1.0180    1.7111   -4.6545 C.ar      1 RES1    0.0000
      2 C2        -0.0787    2.0771   -5.4297 C.ar      1 RES1    0.0000
      3 H1         0.0683    2.5284   -6.2289 H         1 RES1    0.0000
      4 C3        -1.3582    1.7964   -5.0585 C.ar      1 RES1    0.0000
      5 H2        -2.0689    2.0683   -5.5939 H         1 RES1    0.0000
      6 C4        -1.5975    1.1190   -3.9016 C.ar      1 RES1    0.0000
      7 H3        -2.4671    0.9010   -3.6564 H         1 RES1    0.0000
      8 C5        -0.5367    0.7578   -3.0970 C.ar      1 RES1    0.0000
      9 H4        -0.7045    0.3041   -2.3027 H         1 RES1    0.0000
     10 C6         0.7671    1.0539   -3.4410 C.ar      1 RES1    0.0000
     11 C7         1.9083    0.7091   -2.5009 C.3       1 RES1    0.0000
     12 H5         2.7309    0.7055   -3.0331 H         1 RES1    0.0000
     13 C8         1.8388   -0.6436   -1.7640 C.3       1 RES1    0.0000
     14 H6         0.9612   -1.0418   -1.8701 H         1 RES1    0.0000
     15 H7         2.5016   -1.2566   -2.1189 H         1 RES1    0.0000
     16 C9         2.8987    0.8733   -0.3194 C.3       1 RES1    0.0000
     17 H8         3.8053    0.7007   -0.6489 H         1 RES1    0.0000
     18 C10        2.1249    1.7063   -1.3332 C.3       1 RES1    0.0000
     19 C11        0.8639    2.2404   -0.6980 C.3       1 RES1    0.0000
     20 H9         0.3821    2.7746   -1.3491 H         1 RES1    0.0000
     21 H10        0.2956    1.4955   -0.4466 H         1 RES1    0.0000
     22 C12        2.0757    2.5795    1.3307 C.ar      1 RES1    0.0000
     23 C13        2.9572    1.5567    1.0169 C.ar      1 RES1    0.0000
     24 C14        3.9435    1.2526    1.9461 C.ar      1 RES1    0.0000
     25 H11        4.5706    0.5953    1.7468 H         1 RES1    0.0000
     26 C15        4.0130    1.9066    3.1607 C.ar      1 RES1    0.0000
     27 H12        4.6696    1.6757    3.7774 H         1 RES1    0.0000
     28 C16        3.1134    2.8945    3.4578 C.ar      1 RES1    0.0000
     29 H13        3.1565    3.3297    4.2774 H         1 RES1    0.0000
     30 C17        2.1467    3.2460    2.5451 C.ar      1 RES1    0.0000
     31 H14        1.5436    3.9258    2.7400 H         1 RES1    0.0000
     32 C18        2.7475   -1.4955    0.3105 C.3       1 RES1    0.0000
     33 H15        3.6115   -1.6468   -0.0814 H         1 RES1    0.0000
     34 H16        2.2045   -2.2799    0.2000 H         1 RES1    0.0000
     35 H17        2.8478   -1.3049    1.2467 H         1 RES1    0.0000
     36 C19        2.4022    1.9903   -5.1690 C.3       1 RES1    0.0000
     37 H18        2.8792    1.1641   -5.2683 H         1 RES1    0.0000
     38 H19        2.8669    2.5550   -4.5473 H         1 RES1    0.0000
     39 H20        2.3448    2.4311   -6.0196 H         1 RES1    0.0000
     40 N1         2.1065   -0.3652   -0.3491 N.3       1 RES1    0.0000
     41 N2         2.9576    2.8663   -1.8415 N.pl3     1 RES1    0.0000
     42 O1         2.3932    3.8858   -2.1557 O.2       1 RES1    0.0000
     43 O2         4.1632    2.6861   -1.9678 O.2       1 RES1    0.0000
     44 O3         1.1278    3.0359    0.4564 O.3       1 RES1    0.0000
     45 C20        9.0866    5.9635    5.8675 C.ar      2 RES2    0.0000
     46 C21       10.3216    6.3175    6.4152 C.ar      2 RES2    0.0000
     47 H21       10.3417    6.7254    7.2500 H         2 RES2    0.0000
     48 C22       11.4991    6.0842    5.7656 C.ar      2 RES2    0.0000
     49 H22       12.3062    6.3336    6.1545 H         2 RES2    0.0000
     50 C23       11.4797    5.4776    4.5356 C.ar      2 RES2    0.0000
     51 H23       12.2772    5.3216    4.0821 H         2 RES2    0.0000
     52 C24       10.2797    5.0987    3.9711 C.ar      2 RES2    0.0000
     53 H24       10.2773    4.6828    3.1400 H         2 RES2    0.0000
     54 C25        9.0728    5.3272    4.6210 C.ar      2 RES2    0.0000
     55 C26        7.7779    4.8477    3.9825 C.3       2 RES2    0.0000
     56 H25        7.1214    4.7037    4.6961 H         2 RES2    0.0000
     57 C27        7.9039    3.5461    3.1777 C.3       2 RES2    0.0000
     58 H26        8.7267    3.0835    3.3982 H         2 RES2    0.0000
     59 H27        7.1555    2.9564    3.3564 H         2 RES2    0.0000
     60 C28        6.7803    4.9236    1.7394 C.3       2 RES2    0.0000
     61 H28        5.9454    4.4479    1.9352 H         2 RES2    0.0000
     62 C29        7.1473    5.8160    2.9275 C.3       2 RES2    0.0000
     63 C30        8.0790    6.9015    2.4527 C.3       2 RES2    0.0000
     64 H29        8.3202    7.4663    3.2028 H         2 RES2    0.0000
     65 H30        8.8916    6.4969    2.1096 H         2 RES2    0.0000
     66 C31        6.9940    7.0142    0.3545 C.ar      2 RES2    0.0000
     67 C32        6.6343    5.6757    0.4429 C.ar      2 RES2    0.0000
     68 C33        6.0731    5.0883   -0.6822 C.ar      2 RES2    0.0000
     69 H31        5.7975    4.2009   -0.6396 H         2 RES2    0.0000
     70 C34        5.9148    5.7833   -1.8596 C.ar      2 RES2    0.0000
     71 H32        5.5617    5.3602   -2.6097 H         2 RES2    0.0000
     72 C35        6.2815    7.1083   -1.9198 C.ar      2 RES2    0.0000
     73 H33        6.1722    7.5853   -2.7097 H         2 RES2    0.0000
     74 C36        6.8081    7.7253   -0.8146 C.ar      2 RES2    0.0000
     75 H34        7.0397    8.6255   -0.8513 H         2 RES2    0.0000
     76 C37        7.7882    2.8518    0.8711 C.3       2 RES2    0.0000
     77 H35        8.4922    2.2228    1.0444 H         2 RES2    0.0000
     78 H36        7.8565    3.1672   -0.0326 H         2 RES2    0.0000
     79 H37        6.9376    2.4239    0.9978 H         2 RES2    0.0000
     80 C38        7.8437    6.2676    6.6427 C.3       2 RES2    0.0000
     81 H38        8.0817    6.6111    7.5059 H         2 RES2    0.0000
     82 H39        7.3284    5.4640    6.7476 H         2 RES2    0.0000
     83 H40        7.3232    6.9209    6.1708 H         2 RES2    0.0000
     84 N3         7.9059    3.9756    1.7863 N.3       2 RES2    0.0000
     85 N4         5.9142    6.4663    3.5380 N.pl3     2 RES2    0.0000
     86 O4         6.0416    7.5347    4.0648 O.2       2 RES2    0.0000
     87 O5         4.8859    5.8976    3.4910 O.2       2 RES2    0.0000
     88 O6         7.4899    7.7026    1.4340 O.3       2 RES2    0.0000
@<TRIPOS>BOND
     1    1    2 ar
     2    2    3 1
     3    4    2 ar
     4    5    4 1
     5    6    4 ar
     6    7    6 1
     7    8    6 ar
     8    9    8 1
     9   10    1 ar
    10   11   10 1
    11   12   11 1
    12   13   11 1
    13   14   13 1
    14   15   13 1
    15   16   17 1
    16   18   11 1
    17   19   18 1
    18   20   19 1
    19   21   19 1
    20   22   23 ar
    21   23   16 1
    22   24   23 ar
    23   25   24 1
    24   26   24 ar
    25   27   26 1
    26   28   26 ar
    27   29   28 1
    28   30   22 ar
    29   31   30 1
    30   32   33 1
    31   34   32 1
    32   35   32 1
    33   36    1 1
    34   37   36 1
    35   38   36 1
    36   39   36 1
    37   40   13 1
    38   41   18 1
    39   42   41 2
    40   43   41 2
    41   44   19 1
    42   45   46 ar
    43   46   47 1
    44   48   46 ar
    45   49   48 1
    46   50   48 ar
    47   51   50 1
    48   52   50 ar
    49   53   52 1
    50   54   45 ar
    51   55   54 1
    52   56   55 1
    53   57   55 1
    54   58   57 1
    55   59   57 1
    56   60   61 1
    57   62   55 1
    58   63   62 1
    59   64   63 1
    60   65   63 1
    61   66   67 ar
    62   67   60 1
    63   68   67 ar
    64   69   68 1
    65   70   68 ar
    66   71   70 1
    67   72   70 ar
    68   73   72 1
    69   74   66 ar
    70   75   74 1
    71   76   77 1
    72   78   76 1
    73   79   76 1
    74   80   45 1
    75   81   80 1
    76   82   80 1
    77   83   80 1
    78   84   57 1
    79   85   62 1
    80   86   85 2
    81   87   85 2
    82   88   63 1
    83    8   10 ar
    84   16   18 1
    85   16   40 1
    86   22   44 1
    87   28   30 ar
    88   32   40 1
    89   52   54 ar
    90   60   62 1
    91   60   84 1
    92   66   88 1
    93   72   74 ar
    94   76   84 1
@<TRIPOS>SUBSTRUCTURE
     1 RES1 1
     2 RES2 45

@<TRIPOS>CRYSIN
  17.8782    8.0447   23.4660  90.0000  97.6050  90.0000 231 1

