# MOL2 file generated by ConQuest
# Please check atom types

@<TRIPOS>MOLECULE
PAWDID
    31    31     2
SMALL
NO_CHARGES
****
Generated from CSD

@<TRIPOS>ATOM
      1 O1        10.1006    1.8847    7.1642 O.3       1 RES1    0.0000
      2 H1        10.9234    1.8710    7.6606 H         1 RES1    0.0000
      3 C1         9.6433    1.5018    4.9751 C.2       1 RES1    0.0000
      4 N1        10.5523    1.7281    5.8440 N.2       1 RES1    0.0000
      5 O2        11.5650    1.0782    3.5698 O.3       1 RES1    0.0000
      6 H2        11.7083    0.2434    4.0210 H         1 RES1    0.0000
      7 C2        10.1635    1.3374    3.5512 C.3       1 RES1    0.0000
      8 H3         9.6988    0.5594    3.1277 H         1 RES1    0.0000
      9 C3         8.1781    1.4068    5.1884 C.ar      1 RES1    0.0000
     10 C4         7.4173    0.4864    4.4661 C.ar      1 RES1    0.0000
     11 H4         7.8411   -0.0759    3.8281 H         1 RES1    0.0000
     12 C5         6.0534    0.3821    4.6672 C.ar      1 RES1    0.0000
     13 H5         5.5507   -0.2581    4.1774 H         1 RES1    0.0000
     14 C6         5.4187    1.2043    5.5761 C.ar      1 RES1    0.0000
     15 H6         4.4814    1.1283    5.7168 H         1 RES1    0.0000
     16 C7         6.1520    2.1368    6.2783 C.ar      1 RES1    0.0000
     17 H7         5.7130    2.7138    6.8927 H         1 RES1    0.0000
     18 C8         7.5219    2.2419    6.0970 C.ar      1 RES1    0.0000
     19 H8         8.0178    2.8844    6.5923 H         1 RES1    0.0000
     20 C9         9.8814    2.5759    2.7315 C.ar      1 RES1    0.0000
     21 C10       10.4070    3.8007    3.0948 C.ar      1 RES1    0.0000
     22 H9        10.9660    3.8673    3.8610 H         1 RES1    0.0000
     23 C11       10.1247    4.9288    2.3500 C.ar      1 RES1    0.0000
     24 H10       10.4770    5.7710    2.6131 H         1 RES1    0.0000
     25 C12        9.3304    4.8340    1.2239 C.ar      1 RES1    0.0000
     26 H11        9.1291    5.6119    0.7173 H         1 RES1    0.0000
     27 C13        8.8333    3.6127    0.8377 C.ar      1 RES1    0.0000
     28 H12        8.3025    3.5418    0.0524 H         1 RES1    0.0000
     29 C14        9.1039    2.4886    1.5920 C.ar      1 RES1    0.0000
     30 H13        8.7516    1.6476    1.3252 H         1 RES1    0.0000
     31 H14       11.8319    1.0250    2.6495 Du        2 SUP2    0.0000
@<TRIPOS>BOND
     1    1    2 1
     2    3    4 2
     3    4    1 1
     4    5    6 1
     5    7    3 1
     6    8    7 1
     7    9    3 1
     8   10    9 ar
     9   11   10 1
    10   12   10 ar
    11   13   12 1
    12   14   12 ar
    13   15   14 1
    14   16   14 ar
    15   17   16 1
    16   18    9 ar
    17   19   18 1
    18   20    7 1
    19   21   20 ar
    20   22   21 1
    21   23   21 ar
    22   24   23 1
    23   25   23 ar
    24   26   25 1
    25   27   25 ar
    26   28   27 1
    27   29   20 ar
    28   30   29 1
    29    5    7 1
    30   16   18 ar
    31   27   29 ar
@<TRIPOS>SUBSTRUCTURE
     1 RES1 1
     2 SUP2 31

@<TRIPOS>CRYSIN
  24.1434   10.5348    8.9006  90.0000  93.0420  90.0000  15 1

