# MOL2 file generated by ConQuest
# Please check atom types

@<TRIPOS>MOLECULE
PAWFIE
    56    39     2
SMALL
NO_CHARGES
****
Generated from CSD

@<TRIPOS>ATOM
      1 C1         1.5606    5.5850   -0.6684 C.ar      1 RES1    0.0000
      2 C2         0.9697    5.8051   -1.8829 C.ar      1 RES1    0.0000
      3 H1         0.7028    5.0874   -2.4111 H         1 RES1    0.0000
      4 C3         0.7716    7.0920   -2.3172 C.ar      1 RES1    0.0000
      5 H2         0.3674    7.2546   -3.1387 H         1 RES1    0.0000
      6 C4         1.1794    8.1340   -1.5268 C.ar      1 RES1    0.0000
      7 H3         1.0349    9.0064   -1.8147 H         1 RES1    0.0000
      8 C5         1.7967    7.9196   -0.3199 C.ar      1 RES1    0.0000
      9 H4         2.0743    8.6436    0.1932 H         1 RES1    0.0000
     10 C6         2.0095    6.6277    0.1379 C.ar      1 RES1    0.0000
     11 C7         3.0995    7.3786    2.1184 C.3       1 RES1    0.0000
     12 H5         2.3338    7.8199    2.5220 H         1 RES1    0.0000
     13 H6         3.5833    8.0311    1.5878 H         1 RES1    0.0000
     14 C8         3.9868    6.8337    3.1820 C.2       1 RES1    0.0000
     15 C9         3.5915    6.5534    4.4158 C.2       1 RES1    0.0000
     16 H7         4.2691    6.3359    5.0155 H         1 RES1    0.0000
     17 O1         2.6544    6.3042    1.2802 O.3       1 RES1    0.0000
     18 N1         1.7177    4.2029   -0.2277 N.pl3     1 RES1    0.0000
     19 O2         1.4857    3.9239    0.9285 O.2       1 RES1    0.0000
     20 O3         2.0373    3.3883   -1.0696 O.2       1 RES1    0.0000
     21 O4         6.2029    6.3280    3.8477 O.2       1 RES1    0.0000
     22 O5         5.7750    6.7929    1.7054 O.3       1 RES1    0.0000
     23 C10        7.1168    6.5761    1.4114 C.3       1 RES1    0.0000
     24 H8         7.6389    7.3174    1.7273 H         1 RES1    0.0000
     25 H9         7.2273    6.4913    0.4604 H         1 RES1    0.0000
     26 H10        7.4132    5.7697    1.8399 H         1 RES1    0.0000
     27 C11        5.4271    6.6075    3.0009 C.2       1 RES1    0.0000
     28 C12        2.2171    6.5400    4.9715 C.ar      1 RES1    0.0000
     29 C13        1.2067    5.9698    4.1969 C.ar      1 RES1    0.0000
     30 H11        1.4017    5.6449    3.3470 H         1 RES1    0.0000
     31 C14       -0.0912    5.8849    4.6873 C.ar      1 RES1    0.0000
     32 H12       -0.7638    5.5122    4.1636 H         1 RES1    0.0000
     33 C15       -0.3851    6.3567    5.9615 C.ar      1 RES1    0.0000
     34 H13       -1.2543    6.2997    6.2891 H         1 RES1    0.0000
     35 C16        0.6190    6.9135    6.7450 C.ar      1 RES1    0.0000
     36 H14        0.4230    7.2294    7.5980 H         1 RES1    0.0000
     37 C17        1.9170    6.9984    6.2545 C.ar      1 RES1    0.0000
     38 H15        2.5888    7.3629    6.7848 H         1 RES1    0.0000
     39 C18        2.2996    6.4931    4.9024 Du        2 SUP2    0.0000
     40 C19        1.1206    6.0291    4.3306 Du        2 SUP2    0.0000
     41 C20       -0.0550    6.0208    5.0719 Du        2 SUP2    0.0000
     42 C21       -0.0518    6.4765    6.3851 Du        2 SUP2    0.0000
     43 C22        1.1272    6.9405    6.9568 Du        2 SUP2    0.0000
     44 C23        2.3027    6.9487    6.2155 Du        2 SUP2    0.0000
     45 C24        5.4283    6.8117    2.4649 Du        2 SUP2    0.0000
     46 C25        7.7044    6.3037    2.8379 Du        2 SUP2    0.0000
     47 H16        1.1186    5.7242    3.4512 Du        2 SUP2    0.0000
     48 H17       -0.8452    5.7100    4.6895 Du        2 SUP2    0.0000
     49 H18       -0.8374    6.4709    6.8806 Du        2 SUP2    0.0000
     50 H19        1.1307    7.2451    7.8349 Du        2 SUP2    0.0000
     51 H20        3.0910    7.2593    6.5983 Du        2 SUP2    0.0000
     52 H21        7.7657    5.6190    2.1692 Du        2 SUP2    0.0000
     53 H22        8.3196    6.1136    3.5487 Du        2 SUP2    0.0000
     54 H23        7.9160    7.1540    2.4481 Du        2 SUP2    0.0000
     55 O6         5.5771    7.1242    1.3929 Du        2 SUP2    0.0000
     56 O7         6.3490    6.3398    3.3705 Du        2 SUP2    0.0000
@<TRIPOS>BOND
     1    1    2 ar
     2    2    3 1
     3    4    2 ar
     4    5    4 1
     5    6    4 ar
     6    7    6 1
     7    8    6 ar
     8    9    8 1
     9   10    1 ar
    10   11   12 1
    11   13   11 1
    12   14   11 1
    13   15   14 2
    14   16   15 1
    15   17   10 1
    16   18    1 1
    17   19   18 2
    18   20   18 2
    19   21   27 2
    20   22   23 1
    21   23   24 1
    22   25   23 1
    23   26   23 1
    24   27   14 1
    25   28   15 1
    26   29   28 ar
    27   30   29 1
    28   31   29 ar
    29   32   31 1
    30   33   31 ar
    31   34   33 1
    32   35   33 ar
    33   36   35 1
    34   37   28 ar
    35   38   37 1
    36    8   10 ar
    37   11   17 1
    38   22   27 1
    39   35   37 ar
@<TRIPOS>SUBSTRUCTURE
     1 RES1 1
     2 SUP2 39

@<TRIPOS>CRYSIN
  24.0511    7.8521   19.7403  90.0000 121.6610  90.0000  15 1

