# MOL2 file generated by ConQuest
# Please check atom types

@<TRIPOS>MOLECULE
PAWVIV
    32    34     1
SMALL
NO_CHARGES
****
Generated from CSD

@<TRIPOS>ATOM
      1 O1         2.6613    8.5374    9.0805 O.2       1 RES1    0.0000
      2 O2         4.5741    9.5403    9.2893 O.2       1 RES1    0.0000
      3 O3         5.1468    6.9840    3.7136 O.3       1 RES1    0.0000
      4 O4         5.7435   11.9220    7.2200 O.2       1 RES1    0.0000
      5 O5         4.3877   12.6736    5.6895 O.2       1 RES1    0.0000
      6 O6         0.6790    9.5823    7.0088 O.2       1 RES1    0.0000
      7 O7         6.8066    6.1925    2.5562 O.2       1 RES1    0.0000
      8 N1         3.7310    8.9353    8.6511 N.pl3     1 RES1    0.0000
      9 O8         6.7586    8.3401    2.9036 O.2       1 RES1    0.0000
     10 O9         1.5567   11.4151    6.2257 O.2       1 RES1    0.0000
     11 N2         4.0577    8.5894    7.3310 N.3       1 RES1    0.0000
     12 N3         2.4747    9.4338    5.6949 N.3       1 RES1    0.0000
     13 N4         4.9187   11.7717    6.3326 N.pl3     1 RES1    0.0000
     14 N5         4.5813   10.4938    5.9994 N.3       1 RES1    0.0000
     15 N6         6.3505    7.2101    3.0052 N.pl3     1 RES1    0.0000
     16 N7         1.5179   10.2022    6.3736 N.pl3     1 RES1    0.0000
     17 C1         5.7789    8.4153    5.6435 C.3       1 RES1    0.0000
     18 H1         6.5027    8.8743    5.1903 H         1 RES1    0.0000
     19 H2         6.1378    7.6205    6.0668 H         1 RES1    0.0000
     20 C2         2.9589    8.2383    6.4104 C.3       1 RES1    0.0000
     21 H3         2.2270    7.8000    6.8924 H         1 RES1    0.0000
     22 C3         3.5523    7.3041    5.3545 C.3       1 RES1    0.0000
     23 H4         3.8868    6.4980    5.7766 H         1 RES1    0.0000
     24 H5         2.8679    7.0526    4.7142 H         1 RES1    0.0000
     25 C4         4.1336    9.2668    3.9406 C.3       1 RES1    0.0000
     26 H6         3.4461    9.0096    3.3058 H         1 RES1    0.0000
     27 H7         4.8395    9.7263    3.4598 H         1 RES1    0.0000
     28 C5         4.6920    8.0299    4.6407 C.3       1 RES1    0.0000
     29 C6         5.1496    9.3348    6.6975 C.3       1 RES1    0.0000
     30 H8         5.8146    9.6151    7.3603 H         1 RES1    0.0000
     31 C7         3.5406   10.1888    5.0205 C.3       1 RES1    0.0000
     32 H9         3.1866   11.0109    4.6206 H         1 RES1    0.0000
@<TRIPOS>BOND
     1    1    8 2
     2    2    8 2
     3    3   15 1
     4    4   13 2
     5    5   13 2
     6    6   16 2
     7    7   15 2
     8    8   11 1
     9    9   15 2
    10   10   16 2
    11   11   20 1
    12   12   16 1
    13   13   14 1
    14   14   29 1
    15   17   18 1
    16   19   17 1
    17   20   12 1
    18   21   20 1
    19   22   20 1
    20   23   22 1
    21   24   22 1
    22   25   26 1
    23   27   25 1
    24   28    3 1
    25   29   11 1
    26   30   29 1
    27   31   12 1
    28   32   31 1
    29   14   31 1
    30   17   28 1
    31   17   29 1
    32   22   28 1
    33   25   28 1
    34   25   31 1
@<TRIPOS>SUBSTRUCTURE
     1 RES1 1

@<TRIPOS>CRYSIN
   7.6272   13.3952   11.8460  90.0000  90.8700  90.0000   9 1

