# MOL2 file generated by ConQuest
# Please check atom types

@<TRIPOS>MOLECULE
PAWZEU
    55    48     2
SMALL
NO_CHARGES
****
Generated from CSD

@<TRIPOS>ATOM
      1 N1        -0.0533    5.7125    6.7288 N.pl3     1 RES1    0.0000
      2 O1         4.6401    3.9114    6.2059 O.2       1 RES1    0.0000
      3 O2         0.4617    4.7304    7.2194 O.2       1 RES1    0.0000
      4 O3        -0.5853    6.5848    7.3847 O.2       1 RES1    0.0000
      5 C1         4.3560    3.6210    5.0552 C.2       1 RES1    0.0000
      6 C2         3.0982    4.1098    4.4399 C.2       1 RES1    0.0000
      7 H1         2.8917    3.8404    3.5741 H         1 RES1    0.0000
      8 C3         2.2627    4.9076    5.0676 C.2       1 RES1    0.0000
      9 H2         2.4814    5.1643    5.9348 H         1 RES1    0.0000
     10 C4         1.0068    5.4250    4.5002 C.ar      1 RES1    0.0000
     11 C5        -0.0729    5.8480    5.2700 C.ar      1 RES1    0.0000
     12 C6        -1.2292    6.3627    4.7245 C.ar      1 RES1    0.0000
     13 H3        -1.9171    6.6599    5.2752 H         1 RES1    0.0000
     14 C7        -1.3537    6.4322    3.3622 C.ar      1 RES1    0.0000
     15 H4        -2.1441    6.7409    2.9808 H         1 RES1    0.0000
     16 C8        -0.3045    6.0435    2.5617 C.ar      1 RES1    0.0000
     17 H5        -0.3824    6.1002    1.6362 H         1 RES1    0.0000
     18 C9         0.8569    5.5720    3.1213 C.ar      1 RES1    0.0000
     19 H6         1.5649    5.3437    2.5644 H         1 RES1    0.0000
     20 C10        5.2098    2.7853    4.2088 C.2       1 RES1    0.0000
     21 H7         4.9635    2.6362    3.3246 H         1 RES1    0.0000
     22 C11        6.3230    2.2348    4.6697 C.2       1 RES1    0.0000
     23 H8         6.5123    2.4412    5.5566 H         1 RES1    0.0000
     24 C12        7.3045    1.3642    4.0390 C.2       1 RES1    0.0000
     25 C13        8.3313    0.9051    4.7943 C.2       1 RES1    0.0000
     26 C14        9.3992    0.0008    4.2591 C.3       1 RES1    0.0000
     27 H9         9.2544   -0.8954    4.5991 H         1 RES1    0.0000
     28 H10       10.2619    0.3049    4.5813 H         1 RES1    0.0000
     29 C15        9.4267   -0.0444    2.7325 C.3       1 RES1    0.0000
     30 H11        9.7517    0.7990    2.3785 H         1 RES1    0.0000
     31 H12       10.0146   -0.7526    2.4294 H         1 RES1    0.0000
     32 C16        8.0081   -0.3011    2.2550 C.3       1 RES1    0.0000
     33 H13        7.6378   -1.0711    2.7121 H         1 RES1    0.0000
     34 H14        8.0052   -0.4805    1.3013 H         1 RES1    0.0000
     35 C17        7.1456    0.9728    2.5641 C.3       1 RES1    0.0000
     36 C18        8.5392    1.2409    6.2513 C.3       1 RES1    0.0000
     37 H15        8.4173    2.1846    6.3830 H         1 RES1    0.0000
     38 H16        9.4290    0.9939    6.5129 H         1 RES1    0.0000
     39 H17        7.9033    0.7584    6.7841 H         1 RES1    0.0000
     40 C19        5.8091    0.2547    2.3237 C.3       1 RES1    0.0000
     41 H18        5.0923    0.8916    2.3619 H         1 RES1    0.0000
     42 H19        5.6793   -0.4130    3.0011 H         1 RES1    0.0000
     43 H20        5.8213   -0.1640    1.4605 H         1 RES1    0.0000
     44 C20        7.2225    2.1969    1.6635 C.3       1 RES1    0.0000
     45 H21        6.5387    2.8214    1.9150 H         1 RES1    0.0000
     46 H22        7.0936    1.9318    0.7500 H         1 RES1    0.0000
     47 H23        8.0842    2.6091    1.7584 H         1 RES1    0.0000
     48 C21        8.5106    0.3590    2.0525 Du        2 SUP2    0.0000
     49 H24        8.3939    0.0000    1.1587 Du        2 SUP2    0.0000
     50 H25        9.1880    1.0537    2.0143 Du        2 SUP2    0.0000
     51 C22        8.9520   -0.7237    2.9757 Du        2 SUP2    0.0000
     52 H26        9.6441   -0.6291    4.9404 Du        2 SUP2    0.0000
     53 H27       10.1689    0.5249    4.0249 Du        2 SUP2    0.0000
     54 H28        9.6877   -1.2254    2.5911 Du        2 SUP2    0.0000
     55 H29        8.2218   -1.3335    3.1641 Du        2 SUP2    0.0000
@<TRIPOS>BOND
     1    1    3 2
     2    2    5 2
     3    4    1 2
     4    5    6 1
     5    6    7 1
     6    8    6 2
     7    9    8 1
     8   10    8 1
     9   11    1 1
    10   12   11 ar
    11   13   12 1
    12   14   12 ar
    13   15   14 1
    14   16   14 ar
    15   17   16 1
    16   18   10 ar
    17   19   18 1
    18   20    5 1
    19   21   20 1
    20   22   20 2
    21   23   22 1
    22   24   22 1
    23   25   24 2
    24   26   25 1
    25   27   26 1
    26   28   26 1
    27   29   26 1
    28   30   29 1
    29   31   29 1
    30   32   29 1
    31   33   32 1
    32   34   32 1
    33   35   24 1
    34   36   25 1
    35   37   36 1
    36   38   36 1
    37   39   36 1
    38   40   35 1
    39   41   40 1
    40   42   40 1
    41   43   40 1
    42   44   35 1
    43   45   44 1
    44   46   44 1
    45   47   44 1
    46   10   11 ar
    47   16   18 ar
    48   32   35 1
@<TRIPOS>SUBSTRUCTURE
     1 RES1 1
     2 SUP2 48

@<TRIPOS>CRYSIN
   7.2941   19.2984   12.7491  90.0000  92.8920  90.0000 231 1

