# MOL2 file generated by ConQuest
# Please check atom types

@<TRIPOS>MOLECULE
PAWZEU01
    56    48     2
SMALL
NO_CHARGES
****
Generated from CSD

@<TRIPOS>ATOM
      1 O1         5.9791    3.9213    0.1525 O.2       1 RES1    0.0000
      2 O2        10.1586    4.7396   -0.8603 O.2       1 RES1    0.0000
      3 C1         3.4807    0.9824    3.8031 C.3       1 RES1    0.0000
      4 C2         3.3188    1.3705    2.3307 C.2       1 RES1    0.0000
      5 C3         4.2958    2.2419    1.6949 C.2       1 RES1    0.0000
      6 H1         4.1028    2.4483    0.8085 H         1 RES1    0.0000
      7 C4         5.4117    2.7939    2.1524 C.2       1 RES1    0.0000
      8 H2         5.6596    2.6436    3.0364 H         1 RES1    0.0000
      9 C5         6.2680    3.6336    1.3069 C.2       1 RES1    0.0000
     10 C6         7.5188    4.1190    1.9241 C.2       1 RES1    0.0000
     11 H3         7.7231    3.8484    2.7903 H         1 RES1    0.0000
     12 C7         8.3604    4.9206    1.2964 C.2       1 RES1    0.0000
     13 H4         8.1438    5.1770    0.4285 H         1 RES1    0.0000
     14 C8         9.6109    5.4381    1.8629 C.ar      1 RES1    0.0000
     15 C9        10.6968    5.8598    1.0942 C.ar      1 RES1    0.0000
     16 C10       11.8521    6.3797    1.6372 C.ar      1 RES1    0.0000
     17 H5        12.5388    6.6796    1.0865 H         1 RES1    0.0000
     18 C11       11.9750    6.4483    3.0015 C.ar      1 RES1    0.0000
     19 H6        12.7633    6.7589    3.3845 H         1 RES1    0.0000
     20 N1        10.6772    5.7216   -0.3650 N.pl3     1 RES1    0.0000
     21 O3        11.2127    6.5957   -1.0282 O.2       1 RES1    0.0000
     22 C12       10.9248    6.0558    3.7996 C.ar      1 RES1    0.0000
     23 H7        11.0057    6.1072    4.7248 H         1 RES1    0.0000
     24 C13        9.7592    5.5885    3.2441 C.ar      1 RES1    0.0000
     25 H8         9.0487    5.3665    3.8028 H         1 RES1    0.0000
     26 C14        2.2931    0.9120    1.5762 C.2       1 RES1    0.0000
     27 C15        1.2400   -0.0174    2.1284 C.3       1 RES1    0.0000
     28 H9         1.4225   -0.9186    1.8236 H         1 RES1    0.0000
     29 H10        0.3734    0.2456    1.7790 H         1 RES1    0.0000
     30 C16        2.0786    1.2369    0.1186 C.3       1 RES1    0.0000
     31 H11        2.1001    2.1892   -0.0038 H         1 RES1    0.0000
     32 H12        1.2260    0.8973   -0.1632 H         1 RES1    0.0000
     33 H13        2.7735    0.8316   -0.4055 H         1 RES1    0.0000
     34 C17        3.4078    2.2062    4.7108 C.3       1 RES1    0.0000
     35 H14        4.1132    2.8157    4.4838 H         1 RES1    0.0000
     36 H15        3.5031    1.9319    5.6264 H         1 RES1    0.0000
     37 H16        2.5593    2.6417    4.5948 H         1 RES1    0.0000
     38 C18        4.8122    0.2617    4.0515 C.3       1 RES1    0.0000
     39 H17        4.9426   -0.4100    3.3782 H         1 RES1    0.0000
     40 H18        4.7947   -0.1528    4.9174 H         1 RES1    0.0000
     41 H19        5.5313    0.8954    4.0145 H         1 RES1    0.0000
     42 C19        1.1821   -0.0097    3.6498 C.3       1 RES1    0.0000
     43 H20        0.8629    0.8470    3.9724 H         1 RES1    0.0000
     44 H21        0.5815   -0.7020    3.9686 H         1 RES1    0.0000
     45 C20        2.5951   -0.2688    4.1459 C.3       1 RES1    0.0000
     46 H22        2.9576   -1.0598    3.7161 H         1 RES1    0.0000
     47 H23        2.5882   -0.4177    5.1049 H         1 RES1    0.0000
     48 C21        2.0854    0.4022    4.3270 Du        2 SUP2    0.0000
     49 H24        2.1879    0.0600    5.2286 Du        2 SUP2    0.0000
     50 H25        1.4206    1.1100    4.3435 Du        2 SUP2    0.0000
     51 C22        1.6416   -0.6846    3.4215 Du        2 SUP2    0.0000
     52 H26        0.8953   -1.1681    3.8092 Du        2 SUP2    0.0000
     53 H27        2.3657   -1.3092    3.2583 Du        2 SUP2    0.0000
     54 C23        1.2147    0.0155    2.0953 Du        2 SUP2    0.0000
     55 H28        1.0047   -0.6575    1.4283 Du        2 SUP2    0.0000
     56 H29        0.4093    0.5376    2.2521 Du        2 SUP2    0.0000
@<TRIPOS>BOND
     1    1    9 2
     2    2   20 2
     3    3    4 1
     4    4    5 1
     5    5    6 1
     6    7    5 2
     7    8    7 1
     8    9    7 1
     9   10    9 1
    10   11   10 1
    11   12   10 2
    12   13   12 1
    13   14   12 1
    14   15   14 ar
    15   16   15 ar
    16   17   16 1
    17   18   16 ar
    18   19   18 1
    19   20   15 1
    20   21   20 2
    21   22   18 ar
    22   23   22 1
    23   24   14 ar
    24   25   24 1
    25   26    4 2
    26   27   26 1
    27   28   27 1
    28   29   27 1
    29   30   26 1
    30   31   30 1
    31   32   30 1
    32   33   30 1
    33   34    3 1
    34   35   34 1
    35   36   34 1
    36   37   34 1
    37   38    3 1
    38   39   38 1
    39   40   38 1
    40   41   38 1
    41   42   27 1
    42   43   42 1
    43   44   42 1
    44   45    3 1
    45   46   45 1
    46   47   45 1
    47   22   24 ar
    48   42   45 1
@<TRIPOS>SUBSTRUCTURE
     1 RES1 1
     2 SUP2 48

@<TRIPOS>CRYSIN
   7.2965   19.3388   12.7689  90.0000  92.8950  90.0000 231 1

