# MOL2 file generated by ConQuest
# Please check atom types

@<TRIPOS>MOLECULE
PAXDUQ
    54    57     1
SMALL
NO_CHARGES
****
Generated from CSD

@<TRIPOS>ATOM
      1 N1         6.8311    3.6980   11.5094 N.am      1 RES1    0.0000
      2 N2         7.1561    6.6529   11.2624 N.3       1 RES1    0.0000
      3 O1         7.9134    5.6613   10.5514 O.3       1 RES1    0.0000
      4 O2         4.5466   10.0232    6.5175 O.3       1 RES1    0.0000
      5 O3         8.7246    2.5046   11.6746 O.2       1 RES1    0.0000
      6 O4         6.9331    2.1077   13.0160 O.3       1 RES1    0.0000
      7 C1         5.4517    4.0885   11.6901 C.3       1 RES1    0.0000
      8 H1         5.2764    4.5424   12.5282 H         1 RES1    0.0000
      9 H2         4.8155    3.3707   11.5396 H         1 RES1    0.0000
     10 C2         5.6259    5.0369   10.4854 C.3       1 RES1    0.0000
     11 H3         5.0541    4.8292    9.7161 H         1 RES1    0.0000
     12 C3         7.0631    4.5405   10.3602 C.3       1 RES1    0.0000
     13 H4         7.2408    4.0443    9.5345 H         1 RES1    0.0000
     14 C4         5.7612    6.5163   10.7896 C.3       1 RES1    0.0000
     15 H5         5.1527    6.7481   11.5215 H         1 RES1    0.0000
     16 C5         5.4879    7.4248    9.6197 C.ar      1 RES1    0.0000
     17 C6         4.2285    7.9948    9.4708 C.ar      1 RES1    0.0000
     18 H6         3.5620    7.7949   10.0877 H         1 RES1    0.0000
     19 C7         3.9494    8.8436    8.4347 C.ar      1 RES1    0.0000
     20 H7         3.1010    9.2168    8.3592 H         1 RES1    0.0000
     21 C8         4.9156    9.1496    7.5032 C.ar      1 RES1    0.0000
     22 C9         6.1662    8.5799    7.6141 C.ar      1 RES1    0.0000
     23 H8         6.8210    8.7661    6.9810 H         1 RES1    0.0000
     24 C10        6.4435    7.7325    8.6660 C.ar      1 RES1    0.0000
     25 H9         7.2928    7.3602    8.7373 H         1 RES1    0.0000
     26 C11        5.5502   10.4993    5.6336 C.3       1 RES1    0.0000
     27 H10        6.3226   10.7643    6.1397 H         1 RES1    0.0000
     28 H11        5.2140   11.2538    5.1445 H         1 RES1    0.0000
     29 H12        5.7932    9.8027    5.0201 H         1 RES1    0.0000
     30 C12        7.4149    6.6421   12.6528 C.ar      1 RES1    0.0000
     31 C13        6.6329    7.3919   13.5005 C.ar      1 RES1    0.0000
     32 H13        5.9041    7.8618   13.1649 H         1 RES1    0.0000
     33 C14        6.9279    7.4487   14.8476 C.ar      1 RES1    0.0000
     34 H14        6.3695    7.9205   15.4221 H         1 RES1    0.0000
     35 C15        8.0259    6.8220   15.3386 C.ar      1 RES1    0.0000
     36 H15        8.2315    6.8797   16.2454 H         1 RES1    0.0000
     37 C16        8.8140    6.1182   14.5136 C.ar      1 RES1    0.0000
     38 H16        9.5692    5.6972   14.8557 H         1 RES1    0.0000
     39 C17        8.5321    6.0044   13.1698 C.ar      1 RES1    0.0000
     40 H17        9.0859    5.5050   12.6133 H         1 RES1    0.0000
     41 C18        7.5997    2.7357   12.0358 C.2       1 RES1    0.0000
     42 C19        7.6057    1.1500   13.8835 C.3       1 RES1    0.0000
     43 C20        8.7138    1.8666   14.6200 C.3       1 RES1    0.0000
     44 H18        9.3612    2.1897   13.9882 H         1 RES1    0.0000
     45 H19        9.1381    1.2587   15.2306 H         1 RES1    0.0000
     46 H20        8.3466    2.6065   15.1094 H         1 RES1    0.0000
     47 C21        8.0653   -0.0513   13.0913 C.3       1 RES1    0.0000
     48 H21        7.3170   -0.4327   12.6248 H         1 RES1    0.0000
     49 H22        8.4371   -0.7051   13.6887 H         1 RES1    0.0000
     50 H23        8.7334    0.2200   12.4578 H         1 RES1    0.0000
     51 C22        6.4773    0.7487   14.8246 C.3       1 RES1    0.0000
     52 H24        6.1095    1.5348   15.2355 H         1 RES1    0.0000
     53 H25        6.8193    0.1628   15.5023 H         1 RES1    0.0000
     54 H26        5.7911    0.2982   14.3271 H         1 RES1    0.0000
@<TRIPOS>BOND
     1    1    7 1
     2    2    3 1
     3    3   12 1
     4    4   21 1
     5    5   41 2
     6    6   41 1
     7    7    8 1
     8    9    7 1
     9   10    7 1
    10   11   10 1
    11   12    1 1
    12   13   12 1
    13   14    2 1
    14   15   14 1
    15   16   14 1
    16   17   16 ar
    17   18   17 1
    18   19   17 ar
    19   20   19 1
    20   21   19 ar
    21   22   21 ar
    22   23   22 1
    23   24   16 ar
    24   25   24 1
    25   26    4 1
    26   27   26 1
    27   28   26 1
    28   29   26 1
    29   30    2 1
    30   31   30 ar
    31   32   31 1
    32   33   31 ar
    33   34   33 1
    34   35   33 ar
    35   36   35 1
    36   37   35 ar
    37   38   37 1
    38   39   30 ar
    39   40   39 1
    40   41    1 1
    41   42    6 1
    42   43   42 1
    43   44   43 1
    44   45   43 1
    45   46   43 1
    46   47   42 1
    47   48   47 1
    48   49   47 1
    49   50   47 1
    50   51   42 1
    51   52   51 1
    52   53   51 1
    53   54   51 1
    54   10   12 1
    55   10   14 1
    56   22   24 ar
    57   37   39 ar
@<TRIPOS>SUBSTRUCTURE
     1 RES1 1

@<TRIPOS>CRYSIN
   6.1408   10.5400   16.5670  87.3990  81.1810  79.9220   2 1

