# MOL2 file generated by ConQuest
# Please check atom types

@<TRIPOS>MOLECULE
PAXGAY
    78    76     3
SMALL
NO_CHARGES
****
Generated from CSD

@<TRIPOS>ATOM
      1 N1        -0.5421   -2.6232    4.3922 N.pl3     1 RES1    0.0000
      2 O1        -0.7080   -3.5488    3.5968 O.2       1 RES1    0.0000
      3 O2        -1.3652   -1.7450    4.6230 O.2       1 RES1    0.0000
      4 C1         1.5527   -1.4250    5.0583 C.ar      1 RES1    0.0000
      5 C2         0.7081   -2.5651    5.1713 C.ar      1 RES1    0.0000
      6 C3         0.8795   -3.5913    6.0718 C.ar      1 RES1    0.0000
      7 C4         1.9456   -3.4594    6.9887 C.ar      1 RES1    0.0000
      8 H1         2.1151   -4.1591    7.6082 H         1 RES1    0.0000
      9 C5         2.7286   -2.3584    7.0040 C.ar      1 RES1    0.0000
     10 H2         3.4025   -2.2851    7.6695 H         1 RES1    0.0000
     11 C6         2.5796   -1.3118    6.0635 C.ar      1 RES1    0.0000
     12 C7         3.4378   -0.1675    6.1250 C.ar      1 RES1    0.0000
     13 C8         3.2248    0.7889    5.1692 C.ar      1 RES1    0.0000
     14 N2         4.0104    2.0369    5.1426 N.pl3     1 RES1    0.0000
     15 O3         3.3859    3.0912    4.9014 O.2       1 RES1    0.0000
     16 O4         5.1983    2.0097    5.3225 O.2       1 RES1    0.0000
     17 C9         2.2974    0.6558    4.1327 C.ar      1 RES1    0.0000
     18 H3         2.2311    1.3487    3.4857 H         1 RES1    0.0000
     19 C10        1.4836   -0.4380    4.0172 C.ar      1 RES1    0.0000
     20 C11       -0.0156   -4.7980    6.1372 C.3       1 RES1    0.0000
     21 H4        -0.9495   -4.5189    6.0330 H         1 RES1    0.0000
     22 H5         0.0971   -5.2423    7.0040 H         1 RES1    0.0000
     23 H6         0.2212   -5.4206    5.4186 H         1 RES1    0.0000
     24 C12        4.4876   -0.0637    7.2054 C.3       1 RES1    0.0000
     25 H7         5.2135   -0.6939    7.0173 H         1 RES1    0.0000
     26 H8         4.0854   -0.2779    8.0732 H         1 RES1    0.0000
     27 H9         4.8439    0.8492    7.2279 H         1 RES1    0.0000
     28 C13        0.6493   -0.5285    2.7344 C.3       1 RES1    0.0000
     29 H10        0.2205   -1.4318    2.7088 H         1 RES1    0.0000
     30 C14       -0.4639    0.5204    2.7231 C.3       1 RES1    0.0000
     31 H11       -0.0682    1.4158    2.6781 H         1 RES1    0.0000
     32 H12       -0.9977    0.4400    3.5409 H         1 RES1    0.0000
     33 H13       -1.0394    0.3779    1.9422 H         1 RES1    0.0000
     34 C15        1.5287   -0.3901    1.4975 C.3       1 RES1    0.0000
     35 H14        1.9072    0.5136    1.4658 H         1 RES1    0.0000
     36 H15        0.9892   -0.5464    0.6941 H         1 RES1    0.0000
     37 H16        2.2546   -1.0478    1.5374 H         1 RES1    0.0000
     38 N3         5.5257    1.8634    0.6051 N.pl3     2 RES2    0.0000
     39 O5         4.6946    1.4456    1.3951 O.2       2 RES2    0.0000
     40 O6         6.5810    1.2971    0.3527 O.2       2 RES2    0.0000
     41 C16        6.0759    4.2421    0.0227 C.ar      2 RES2    0.0000
     42 C17        5.2332    3.1044   -0.1411 C.ar      2 RES2    0.0000
     43 C18        4.2180    2.9905   -1.0661 C.ar      2 RES2    0.0000
     44 C19        4.0355    4.0775   -1.9411 C.ar      2 RES2    0.0000
     45 H17        3.3259    4.0538   -2.5728 H         2 RES2    0.0000
     46 C20        4.8539    5.1596   -1.9023 C.ar      2 RES2    0.0000
     47 H18        4.7267    5.8544   -2.5371 H         2 RES2    0.0000
     48 C21        5.8905    5.2868   -0.9424 C.ar      2 RES2    0.0000
     49 C22        6.7253    6.4471   -0.9506 C.ar      2 RES2    0.0000
     50 C23        7.6989    6.4922    0.0143 C.ar      2 RES2    0.0000
     51 N4         8.6614    7.6097    0.0900 N.pl3     2 RES2    0.0000
     52 O7         8.2651    8.7633   -0.0317 O.2       2 RES2    0.0000
     53 O8         9.8243    7.3417    0.3445 O.2       2 RES2    0.0000
     54 C24        7.8523    5.5233    1.0038 C.ar      2 RES2    0.0000
     55 H19        8.5407    5.6289    1.6488 H         2 RES2    0.0000
     56 C25        7.0425    4.4275    1.0753 C.ar      2 RES2    0.0000
     57 C26        3.3499    1.7651   -1.1990 C.3       2 RES2    0.0000
     58 H20        3.9072    0.9620   -1.1295 H         2 RES2    0.0000
     59 H21        2.9007    1.7769   -2.0699 H         2 RES2    0.0000
     60 H22        2.6801    1.7621   -0.4855 H         2 RES2    0.0000
     61 C27        6.5465    7.5146   -2.0045 C.3       2 RES2    0.0000
     62 H23        7.3439    8.0831   -2.0321 H         2 RES2    0.0000
     63 H24        5.7640    8.0601   -1.7858 H         2 RES2    0.0000
     64 H25        6.4170    7.0911   -2.8785 H         2 RES2    0.0000
     65 C28        7.1933    3.5560    2.3214 C.3       2 RES2    0.0000
     66 H26        6.4501    2.8857    2.3204 H         2 RES2    0.0000
     67 C29        8.5144    2.7930    2.3122 C.3       2 RES2    0.0000
     68 H27        8.5738    2.2545    1.4965 H         2 RES2    0.0000
     69 H28        8.5565    2.2054    3.0962 H         2 RES2    0.0000
     70 H29        9.2586    3.4290    2.3398 H         2 RES2    0.0000
     71 C30        7.0579    4.4076    3.5899 C.3       2 RES2    0.0000
     72 H30        7.0559    3.8242    4.3770 H         2 RES2    0.0000
     73 H31        6.2181    4.9135    3.5562 H         2 RES2    0.0000
     74 H32        7.8116    5.0313    3.6461 H         2 RES2    0.0000
     75 O9         4.3668    2.4331    4.1010 Du        3 SUP3    0.0000
     76 O10        4.2792    2.5614    6.2435 Du        3 SUP3    0.0000
     77 O11        9.0738    7.9282   -1.1316 Du        3 SUP3    0.0000
     78 O12        8.9197    8.0025    1.0038 Du        3 SUP3    0.0000
@<TRIPOS>BOND
     1    1    2 2
     2    3    1 2
     3    4    5 ar
     4    5    1 1
     5    6    5 ar
     6    7    6 ar
     7    8    7 1
     8    9    7 ar
     9   10    9 1
    10   11    4 ar
    11   12   11 ar
    12   13   12 ar
    13   14   13 1
    14   15   14 2
    15   16   14 2
    16   17   13 ar
    17   18   17 1
    18   19    4 ar
    19   20    6 1
    20   21   20 1
    21   22   20 1
    22   23   20 1
    23   24   12 1
    24   25   24 1
    25   26   24 1
    26   27   24 1
    27   28   19 1
    28   29   28 1
    29   30   28 1
    30   31   30 1
    31   32   30 1
    32   33   30 1
    33   34   28 1
    34   35   34 1
    35   36   34 1
    36   37   34 1
    37   38   39 2
    38   40   38 2
    39   41   42 ar
    40   42   38 1
    41   43   42 ar
    42   44   43 ar
    43   45   44 1
    44   46   44 ar
    45   47   46 1
    46   48   41 ar
    47   49   48 ar
    48   50   49 ar
    49   51   50 1
    50   52   51 2
    51   53   51 2
    52   54   50 ar
    53   55   54 1
    54   56   41 ar
    55   57   43 1
    56   58   57 1
    57   59   57 1
    58   60   57 1
    59   61   49 1
    60   62   61 1
    61   63   61 1
    62   64   61 1
    63   65   56 1
    64   66   65 1
    65   67   65 1
    66   68   67 1
    67   69   67 1
    68   70   67 1
    69   71   65 1
    70   72   71 1
    71   73   71 1
    72   74   71 1
    73    9   11 ar
    74   17   19 ar
    75   46   48 ar
    76   54   56 ar
@<TRIPOS>SUBSTRUCTURE
     1 RES1 1
     2 RES2 38
     3 SUP3 75

@<TRIPOS>CRYSIN
  11.7784   11.9072   12.4494 107.9280 112.8340 104.5360   2 1

