# MOL2 file generated by ConQuest
# Please check atom types

@<TRIPOS>MOLECULE
PAXJOO
    20    21     1
SMALL
NO_CHARGES
****
Generated from CSD

@<TRIPOS>ATOM
      1 C1         5.1922    1.6562    1.3670 C.ar      1 RES1    0.0000
      2 C2         5.9074    1.6562    0.1546 C.ar      1 RES1    0.0000
      3 H1         6.8445    1.6562    0.1476 H         1 RES1    0.0000
      4 C3         5.1989    1.6562   -1.0105 C.ar      1 RES1    0.0000
      5 H2         5.6092    1.6562   -1.8485 H         1 RES1    0.0000
      6 C4         3.7813    1.6562   -0.9685 C.ar      1 RES1    0.0000
      7 C5         2.9653    1.6562   -2.1282 C.ar      1 RES1    0.0000
      8 H3         3.3882    1.6562   -2.9748 H         1 RES1    0.0000
      9 C6         1.5997    1.6562   -2.0249 C.ar      1 RES1    0.0000
     10 H4         1.0416    1.6562   -2.8039 H         1 RES1    0.0000
     11 C7         0.9744    1.6562   -0.7542 C.ar      1 RES1    0.0000
     12 H5         0.0279    1.6562   -0.6913 H         1 RES1    0.0000
     13 C8         1.7513    1.6562    0.3619 C.ar      1 RES1    0.0000
     14 C9         3.1677    1.6562    0.3177 C.ar      1 RES1    0.0000
     15 C10        5.9126    1.6563    2.6245 C.1       1 RES1    0.0000
     16 N1         3.8671    1.6562    1.4819 N.ar      1 RES1    0.0000
     17 N2         6.4844    1.6563    3.6225 N.1       1 RES1    0.0000
     18 N3         1.1119    1.6562    1.6948 N.pl3     1 RES1    0.0000
     19 O1         0.8769    0.5956    2.2087 O.2       1 RES1    0.0000
     20 O1F        0.8769    2.7169    2.2087 O.2       1 RES1    0.0000
@<TRIPOS>BOND
     1    1    2 ar
     2    2    3 1
     3    4    2 ar
     4    5    4 1
     5    6    4 ar
     6    7    6 ar
     7    8    7 1
     8    9    7 ar
     9   10    9 1
    10   11    9 ar
    11   12   11 1
    12   13   11 ar
    13   14    6 ar
    14   15    1 1
    15   16    1 ar
    16   17   15 3
    17   18   13 1
    18   19   18 2
    19   20   18 2
    20   13   14 ar
    21   14   16 ar
@<TRIPOS>SUBSTRUCTURE
     1 RES1 1

@<TRIPOS>CRYSIN
  17.4470    6.6250    7.7670  90.0000  90.0000  90.0000  62 1

