# MOL2 file generated by ConQuest
# Please check atom types

@<TRIPOS>MOLECULE
PAXQAI
    58    61     1
SMALL
NO_CHARGES
****
Generated from CSD

@<TRIPOS>ATOM
      1 O1         4.8603    2.7965    4.6826 O.3       1 RES1    0.0000
      2 O2         1.6434    3.9126    7.9539 O.2       1 RES1    0.0000
      3 O3         5.0231   -0.0834    8.4151 O.2       1 RES1    0.0000
      4 O4         1.4546   -1.4526    9.8895 O.2       1 RES1    0.0000
      5 O5        -0.5647   -1.2757   10.4819 O.2       1 RES1    0.0000
      6 N1         0.3051   -1.3720    9.6314 N.pl3     1 RES1    0.0000
      7 C1         3.4492    1.8799    7.0336 C.3       1 RES1    0.0000
      8 C2         2.2601    4.1803    6.9300 C.2       1 RES1    0.0000
      9 C3         2.1199    5.5183    6.2464 C.3       1 RES1    0.0000
     10 C4         2.3003    5.4732    4.7220 C.3       1 RES1    0.0000
     11 C5         3.6381    4.7928    4.4233 C.3       1 RES1    0.0000
     12 C6         6.6128    1.2226    4.8145 C.3       1 RES1    0.0000
     13 C7         6.9584   -0.1833    5.3125 C.3       1 RES1    0.0000
     14 C8         6.8112   -0.1841    6.8423 C.3       1 RES1    0.0000
     15 C9         5.4796    0.3136    7.3564 C.2       1 RES1    0.0000
     16 C10        3.2159    3.2176    6.3565 C.2       1 RES1    0.0000
     17 C11        3.8584    3.5608    5.2322 C.2       1 RES1    0.0000
     18 C12        5.3636    1.7596    5.4302 C.2       1 RES1    0.0000
     19 C13        4.7860    1.3368    6.5640 C.2       1 RES1    0.0000
     20 C14        2.3348    0.9100    6.7009 C.2       1 RES1    0.0000
     21 C15        1.5492    0.3347    7.5851 C.2       1 RES1    0.0000
     22 C16        0.4554   -0.6050    7.2752 C.ar      1 RES1    0.0000
     23 C17       -0.1104   -0.6808    6.0025 C.ar      1 RES1    0.0000
     24 C18       -1.1274   -1.5647    5.7067 C.ar      1 RES1    0.0000
     25 C19       -1.6544   -2.3941    6.6771 C.ar      1 RES1    0.0000
     26 C20       -1.1698   -2.3155    7.9570 C.ar      1 RES1    0.0000
     27 C21       -0.1315   -1.4394    8.2314 C.ar      1 RES1    0.0000
     28 C22        6.0110   -1.2043    4.6928 C.3       1 RES1    0.0000
     29 C23        8.3939   -0.5169    4.9122 C.3       1 RES1    0.0000
     30 C24        2.3251    6.8836    4.1240 C.3       1 RES1    0.0000
     31 C25        1.1541    4.6931    4.0877 C.3       1 RES1    0.0000
     32 H1         3.4812    2.0128    8.0039 H         1 RES1    0.0000
     33 H2         2.7763    6.1278    6.6186 H         1 RES1    0.0000
     34 H3         1.2421    5.8774    6.4449 H         1 RES1    0.0000
     35 H4         3.6720    4.5622    3.4823 H         1 RES1    0.0000
     36 H5         4.3556    5.4189    4.6007 H         1 RES1    0.0000
     37 H6         7.3485    1.8207    5.0187 H         1 RES1    0.0000
     38 H7         6.5058    1.2003    3.8509 H         1 RES1    0.0000
     39 H8         6.9471   -1.0892    7.1637 H         1 RES1    0.0000
     40 H9         7.5143    0.3690    7.2202 H         1 RES1    0.0000
     41 H10        0.2071   -0.1186    5.3336 H         1 RES1    0.0000
     42 H11       -1.4634   -1.6014    4.8407 H         1 RES1    0.0000
     43 H12       -2.3300   -2.9985    6.4647 H         1 RES1    0.0000
     44 H13       -1.5337   -2.8422    8.6323 H         1 RES1    0.0000
     45 H14        5.1330   -1.0940    5.0653 H         1 RES1    0.0000
     46 H15        6.3295   -2.0909    4.8803 H         1 RES1    0.0000
     47 H16        5.9731   -1.0714    3.7435 H         1 RES1    0.0000
     48 H17        8.5891   -1.4263    5.1486 H         1 RES1    0.0000
     49 H18        8.9998    0.0697    5.3717 H         1 RES1    0.0000
     50 H19        8.4963   -0.4029    3.9638 H         1 RES1    0.0000
     51 H20        3.0542    7.3799    4.5047 H         1 RES1    0.0000
     52 H21        1.4992    7.3291    4.3197 H         1 RES1    0.0000
     53 H22        2.4408    6.8254    3.1730 H         1 RES1    0.0000
     54 H23        0.3208    5.1299    4.2858 H         1 RES1    0.0000
     55 H24        1.1394    3.8015    4.4411 H         1 RES1    0.0000
     56 H25        1.2796    4.6582    3.1363 H         1 RES1    0.0000
     57 H26        2.2391    0.7249    5.7431 H         1 RES1    0.0000
     58 H27        1.6998    0.5649    8.5461 H         1 RES1    0.0000
@<TRIPOS>BOND
     1    1   17 1
     2    2    8 2
     3    3   15 2
     4    4    6 2
     5    5    6 2
     6    6   27 1
     7    7   16 1
     8    8    9 1
     9    9   10 1
    10   10   11 1
    11   11   17 1
    12   12   13 1
    13   13   14 1
    14   14   15 1
    15   15   19 1
    16   16    8 1
    17   17   16 2
    18   18    1 1
    19   19    7 1
    20   20    7 1
    21   21   20 2
    22   22   21 1
    23   23   22 ar
    24   24   23 ar
    25   25   24 ar
    26   26   25 ar
    27   27   22 ar
    28   28   13 1
    29   29   13 1
    30   30   10 1
    31   31   10 1
    32   32    7 1
    33   33    9 1
    34   34    9 1
    35   35   11 1
    36   36   11 1
    37   37   12 1
    38   38   12 1
    39   39   14 1
    40   40   14 1
    41   41   23 1
    42   42   24 1
    43   43   25 1
    44   44   26 1
    45   45   28 1
    46   46   28 1
    47   47   28 1
    48   48   29 1
    49   49   29 1
    50   50   29 1
    51   51   30 1
    52   52   30 1
    53   53   30 1
    54   54   31 1
    55   55   31 1
    56   56   31 1
    57   57   20 1
    58   58   21 1
    59   12   18 1
    60   18   19 2
    61   26   27 ar
@<TRIPOS>SUBSTRUCTURE
     1 RES1 1

@<TRIPOS>CRYSIN
  33.3120    9.4144   14.4581  90.0000 102.3931  90.0000  15 1

