# MOL2 file generated by ConQuest
# Please check atom types

@<TRIPOS>MOLECULE
PAXQUC
    21    21     1
SMALL
USER_CHARGES
****
Generated from CSD

@<TRIPOS>ATOM
      1 O1         7.1942   11.3592    4.9674 O.2       1 RES1    0.0000
      2 O2         7.4766   12.4511    6.8015 O.2       1 RES1    0.0000
      3 O3         5.0943    6.8794   10.1240 O.2       1 RES1    0.0000
      4 N1         7.2095   11.4352    6.1898 N.pl3     1 RES1    0.0000
      5 N2         5.8909    4.3196    9.5330 N.2       1 RES1    0.0000
      6 N3         6.2442    4.2963   10.7093 N.1       1 RES1    1.0000
      7 N4         6.4884    4.1341   11.7919 N.2       1 RES1   -1.0000
      8 C1         7.0492    9.0019    6.3600 C.ar      1 RES1    0.0000
      9 H1         7.3690    8.9344    5.4888 H         1 RES1    0.0000
     10 C2         6.7333    7.8732    7.0862 C.ar      1 RES1    0.0000
     11 H2         6.8608    7.0320    6.7099 H         1 RES1    0.0000
     12 C3         6.2267    7.9796    8.3723 C.ar      1 RES1    0.0000
     13 C4         6.0611    9.2456    8.9308 C.ar      1 RES1    0.0000
     14 H3         5.7146    9.3227    9.7900 H         1 RES1    0.0000
     15 C5         6.3991   10.3790    8.2367 C.ar      1 RES1    0.0000
     16 H4         6.3060   11.2213    8.6198 H         1 RES1    0.0000
     17 C6         6.8806   10.2325    6.9541 C.ar      1 RES1    0.0000
     18 C7         5.8238    6.7807    9.1669 C.2       1 RES1    0.0000
     19 C8         6.3846    5.4452    8.7467 C.3       1 RES1    0.0000
     20 H5         6.1648    5.2942    7.8144 H         1 RES1    0.0000
     21 H6         7.3514    5.4760    8.8196 H         1 RES1    0.0000
@<TRIPOS>BOND
     1    1    4 2
     2    2    4 2
     3    3   18 2
     4    4   17 1
     5    5    6 2
     6    6    7 2
     7    8    9 1
     8   10    8 ar
     9   11   10 1
    10   12   10 ar
    11   13   12 ar
    12   14   13 1
    13   15   13 ar
    14   16   15 1
    15   17    8 ar
    16   18   12 1
    17   19    5 1
    18   20   19 1
    19   21   19 1
    20   15   17 ar
    21   18   19 1
@<TRIPOS>SUBSTRUCTURE
     1 RES1 1

@<TRIPOS>CRYSIN
   7.6307    9.5168   12.4097  90.0000  90.0000  90.0000  29 1

