# MOL2 file generated by ConQuest
# Please check atom types

@<TRIPOS>MOLECULE
PAYBOI
    47    49     1
SMALL
NO_CHARGES
****
Generated from CSD

@<TRIPOS>ATOM
      1 C1         5.3409    0.5282   19.8092 C.ar      1 RES1    0.0000
      2 C2         4.2319    0.1845   19.0558 C.ar      1 RES1    0.0000
      3 H1         3.4048    0.5716   19.2288 H         1 RES1    0.0000
      4 C3         4.3759   -0.7619   18.0228 C.ar      1 RES1    0.0000
      5 C4         5.5751   -1.3532   17.7475 C.ar      1 RES1    0.0000
      6 H2         5.6422   -1.9831   17.0644 H         1 RES1    0.0000
      7 C5         6.6816   -1.0137   18.4828 C.ar      1 RES1    0.0000
      8 H3         7.5026   -1.4114   18.3021 H         1 RES1    0.0000
      9 C6         6.5669   -0.0787   19.4890 C.ar      1 RES1    0.0000
     10 H4         7.3257    0.1583   19.9714 H         1 RES1    0.0000
     11 C7         5.2237    1.4795   20.9981 C.3       1 RES1    0.0000
     12 H5         4.4344    2.0446   20.8579 H         1 RES1    0.0000
     13 C8         6.1728   -0.1017   22.6540 C.3       1 RES1    0.0000
     14 H6         7.0048    0.3896   22.5774 H         1 RES1    0.0000
     15 H7         6.2119   -0.8619   22.0522 H         1 RES1    0.0000
     16 C9         5.9996   -0.5929   24.0895 C.3       1 RES1    0.0000
     17 H8         6.7365   -1.1777   24.3237 H         1 RES1    0.0000
     18 H9         6.0094    0.1640   24.6950 H         1 RES1    0.0000
     19 C10        4.6870   -1.3434   24.2334 C.3       1 RES1    0.0000
     20 H10        4.5503   -1.5861   25.1633 H         1 RES1    0.0000
     21 H11        4.7187   -2.1586   23.7081 H         1 RES1    0.0000
     22 C11        3.5354   -0.4732   23.7566 C.3       1 RES1    0.0000
     23 H12        2.7143   -0.9882   23.7717 H         1 RES1    0.0000
     24 H13        3.4292    0.2797   24.3605 H         1 RES1    0.0000
     25 C12        3.7818    0.0402   22.3479 C.3       1 RES1    0.0000
     26 H14        3.8001   -0.7078   21.7311 H         1 RES1    0.0000
     27 H15        3.0571    0.6290   22.0857 H         1 RES1    0.0000
     28 C13        6.5840    3.1394   19.8510 C.3       1 RES1    0.0000
     29 H16        5.8740    3.7955   19.7741 H         1 RES1    0.0000
     30 H17        6.5449    2.5580   19.0749 H         1 RES1    0.0000
     31 C14        7.9356    3.8480   19.8945 C.3       1 RES1    0.0000
     32 H18        8.6456    3.1870   19.9213 H         1 RES1    0.0000
     33 H19        8.0491    4.3770   19.0883 H         1 RES1    0.0000
     34 C15        8.0406    4.7485   21.1088 C.3       1 RES1    0.0000
     35 H20        8.9457    5.0905   21.1824 H         1 RES1    0.0000
     36 H21        7.4404    5.5030   21.0085 H         1 RES1    0.0000
     37 C16        7.6843    3.9841   22.3543 C.3       1 RES1    0.0000
     38 H22        7.6319    4.6001   23.1026 H         1 RES1    0.0000
     39 H23        8.3858    3.3428   22.5473 H         1 RES1    0.0000
     40 C17        6.3607    3.2501   22.2181 C.3       1 RES1    0.0000
     41 H24        6.1850    2.7433   23.0257 H         1 RES1    0.0000
     42 H25        5.6434    3.8931   22.1024 H         1 RES1    0.0000
     43 N1         3.2084   -1.0727   17.2276 N.pl3     1 RES1    0.0000
     44 N2         5.0533    0.7660   22.2760 N.3       1 RES1    0.0000
     45 N3         6.3950    2.3480   21.0734 N.3       1 RES1    0.0000
     46 O1         3.3682   -1.7706   16.2364 O.2       1 RES1    0.0000
     47 O2         2.1190   -0.6454   17.5682 O.2       1 RES1    0.0000
@<TRIPOS>BOND
     1    1    2 ar
     2    2    3 1
     3    4    2 ar
     4    5    4 ar
     5    6    5 1
     6    7    5 ar
     7    8    7 1
     8    9    1 ar
     9   10    9 1
    10   11    1 1
    11   12   11 1
    12   13   14 1
    13   15   13 1
    14   16   13 1
    15   17   16 1
    16   18   16 1
    17   19   16 1
    18   20   19 1
    19   21   19 1
    20   22   19 1
    21   23   22 1
    22   24   22 1
    23   25   22 1
    24   26   25 1
    25   27   25 1
    26   28   29 1
    27   30   28 1
    28   31   28 1
    29   32   31 1
    30   33   31 1
    31   34   31 1
    32   35   34 1
    33   36   34 1
    34   37   34 1
    35   38   37 1
    36   39   37 1
    37   40   37 1
    38   41   40 1
    39   42   40 1
    40   43    4 1
    41   44   11 1
    42   45   11 1
    43   46   43 2
    44   47   43 2
    45    7    9 ar
    46   13   44 1
    47   25   44 1
    48   28   45 1
    49   40   45 1
@<TRIPOS>SUBSTRUCTURE
     1 RES1 1

@<TRIPOS>CRYSIN
  12.1993    8.2012   33.4530  90.0000  90.0000  90.0000  61 1

