# MOL2 file generated by ConQuest
# Please check atom types

@<TRIPOS>MOLECULE
PAYBAV
    29    31     1
SMALL
NO_CHARGES
****
Generated from CSD

@<TRIPOS>ATOM
      1 N1         0.5445    8.9182    1.4894 N.2       1 RES1    0.0000
      2 C1         1.1267    8.3904    2.5575 C.2       1 RES1    0.0000
      3 O1         0.1846   10.3427    5.3634 O.2       1 RES1    0.0000
      4 N2         1.9544    7.3264    2.5488 N.3       1 RES1    0.0000
      5 O2        -1.3343   12.2748    4.2002 O.2       1 RES1    0.0000
      6 C2         2.3498    7.0494    3.8596 C.ar      1 RES1    0.0000
      7 N3         0.9973    8.8402    3.8517 N.am      1 RES1    0.0000
      8 O3        -1.8189   12.0894    2.1188 O.2       1 RES1    0.0000
      9 C3         3.1757    6.0572    4.3666 C.ar      1 RES1    0.0000
     10 H1         3.5790    5.4363    3.7595 H         1 RES1    0.0000
     11 N4        -1.2319   11.7054    3.1221 N.pl3     1 RES1    0.0000
     12 C4         3.3882    6.0593    5.7292 C.ar      1 RES1    0.0000
     13 H2         3.9384    5.4150    6.1074 H         1 RES1    0.0000
     14 C5         2.7905    7.0120    6.5654 C.ar      1 RES1    0.0000
     15 H3         2.9513    7.0316    7.5406 H         1 RES1    0.0000
     16 C6         1.9580    7.9943    6.0656 C.ar      1 RES1    0.0000
     17 H4         1.5586    8.6713    6.6187 H         1 RES1    0.0000
     18 C7         1.7522    7.9976    4.6994 C.ar      1 RES1    0.0000
     19 C8         0.2227    9.9896    4.1988 C.2       1 RES1    0.0000
     20 C9        -0.3923   10.5365    3.0213 C.2       1 RES1    0.0000
     21 C10       -0.2183    9.9863    1.7609 C.2       1 RES1    0.0000
     22 H5        -0.6546   10.3886    0.9363 H         1 RES1    0.0000
     23 C11        2.3537    6.6008    1.3345 C.3       1 RES1    0.0000
     24 H6         3.2893    6.3520    1.4022 H         1 RES1    0.0000
     25 H7         2.2557    7.1845    0.5654 H         1 RES1    0.0000
     26 C12        1.5246    5.3652    1.1300 C.3       1 RES1    0.0000
     27 H8         1.7423    4.9697    0.2830 H         1 RES1    0.0000
     28 H9         0.5934    5.5989    1.1444 H         1 RES1    0.0000
     29 H10        1.7074    4.7374    1.8329 H         1 RES1    0.0000
@<TRIPOS>BOND
     1    1    2 2
     2    2    4 1
     3    3   19 2
     4    4    6 1
     5    5   11 2
     6    6    9 ar
     7    7    2 1
     8    8   11 2
     9    9   10 1
    10   11   20 1
    11   12    9 ar
    12   13   12 1
    13   14   12 ar
    14   15   14 1
    15   16   14 ar
    16   17   16 1
    17   18    6 ar
    18   19    7 1
    19   20   19 1
    20   21    1 1
    21   22   21 1
    22   23    4 1
    23   24   23 1
    24   25   23 1
    25   26   23 1
    26   27   26 1
    27   28   26 1
    28   29   26 1
    29    7   18 1
    30   16   18 ar
    31   20   21 2
@<TRIPOS>SUBSTRUCTURE
     1 RES1 1

@<TRIPOS>CRYSIN
   8.2610   19.3600    7.9570  90.0000 115.1600  90.0000  14 1

