# MOL2 file generated by ConQuest
# Please check atom types

@<TRIPOS>MOLECULE
PAYPOV
    41    36     2
SMALL
NO_CHARGES
****
Generated from CSD

@<TRIPOS>ATOM
      1 N1         2.1398   10.0009    1.7045 N.2       1 RES1    0.0000
      2 C1         2.9797    8.9729    1.7045 C.2       1 RES1    0.0000
      3 C2         4.3844    9.1284    1.7045 C.2       1 RES1    0.0000
      4 H1         4.9258    8.3729    1.7045 H         1 RES1    0.0000
      5 C3         4.9500   10.3355    1.7045 C.2       1 RES1    0.0000
      6 C4         4.0899   11.4867    1.7045 C.2       1 RES1    0.0000
      7 C5         4.5426   12.8027    1.7045 C.2       1 RES1    0.0000
      8 H2         5.4551   12.9799    1.7045 H         1 RES1    0.0000
      9 C6         3.6486   13.8357    1.7045 C.2       1 RES1    0.0000
     10 C7         2.2777   13.6252    1.7045 C.2       1 RES1    0.0000
     11 H3         1.6879   14.3447    1.7045 H         1 RES1    0.0000
     12 C8         1.8138   12.3456    1.7045 C.2       1 RES1    0.0000
     13 H4         0.8956   12.1946    1.7045 H         1 RES1    0.0000
     14 C9         2.6908   11.2468    1.7045 C.2       1 RES1    0.0000
     15 N2         2.4552    7.7335    1.7045 N.2       1 RES1    0.0000
     16 C10        1.0546    7.4481    1.2641 C.3       1 RES1    0.0000
     17 C11        0.3526    7.1884    2.5370 C.3       1 RES1    0.0000
     18 H5        -0.5688    6.9867    2.3583 H         1 RES1    0.0000
     19 H6         0.7625    6.4438    2.9815 H         1 RES1    0.0000
     20 N3         4.1577   15.1959    1.7045 N.2       1 RES1    0.0000
     21 O1         5.3631   15.3734    1.7045 O.2       1 RES1    0.0000
     22 O2         3.3541   16.1205    1.7045 O.2       1 RES1    0.0000
     23 C12        6.4548   10.5230    1.7045 C.3       1 RES1    0.0000
     24 H7         6.6605   11.4607    1.7045 H         1 RES1    0.0000
     25 H8         6.8284   10.1132    0.9204 H         1 RES1    0.0000
     26 H9         2.9369    7.1670    1.7045 H         1 RES1    0.0000
     27 H10        0.6705    8.2098    0.8025 Du        2 SUP2    0.0000
     28 H11        1.0215    6.6734    0.6818 Du        2 SUP2    0.0000
     29 H12        0.4075    7.9652    3.0974 Du        2 SUP2    0.0000
     30 H13        0.9698    7.2764    3.2665 Du        2 SUP2    0.0000
     31 H14       -0.0073    6.2979    2.5274 Du        2 SUP2    0.0000
     32 H15       -0.3615    7.8214    2.6433 Du        2 SUP2    0.0000
     33 H16        6.8284   10.1132    2.4886 Du        2 SUP2    0.0000
     34 H17        6.8849    9.6647    1.7045 Du        2 SUP2    0.0000
     35 H18        6.7170   11.0122    2.4886 Du        2 SUP2    0.0000
     36 H19        6.7170   11.0122    0.9204 Du        2 SUP2    0.0000
     37 C10E       1.0546    7.4481    2.1449 C.3       1 RES1    0.0000
     38 C11E       0.3526    7.1884    0.8720 C.3       1 RES1    0.0000
     39 H5E       -0.5688    6.9867    1.0507 H         1 RES1    0.0000
     40 H6E        0.7625    6.4438    0.4275 H         1 RES1    0.0000
     41 H8E        6.8284   10.1132    2.4886 H         1 RES1    0.0000
@<TRIPOS>BOND
     1    1    2 1
     2    2    3 1
     3    3    4 1
     4    5    3 1
     5    6    5 1
     6    7    6 1
     7    8    7 1
     8    9    7 1
     9   10    9 1
    10   11   10 1
    11   12   10 1
    12   13   12 1
    13   14    1 1
    14   15    2 1
    15   16   15 1
    16   17   16 1
    17   18   17 1
    18   19   17 1
    19   20    9 1
    20   21   20 1
    21   22   20 1
    22   23    5 1
    23   24   23 1
    24   25   23 1
    25   26   15 1
    26   37   15 1
    27   38   16 1
    28   39   38 1
    29   40   38 1
    30   41   23 1
    31    6   14 1
    32   12   14 1
    33   16   37 1
    34   17   37 1
    35   17   38 1
    36   37   38 1
@<TRIPOS>SUBSTRUCTURE
     1 RES1 1
     2 SUP2 27

@<TRIPOS>CRYSIN
   8.0685   21.4580    6.8180  90.0000  90.0000  90.0000  57 1

