# MOL2 file generated by ConQuest
# Please check atom types

@<TRIPOS>MOLECULE
PAYWEU
    72    75     1
SMALL
NO_CHARGES
****
Generated from CSD

@<TRIPOS>ATOM
      1 O1        -1.6056   -0.9228    7.3865 O.2       1 RES1    0.0000
      2 N1         6.2905    2.6051   -0.0221 N.2       1 RES1    0.0000
      3 N2        -1.0402    0.0689    6.8199 N.3       1 RES1    0.0000
      4 C1         1.9106    1.9156    3.4730 C.1       1 RES1    0.0000
      5 C2         2.9883    2.1375    2.5524 C.ar      1 RES1    0.0000
      6 C3         0.1958    1.3675    5.3855 C.2       1 RES1    0.0000
      7 C4         5.1663    2.5285    0.8715 C.ar      1 RES1    0.0000
      8 C5        -0.3294    2.1700    6.3092 C.2       1 RES1    0.0000
      9 H1        -0.1870    3.1090    6.3206 H         1 RES1    0.0000
     10 C6         1.0866    1.7105    4.3342 C.1       1 RES1    0.0000
     11 C7        -0.2053   -0.0819    5.6106 C.3       1 RES1    0.0000
     12 C8        -1.1636    1.4615    7.3250 C.3       1 RES1    0.0000
     13 C9         3.3598    1.1632    1.6407 C.ar      1 RES1    0.0000
     14 H2         2.8580    0.3585    1.5876 H         1 RES1    0.0000
     15 C10        4.8014    3.5158    1.7538 C.ar      1 RES1    0.0000
     16 H3         5.2888    4.3305    1.7902 H         1 RES1    0.0000
     17 C11        0.9835   -0.9762    5.8984 C.3       1 RES1    0.0000
     18 H4         1.4751   -0.6271    6.6719 H         1 RES1    0.0000
     19 H5         1.5742   -0.9955    5.1178 H         1 RES1    0.0000
     20 H6         0.6698   -1.8836    6.0938 H         1 RES1    0.0000
     21 C12        3.7244    3.3130    2.5812 C.ar      1 RES1    0.0000
     22 H7         3.4764    3.9979    3.1919 H         1 RES1    0.0000
     23 C13        4.4509    1.3426    0.8044 C.ar      1 RES1    0.0000
     24 H8         4.7057    0.6615    0.1933 H         1 RES1    0.0000
     25 C14       -0.5924    1.5877    8.7349 C.3       1 RES1    0.0000
     26 H9        -1.1327    1.0544    9.3545 H         1 RES1    0.0000
     27 H10       -0.6107    2.5277    9.0124 H         1 RES1    0.0000
     28 H11        0.3319    1.2623    8.7429 H         1 RES1    0.0000
     29 C15       -1.0367   -0.6248    4.4621 C.3       1 RES1    0.0000
     30 H12       -1.3224   -1.5385    4.6698 H         1 RES1    0.0000
     31 H13       -0.4986   -0.6285    3.6436 H         1 RES1    0.0000
     32 H14       -1.8247   -0.0569    4.3333 H         1 RES1    0.0000
     33 C16       -2.6252    1.8898    7.2990 C.3       1 RES1    0.0000
     34 H15       -2.9874    1.7617    6.3968 H         1 RES1    0.0000
     35 H16       -2.6927    2.8360    7.5475 H         1 RES1    0.0000
     36 H17       -3.1365    1.3477    7.9361 H         1 RES1    0.0000
     37 O1A       14.8015    7.2417   -7.3865 O.2       1 RES1    0.0000
     38 N1A        6.9055    3.7137    0.0221 N.2       1 RES1    0.0000
     39 N2A       14.2361    6.2499   -6.8199 N.3       1 RES1    0.0000
     40 C1A       11.2854    4.4032   -3.4730 C.1       1 RES1    0.0000
     41 C2A       10.2077    4.1814   -2.5524 C.ar      1 RES1    0.0000
     42 C3A       13.0002    4.9514   -5.3855 C.2       1 RES1    0.0000
     43 C4A        8.0297    3.7904   -0.8715 C.ar      1 RES1    0.0000
     44 C5A       13.5254    4.1489   -6.3092 C.2       1 RES1    0.0000
     45 H1A       13.3829    3.2098   -6.3206 H         1 RES1    0.0000
     46 C6A       12.1094    4.6084   -4.3342 C.1       1 RES1    0.0000
     47 C7A       13.4013    6.4008   -5.6106 C.3       1 RES1    0.0000
     48 C8A       14.3596    4.8573   -7.3250 C.3       1 RES1    0.0000
     49 C9A        9.8362    5.1556   -1.6407 C.ar      1 RES1    0.0000
     50 H2A       10.3380    5.9603   -1.5876 H         1 RES1    0.0000
     51 C10A       8.3946    2.8031   -1.7538 C.ar      1 RES1    0.0000
     52 H3A        7.9072    1.9883   -1.7902 H         1 RES1    0.0000
     53 C11A      12.2124    7.2950   -5.8984 C.3       1 RES1    0.0000
     54 H4A       11.7209    6.9459   -6.6719 H         1 RES1    0.0000
     55 H5A       11.6218    7.3144   -5.1178 H         1 RES1    0.0000
     56 H6A       12.5262    8.2025   -6.0938 H         1 RES1    0.0000
     57 C12A       9.4716    3.0059   -2.5812 C.ar      1 RES1    0.0000
     58 H7A        9.7196    2.3210   -3.1919 H         1 RES1    0.0000
     59 C13A       8.7450    4.9762   -0.8044 C.ar      1 RES1    0.0000
     60 H8A        8.4903    5.6574   -0.1933 H         1 RES1    0.0000
     61 C14A      13.7884    4.7312   -8.7349 C.3       1 RES1    0.0000
     62 H9A       14.3287    5.2645   -9.3545 H         1 RES1    0.0000
     63 H10A      13.8067    3.7911   -9.0124 H         1 RES1    0.0000
     64 H11A      12.8641    5.0566   -8.7429 H         1 RES1    0.0000
     65 C15A      14.2327    6.9437   -4.4621 C.3       1 RES1    0.0000
     66 H12A      14.5184    7.8574   -4.6698 H         1 RES1    0.0000
     67 H13A      13.6945    6.9474   -3.6436 H         1 RES1    0.0000
     68 H14A      15.0207    6.3757   -4.3333 H         1 RES1    0.0000
     69 C16A      15.8212    4.4291   -7.2990 C.3       1 RES1    0.0000
     70 H15A      16.1834    4.5572   -6.3968 H         1 RES1    0.0000
     71 H16A      15.8887    3.4829   -7.5475 H         1 RES1    0.0000
     72 H17A      16.3325    4.9711   -7.9361 H         1 RES1    0.0000
@<TRIPOS>BOND
     1    1    3 1
     2    2    7 1
     3    3   11 1
     4    4    5 1
     5    5   13 ar
     6    6    8 2
     7    7   15 ar
     8    8    9 1
     9   10    4 3
    10   11    6 1
    11   12    3 1
    12   13   14 1
    13   15   16 1
    14   17   11 1
    15   18   17 1
    16   19   17 1
    17   20   17 1
    18   21    5 ar
    19   22   21 1
    20   23    7 ar
    21   24   23 1
    22   25   12 1
    23   26   25 1
    24   27   25 1
    25   28   25 1
    26   29   11 1
    27   30   29 1
    28   31   29 1
    29   32   29 1
    30   33   12 1
    31   34   33 1
    32   35   33 1
    33   36   33 1
    34   37   39 1
    35   38    2 2
    36   39   47 1
    37   40   41 1
    38   41   49 ar
    39   42   44 2
    40   43   38 1
    41   44   45 1
    42   46   40 3
    43   47   42 1
    44   48   39 1
    45   49   50 1
    46   51   43 ar
    47   52   51 1
    48   53   47 1
    49   54   53 1
    50   55   53 1
    51   56   53 1
    52   57   41 ar
    53   58   57 1
    54   59   43 ar
    55   60   59 1
    56   61   48 1
    57   62   61 1
    58   63   61 1
    59   64   61 1
    60   65   47 1
    61   66   65 1
    62   67   65 1
    63   68   65 1
    64   69   48 1
    65   70   69 1
    66   71   69 1
    67   72   69 1
    68    6   10 1
    69    8   12 1
    70   13   23 ar
    71   15   21 ar
    72   42   46 1
    73   44   48 1
    74   49   59 ar
    75   51   57 ar
@<TRIPOS>SUBSTRUCTURE
     1 RES1 1

@<TRIPOS>CRYSIN
   5.9834    6.4373   18.6100  89.1530  87.3640  78.9920   2 1

