# MOL2 file generated by ConQuest
# Please check atom types

@<TRIPOS>MOLECULE
PAZCUP
    48    49     1
SMALL
NO_CHARGES
****
Generated from CSD

@<TRIPOS>ATOM
      1 O1        -0.8887    4.8720    8.3624 O.2       1 RES1    0.0000
      2 O2         1.2309    5.2116    8.4825 O.2       1 RES1    0.0000
      3 O3         3.6855    4.7221    7.0845 O.3       1 RES1    0.0000
      4 O4         5.3797    4.7797    5.6542 O.2       1 RES1    0.0000
      5 O5        -0.6759    8.8395    5.1267 O.2       1 RES1    0.0000
      6 O6        -0.2895    7.3660    6.7434 O.3       1 RES1    0.0000
      7 O7        -3.7446    7.7341    7.4836 O.2       1 RES1    0.0000
      8 N1         0.2345    4.8729    7.8720 N.pl3     1 RES1    0.0000
      9 N2         3.1069    7.7095    3.5556 N.pl3     1 RES1    0.0000
     10 H1         3.4024    8.0517    2.8244 H         1 RES1    0.0000
     11 C1         0.3527    4.4166    6.4746 C.ar      1 RES1    0.0000
     12 C2        -0.4259    3.3223    6.1542 C.ar      1 RES1    0.0000
     13 H2        -0.9816    2.9425    6.7955 H         1 RES1    0.0000
     14 C3        -0.3777    2.7990    4.8902 C.ar      1 RES1    0.0000
     15 H3        -0.8866    2.0510    4.6717 H         1 RES1    0.0000
     16 C4         0.4292    3.3892    3.9473 C.ar      1 RES1    0.0000
     17 H4         0.4646    3.0429    3.0847 H         1 RES1    0.0000
     18 C5         1.1910    4.4989    4.2775 C.ar      1 RES1    0.0000
     19 H5         1.7235    4.8882    3.6215 H         1 RES1    0.0000
     20 C6         1.1876    5.0479    5.5515 C.ar      1 RES1    0.0000
     21 C7         2.0026    6.3303    5.7788 C.3       1 RES1    0.0000
     22 H6         2.0241    6.5202    6.7399 H         1 RES1    0.0000
     23 C8         3.4378    6.1470    5.2876 C.2       1 RES1    0.0000
     24 C9         4.2792    5.1790    5.9843 C.2       1 RES1    0.0000
     25 C10        4.3863    3.7164    7.8299 C.3       1 RES1    0.0000
     26 H7         4.4528    2.9157    7.3045 H         1 RES1    0.0000
     27 H8         3.9070    3.5270    8.6413 H         1 RES1    0.0000
     28 H9         5.2669    4.0321    8.0446 H         1 RES1    0.0000
     29 C11        3.9163    6.8234    4.2218 C.2       1 RES1    0.0000
     30 C12        5.3023    6.7459    3.6500 C.3       1 RES1    0.0000
     31 H10        5.9441    6.8588    4.3543 H         1 RES1    0.0000
     32 H11        5.4178    7.4385    2.9955 H         1 RES1    0.0000
     33 H12        5.4296    5.8898    3.2354 H         1 RES1    0.0000
     34 C13        1.8555    8.0846    3.9818 C.2       1 RES1    0.0000
     35 C14        1.2608    9.1843    3.1541 C.3       1 RES1    0.0000
     36 H13        0.3088    9.0705    3.1067 H         1 RES1    0.0000
     37 H14        1.6311    9.1547    2.2686 H         1 RES1    0.0000
     38 H15        1.4633   10.0319    3.5557 H         1 RES1    0.0000
     39 C15        1.3127    7.4933    5.0676 C.2       1 RES1    0.0000
     40 C16        0.0388    7.9876    5.5872 C.2       1 RES1    0.0000
     41 C17       -1.4587    7.8719    7.4047 C.3       1 RES1    0.0000
     42 H16       -1.4714    8.8371    7.3089 H         1 RES1    0.0000
     43 H17       -1.3843    7.6748    8.3517 H         1 RES1    0.0000
     44 C18       -2.7604    7.3362    6.9150 C.2       1 RES1    0.0000
     45 C19       -2.8234    6.3690    5.7943 C.3       1 RES1    0.0000
     46 H18       -3.7325    6.0926    5.6605 H         1 RES1    0.0000
     47 H19       -2.2844    5.6028    6.0027 H         1 RES1    0.0000
     48 H20       -2.4932    6.7852    4.9935 H         1 RES1    0.0000
@<TRIPOS>BOND
     1    1    8 2
     2    2    8 2
     3    3   24 1
     4    4   24 2
     5    5   40 2
     6    6   40 1
     7    7   44 2
     8    8   11 1
     9    9   10 1
    10   11   12 ar
    11   12   13 1
    12   14   12 ar
    13   15   14 1
    14   16   14 ar
    15   17   16 1
    16   18   16 ar
    17   19   18 1
    18   20   11 ar
    19   21   20 1
    20   22   21 1
    21   23   21 1
    22   24   23 1
    23   25    3 1
    24   26   25 1
    25   27   25 1
    26   28   25 1
    27   29    9 1
    28   30   29 1
    29   31   30 1
    30   32   30 1
    31   33   30 1
    32   34    9 1
    33   35   34 1
    34   36   35 1
    35   37   35 1
    36   38   35 1
    37   39   21 1
    38   40   39 1
    39   41    6 1
    40   42   41 1
    41   43   41 1
    42   44   41 1
    43   45   44 1
    44   46   45 1
    45   47   45 1
    46   48   45 1
    47   18   20 ar
    48   23   29 2
    49   34   39 2
@<TRIPOS>SUBSTRUCTURE
     1 RES1 1

@<TRIPOS>CRYSIN
  26.4620    9.5660   16.1590  90.0000 115.1550  90.0000  15 1

