# MOL2 file generated by ConQuest
# Please check atom types

@<TRIPOS>MOLECULE
PAZKOQ
    59    64     1
SMALL
NO_CHARGES
****
Generated from CSD

@<TRIPOS>ATOM
      1 C1         8.3520    6.9700    6.4432 C.2       1 RES1    0.0000
      2 C2         8.6826    6.7573    7.8454 C.2       1 RES1    0.0000
      3 H1         9.2786    7.3594    8.2773 H         1 RES1    0.0000
      4 C3         8.1778    5.7506    8.5284 C.2       1 RES1    0.0000
      5 H2         8.4554    5.6448    9.4303 H         1 RES1    0.0000
      6 C4         7.1981    4.7611    7.9830 C.3       1 RES1    0.0000
      7 C5         7.2362    4.5771    6.4523 C.3       1 RES1    0.0000
      8 H3         6.2960    4.4172    6.1540 H         1 RES1    0.0000
      9 C6         8.1057    3.4010    5.8788 C.3       1 RES1    0.0000
     10 C7         7.6281    1.9646    6.0636 C.3       1 RES1    0.0000
     11 H4         6.6865    1.8858    5.7673 H         1 RES1    0.0000
     12 H5         7.6716    1.7193    7.0218 H         1 RES1    0.0000
     13 C8         8.5085    1.0126    5.2480 C.3       1 RES1    0.0000
     14 H6         9.4242    1.0191    5.6226 H         1 RES1    0.0000
     15 H7         8.1533    0.0918    5.3314 H         1 RES1    0.0000
     16 C9         8.5710    1.3865    3.7806 C.3       1 RES1    0.0000
     17 H8         7.6716    1.2914    3.3798 H         1 RES1    0.0000
     18 H9         9.1820    0.7639    3.3105 H         1 RES1    0.0000
     19 C10        9.0663    2.8288    3.5857 C.3       1 RES1    0.0000
     20 H10        9.0405    3.0605    2.6235 H         1 RES1    0.0000
     21 H11       10.0039    2.9002    3.8931 H         1 RES1    0.0000
     22 C11        8.1902    3.8179    4.3752 C.3       1 RES1    0.0000
     23 C12        8.8667    5.1931    4.6905 C.3       1 RES1    0.0000
     24 C13        7.7631    5.8147    5.6558 C.3       1 RES1    0.0000
     25 H12        7.0158    6.1676    5.0923 H         1 RES1    0.0000
     26 C14        9.9607    4.7443    5.6498 C.2       1 RES1    0.0000
     27 H13       10.8162    5.1454    5.7442 H         1 RES1    0.0000
     28 C15        9.5154    3.6992    6.3287 C.2       1 RES1    0.0000
     29 H14        9.9998    3.2176    6.9886 H         1 RES1    0.0000
     30 C16        6.8538    3.9423    3.6299 C.3       1 RES1    0.0000
     31 H15        6.2701    4.5666    4.1100 H         1 RES1    0.0000
     32 H16        6.4239    3.0636    3.5827 H         1 RES1    0.0000
     33 H17        7.0158    4.2772    2.7239 H         1 RES1    0.0000
     34 C17        9.2909    6.0252    3.5154 C.ar      1 RES1    0.0000
     35 C18       10.5726    5.9368    3.0172 C.ar      1 RES1    0.0000
     36 H18       11.1850    5.3414    3.4320 H         1 RES1    0.0000
     37 C19       11.0013    6.6871    1.9305 C.ar      1 RES1    0.0000
     38 H19       11.8939    6.6064    1.6161 H         1 RES1    0.0000
     39 C20       10.1222    7.5516    1.3077 C.ar      1 RES1    0.0000
     40 C21        8.8269    7.6239    1.7657 C.ar      1 RES1    0.0000
     41 H20        8.2050    8.1934    1.3268 H         1 RES1    0.0000
     42 C22        8.4200    6.8802    2.8515 C.ar      1 RES1    0.0000
     43 H21        7.5219    6.9533    3.1538 H         1 RES1    0.0000
     44 C23       11.8109    8.3847   -0.1577 C.3       1 RES1    0.0000
     45 H22       12.3756    8.6119    0.6107 H         1 RES1    0.0000
     46 H23       11.9293    9.0584   -0.8598 H         1 RES1    0.0000
     47 H24       12.0680    7.5041   -0.5032 H         1 RES1    0.0000
     48 O1         8.5551    8.0429    5.8998 O.2       1 RES1    0.0000
     49 O2        10.4419    8.3561    0.2481 O.3       1 RES1    0.0000
     50 O3         7.5055    3.4829    8.6388 O.3       1 RES1    0.0000
     51 N1         6.5218    3.1950    9.6091 N.2       1 RES1    0.0000
     52 C24        5.7939    5.1158    8.5203 C.3       1 RES1    0.0000
     53 H25        5.7762    6.0213    8.9191 H         1 RES1    0.0000
     54 H26        5.1067    5.0567    7.8092 H         1 RES1    0.0000
     55 C25        5.6020    4.0718    9.5438 C.2       1 RES1    0.0000
     56 C26        4.4182    3.9878   10.4367 C.3       1 RES1    0.0000
     57 H27        4.5747    3.3063   11.1227 H         1 RES1    0.0000
     58 H28        3.6276    3.7451    9.9094 H         1 RES1    0.0000
     59 H29        4.2699    4.8560   10.8666 H         1 RES1    0.0000
@<TRIPOS>BOND
     1    1    2 1
     2    2    3 1
     3    4    2 2
     4    5    4 1
     5    6    4 1
     6    7    6 1
     7    8    7 1
     8    9    7 1
     9   10    9 1
    10   11   10 1
    11   12   10 1
    12   13   10 1
    13   14   13 1
    14   15   13 1
    15   16   13 1
    16   17   16 1
    17   18   16 1
    18   19   16 1
    19   20   19 1
    20   21   19 1
    21   22    9 1
    22   23   22 1
    23   24    1 1
    24   25   24 1
    25   26   23 1
    26   27   26 1
    27   28    9 1
    28   29   28 1
    29   30   22 1
    30   31   30 1
    31   32   30 1
    32   33   30 1
    33   34   23 1
    34   35   34 ar
    35   36   35 1
    36   37   35 ar
    37   38   37 1
    38   39   37 ar
    39   40   39 ar
    40   41   40 1
    41   42   34 ar
    42   43   42 1
    43   44   45 1
    44   46   44 1
    45   47   44 1
    46   48    1 2
    47   49   39 1
    48   50    6 1
    49   51   50 1
    50   52    6 1
    51   53   52 1
    52   54   52 1
    53   55   51 2
    54   56   55 1
    55   57   56 1
    56   58   56 1
    57   59   56 1
    58    7   24 1
    59   19   22 1
    60   23   24 1
    61   26   28 2
    62   40   42 ar
    63   44   49 1
    64   52   55 1
@<TRIPOS>SUBSTRUCTURE
     1 RES1 1

@<TRIPOS>CRYSIN
  13.6070   15.5590   10.0440  90.0000  90.0000  90.0000  18 1

