# MOL2 file generated by ConQuest
# Please check atom types

@<TRIPOS>MOLECULE
PAZOXN12
    66    68     2
SMALL
NO_CHARGES
****
Generated from CSD

@<TRIPOS>ATOM
      1 C1         9.3744    7.5898    1.2749 C.ar      1 RES1    0.0000
      2 C2         8.2934    6.9697    1.7507 C.ar      1 RES1    0.0000
      3 H1         7.7292    6.5371    1.1513 H         1 RES1    0.0000
      4 C3         7.9827    6.9438    3.0687 C.ar      1 RES1    0.0000
      5 H2         7.2160    6.5087    3.3663 H         1 RES1    0.0000
      6 C4         8.8368    7.5833    3.9714 C.ar      1 RES1    0.0000
      7 C5         9.9979    8.1564    3.5143 C.ar      1 RES1    0.0000
      8 H3        10.6069    8.5208    4.1151 H         1 RES1    0.0000
      9 C6        10.2539    8.1880    2.1488 C.ar      1 RES1    0.0000
     10 H4        11.0172    8.6109    1.8269 H         1 RES1    0.0000
     11 C7         9.3327    8.0590    6.2884 C.3       1 RES1    0.0000
     12 H5        10.2166    7.6953    6.1964 H         1 RES1    0.0000
     13 H6         8.9841    7.8366    7.1551 H         1 RES1    0.0000
     14 H7         9.3676    9.0135    6.1935 H         1 RES1    0.0000
     15 C8        10.5940    7.6231   -2.2078 C.ar      1 RES1    0.0000
     16 C9        11.3727    8.3901   -2.9537 C.ar      1 RES1    0.0000
     17 H8        11.7600    9.1433   -2.5700 H         1 RES1    0.0000
     18 C10       11.6236    8.1207   -4.2387 C.ar      1 RES1    0.0000
     19 H9        12.1851    8.6807   -4.7245 H         1 RES1    0.0000
     20 C11       11.0605    7.0233   -4.8525 C.ar      1 RES1    0.0000
     21 C12       10.1835    6.2133   -4.1237 C.ar      1 RES1    0.0000
     22 H10        9.7636    5.4860   -4.5233 H         1 RES1    0.0000
     23 C13        9.9518    6.5282   -2.7583 C.ar      1 RES1    0.0000
     24 H11        9.3781    6.0079   -2.2437 H         1 RES1    0.0000
     25 C14       10.7961    5.6962   -6.8346 C.3       1 RES1    0.0000
     26 H12       10.9965    4.8805   -6.3703 H         1 RES1    0.0000
     27 H13       11.1342    5.6467   -7.7315 H         1 RES1    0.0000
     28 H14        9.8452    5.8261   -6.8576 H         1 RES1    0.0000
     29 N1         9.5598    7.3415   -0.1725 N.2       1 RES1    0.0000
     30 N2        10.3678    8.0379   -0.5821 N.pl3     1 RES1    0.0000
     31 O1        11.0792    9.0200   -0.3406 O.2       1 RES1    0.0000
     32 O2         8.4833    7.5087    5.2779 O.3       1 RES1    0.0000
     33 O3        11.4184    6.8098   -6.1446 O.3       1 RES1    0.0000
     34 C15       14.9554    4.5989   -8.2058 C.ar      2 RES2    0.0000
     35 C16       16.1052    5.2238   -8.7045 C.ar      2 RES2    0.0000
     36 H15       16.6923    5.6548   -8.1253 H         2 RES2    0.0000
     37 C17       16.3605    5.1962  -10.0427 C.ar      2 RES2    0.0000
     38 H16       17.1398    5.6013  -10.3489 H         2 RES2    0.0000
     39 C18       15.5237    4.5997  -10.9727 C.ar      2 RES2    0.0000
     40 C19       14.4102    3.9171  -10.4739 C.ar      2 RES2    0.0000
     41 H17       13.8510    3.4560  -11.0575 H         2 RES2    0.0000
     42 C20       14.1347    3.9219   -9.1271 C.ar      2 RES2    0.0000
     43 H18       13.3856    3.4658   -8.8152 H         2 RES2    0.0000
     44 C21       15.0112    4.1135  -13.2149 C.3       2 RES2    0.0000
     45 H19       14.9670    3.1647  -13.0755 H         2 RES2    0.0000
     46 H20       15.3279    4.2921  -14.1032 H         2 RES2    0.0000
     47 H21       14.1376    4.4950  -13.1028 H         2 RES2    0.0000
     48 C22       13.8246    4.5331   -4.7748 C.ar      2 RES2    0.0000
     49 C23       14.4250    5.6337   -4.1712 C.ar      2 RES2    0.0000
     50 H22       15.0024    6.1719   -4.6656 H         2 RES2    0.0000
     51 C24       14.1780    5.9300   -2.8704 C.ar      2 RES2    0.0000
     52 H23       14.6025    6.6564   -2.4751 H         2 RES2    0.0000
     53 C25       13.3182    5.1751   -2.1402 C.ar      2 RES2    0.0000
     54 C26       12.6565    4.0883   -2.7381 C.ar      2 RES2    0.0000
     55 H24       12.0548    3.5875   -2.2365 H         2 RES2    0.0000
     56 C27       12.8859    3.7515   -4.0533 C.ar      2 RES2    0.0000
     57 H25       12.4417    3.0389   -4.4529 H         2 RES2    0.0000
     58 C28       13.5656    6.4405   -0.1351 C.3       2 RES2    0.0000
     59 H26       14.5202    6.3480   -0.1135 H         2 RES2    0.0000
     60 H27       13.2224    6.4397    0.7604 H         2 RES2    0.0000
     61 H28       13.3336    7.2676   -0.5649 H         2 RES2    0.0000
     62 N3        13.9743    4.1435   -6.1533 N.pl3     2 RES2    0.0000
     63 N4        14.7502    4.8618   -6.6693 N.2       2 RES2    0.0000
     64 O4        13.3115    3.1574   -6.6621 O.2       2 RES2    0.0000
     65 O5        15.9056    4.6914  -12.2677 O.3       2 RES2    0.0000
     66 O6        13.0087    5.3691   -0.8509 O.3       2 RES2    0.0000
@<TRIPOS>BOND
     1    1    2 ar
     2    2    3 1
     3    4    2 ar
     4    5    4 1
     5    6    4 ar
     6    7    6 ar
     7    8    7 1
     8    9    1 ar
     9   10    9 1
    10   11   12 1
    11   13   11 1
    12   14   11 1
    13   15   16 ar
    14   16   17 1
    15   18   16 ar
    16   19   18 1
    17   20   18 ar
    18   21   20 ar
    19   22   21 1
    20   23   15 ar
    21   24   23 1
    22   25   26 1
    23   27   25 1
    24   28   25 1
    25   29    1 1
    26   30   15 1
    27   31   30 1
    28   32    6 1
    29   33   20 1
    30   34   35 ar
    31   35   36 1
    32   37   35 ar
    33   38   37 1
    34   39   37 ar
    35   40   39 ar
    36   41   40 1
    37   42   34 ar
    38   43   42 1
    39   44   45 1
    40   46   44 1
    41   47   44 1
    42   48   49 ar
    43   49   50 1
    44   51   49 ar
    45   52   51 1
    46   53   51 ar
    47   54   53 ar
    48   55   54 1
    49   56   48 ar
    50   57   56 1
    51   58   59 1
    52   60   58 1
    53   61   58 1
    54   62   48 1
    55   63   34 1
    56   64   62 1
    57   65   39 1
    58   66   53 1
    59    7    9 ar
    60   11   32 1
    61   21   23 ar
    62   25   33 1
    63   29   30 2
    64   40   42 ar
    65   44   65 1
    66   54   56 ar
    67   58   66 1
    68   62   63 2
@<TRIPOS>SUBSTRUCTURE
     1 RES1 1
     2 RES2 34

