# MOL2 file generated by ConQuest
# Please check atom types

@<TRIPOS>MOLECULE
PAZOXN03
    55    34     2
SMALL
NO_CHARGES
****
Generated from CSD

@<TRIPOS>ATOM
      1 C1         0.6698   -0.3951   10.8662 C.3       1 RES1    0.0000
      2 O1         0.1092    0.6949   11.5871 O.3       1 RES1    0.0000
      3 C2         0.4593    0.8904   12.8615 C.ar      1 RES1    0.0000
      4 C3         1.3469    0.1269   13.6037 C.ar      1 RES1    0.0000
      5 C4         1.6195    0.4678   14.9277 C.ar      1 RES1    0.0000
      6 C5         1.0050    1.5707   15.5011 C.ar      1 RES1    0.0000
      7 C6         0.1199    2.3205   14.7631 C.ar      1 RES1    0.0000
      8 C7        -0.1499    1.9844   13.4504 C.ar      1 RES1    0.0000
      9 N1         1.2549    1.9206   16.8804 N.pl3     1 RES1    0.0000
     10 N2         2.1247    1.2128   17.5006 N.2       1 RES1    0.0000
     11 O2         0.6086    2.9047   17.3998 O.2       1 RES1    0.0000
     12 C8         2.3599    1.4374   18.8913 C.ar      1 RES1    0.0000
     13 C9         3.5053    0.7741   19.3611 C.ar      1 RES1    0.0000
     14 C10        3.8029    0.7983   20.7064 C.ar      1 RES1    0.0000
     15 C11        2.9817    1.4334   21.6118 C.ar      1 RES1    0.0000
     16 C12        1.8471    2.0878   21.1350 C.ar      1 RES1    0.0000
     17 C13        1.5426    2.0959   19.7854 C.ar      1 RES1    0.0000
     18 O3         3.3721    1.3502   22.9174 O.3       1 RES1    0.0000
     19 C14        2.5508    1.9359   23.9278 C.3       1 RES1    0.0000
     20 H1         0.3221   -0.3951    9.9821 H         1 RES1    0.0000
     21 H2         0.4467   -1.2112   11.3005 H         1 RES1    0.0000
     22 H3         1.6145   -0.3014   10.8350 H         1 RES1    0.0000
     23 H4         1.7685   -0.6294   13.2134 H         1 RES1    0.0000
     24 H5         2.2261   -0.0549   15.4400 H         1 RES1    0.0000
     25 H6        -0.3073    3.0736   15.1562 H         1 RES1    0.0000
     26 H7        -0.7628    2.5056   12.9452 H         1 RES1    0.0000
     27 H8         4.0723    0.3087   18.7579 H         1 RES1    0.0000
     28 H9         4.5904    0.3701   21.0200 H         1 RES1    0.0000
     29 H10        1.2738    2.5411   21.7424 H         1 RES1    0.0000
     30 H11        0.7716    2.5516   19.4689 H         1 RES1    0.0000
     31 H12        2.9478    1.7978   24.7793 H         1 RES1    0.0000
     32 H13        1.6906    1.5328   23.9108 H         1 RES1    0.0000
     33 H14        2.4656    2.8684   23.7660 H         1 RES1    0.0000
     34 C15        0.5730    0.8896   12.8856 Du        2 SUP2    0.0000
     35 C16        1.4413   -0.0428   13.4533 Du        2 SUP2    0.0000
     36 C17        1.8322    0.0897   14.7858 Du        2 SUP2    0.0000
     37 C18        1.3559    1.1554   15.5507 Du        2 SUP2    0.0000
     38 C19        0.4882    2.0878   14.9817 Du        2 SUP2    0.0000
     39 C20        0.0956    1.9553   13.6505 Du        2 SUP2    0.0000
     40 N3         1.8594    1.1183   16.8691 Du        2 SUP2    0.0000
     41 N4         1.4777    1.9699   17.7333 Du        2 SUP2    0.0000
     42 C21        1.9745    1.7962   19.0545 Du        2 SUP2    0.0000
     43 C22        3.1159    1.0326   19.3015 Du        2 SUP2    0.0000
     44 C23        3.5810    0.8775   20.6071 Du        2 SUP2    0.0000
     45 C24        2.9058    1.4859   21.6657 Du        2 SUP2    0.0000
     46 C25        1.7662    2.2503   21.4174 Du        2 SUP2    0.0000
     47 C26        1.3000    2.4046   20.1118 Du        2 SUP2    0.0000
     48 H15        1.7658   -0.7684   12.9339 Du        2 SUP2    0.0000
     49 H16        2.4232   -0.5454   15.1732 Du        2 SUP2    0.0000
     50 H17        0.1631    2.8134   15.5025 Du        2 SUP2    0.0000
     51 H18       -0.4944    2.5904   13.2631 Du        2 SUP2    0.0000
     52 H19        3.5754    0.6181   18.5806 Du        2 SUP2    0.0000
     53 H20        4.3583    0.3571   20.7759 Du        2 SUP2    0.0000
     54 H21        1.3067    2.6648   22.1383 Du        2 SUP2    0.0000
     55 H22        0.5231    2.9249   19.9443 Du        2 SUP2    0.0000
@<TRIPOS>BOND
     1    1    2 1
     2    2    3 1
     3    3    4 ar
     4    4    5 ar
     5    5    6 ar
     6    6    7 ar
     7    7    8 ar
     8    8    3 ar
     9    9    6 1
    10   10    9 2
    11   11    9 1
    12   12   10 1
    13   13   12 ar
    14   14   13 ar
    15   15   14 ar
    16   16   15 ar
    17   17   12 ar
    18   18   15 1
    19   19   18 1
    20   20    1 1
    21   21    1 1
    22   22    1 1
    23   23    4 1
    24   24    5 1
    25   25    7 1
    26   26    8 1
    27   27   13 1
    28   28   14 1
    29   29   16 1
    30   30   17 1
    31   31   19 1
    32   32   19 1
    33   33   19 1
    34   16   17 ar
@<TRIPOS>SUBSTRUCTURE
     1 RES1 1
     2 SUP2 34

@<TRIPOS>CRYSIN
  10.9822    8.0799   15.4490  90.0000 113.2800  90.0000  14 1

