# MOL2 file generated by ConQuest
# Please check atom types

@<TRIPOS>MOLECULE
PAZOXN13
    33    34     1
SMALL
NO_CHARGES
****
Generated from CSD

@<TRIPOS>ATOM
      1 C1         0.4984    5.5534   11.9271 C.ar      1 RES1    0.0000
      2 C2        -0.6169    4.9316   12.4143 C.ar      1 RES1    0.0000
      3 H1        -1.1931    4.4998   11.8250 H         1 RES1    0.0000
      4 C3        -0.8999    4.9316   13.7424 C.ar      1 RES1    0.0000
      5 H2        -1.6724    4.5120   14.0443 H         1 RES1    0.0000
      6 C4        -0.0543    5.5501   14.6580 C.ar      1 RES1    0.0000
      7 C5         1.0834    6.1784   14.1808 C.ar      1 RES1    0.0000
      8 H3         1.6675    6.5907   14.7730 H         1 RES1    0.0000
      9 C6         1.3488    6.1913   12.8240 C.ar      1 RES1    0.0000
     10 H4         2.1048    6.6313   12.5077 H         1 RES1    0.0000
     11 C7         0.4499    6.0306   16.9376 C.3       1 RES1    0.0000
     12 H5         1.3288    5.6589   16.8370 H         1 RES1    0.0000
     13 H6         0.1176    5.8310   17.8159 H         1 RES1    0.0000
     14 H7         0.4892    6.9827   16.8212 H         1 RES1    0.0000
     15 C8         1.6737    5.6037    8.4703 C.ar      1 RES1    0.0000
     16 C9         2.5326    6.3780    7.7358 C.ar      1 RES1    0.0000
     17 H8         2.9481    7.1101    8.1282 H         1 RES1    0.0000
     18 C10        2.7725    6.0745    6.4364 C.ar      1 RES1    0.0000
     19 H9         3.3543    6.6053    5.9420 H         1 RES1    0.0000
     20 C11        2.1609    4.9820    5.8299 C.ar      1 RES1    0.0000
     21 C12        1.2912    4.1995    6.5600 C.ar      1 RES1    0.0000
     22 H10        0.8693    3.4731    6.1633 H         1 RES1    0.0000
     23 C13        1.0527    4.5055    7.8939 C.ar      1 RES1    0.0000
     24 H11        0.4770    3.9763    8.3970 H         1 RES1    0.0000
     25 C14        1.9040    3.6866    3.8377 C.3       1 RES1    0.0000
     26 H12        2.1212    2.8652    4.2833 H         1 RES1    0.0000
     27 H13        2.2454    3.6622    2.9408 H         1 RES1    0.0000
     28 H14        0.9520    3.7969    3.8147 H         1 RES1    0.0000
     29 N1         0.6943    5.2985   10.4351 N.2       1 RES1    0.0000
     30 N2         1.4857    6.0055    9.9723 N.pl3     1 RES1    0.0000
     31 O1         2.1723    6.9900   10.3474 O.2       1 RES1    0.0000
     32 O2        -0.4218    5.4673   15.9602 O.3       1 RES1    0.0000
     33 O3         2.4940    4.7791    4.5391 O.3       1 RES1    0.0000
@<TRIPOS>BOND
     1    1    2 ar
     2    2    3 1
     3    4    2 ar
     4    5    4 1
     5    6    4 ar
     6    7    6 ar
     7    8    7 1
     8    9    1 ar
     9   10    9 1
    10   11   12 1
    11   13   11 1
    12   14   11 1
    13   15   16 ar
    14   16   17 1
    15   18   16 ar
    16   19   18 1
    17   20   18 ar
    18   21   20 ar
    19   22   21 1
    20   23   15 ar
    21   24   23 1
    22   25   26 1
    23   27   25 1
    24   28   25 1
    25   29    1 1
    26   30   15 1
    27   31   30 1
    28   32    6 1
    29   33   20 1
    30    7    9 ar
    31   11   32 1
    32   21   23 ar
    33   25   33 1
    34   29   30 2
@<TRIPOS>SUBSTRUCTURE
     1 RES1 1

@<TRIPOS>CRYSIN
  11.0245    8.1166   15.0455  90.0000 107.1900  90.0000 231 1

