# MOL2 file generated by ConQuest
# Please check atom types

@<TRIPOS>MOLECULE
PAZOXN
    33    34     1
SMALL
USER_CHARGES
****
Generated from CSD

@<TRIPOS>ATOM
      1 C1        -5.9065   -0.3817    4.8751 C.3       1 RES1    0.0000
      2 C2         0.8609    1.5086    9.5060 C.ar      1 RES1    0.0000
      3 C3         0.8186    0.8626   10.7450 C.ar      1 RES1    0.0000
      4 C4         1.9175    0.8677   11.5553 C.ar      1 RES1    0.0000
      5 C5         3.1005    1.4890   11.1579 C.ar      1 RES1    0.0000
      6 C6         3.1573    2.1279    9.9364 C.ar      1 RES1    0.0000
      7 C7         2.0185    2.1381    9.1201 C.ar      1 RES1    0.0000
      8 C8         5.3961    1.9767   11.6576 C.3       1 RES1    0.0000
      9 C9        -3.9935    0.9299    5.4681 C.ar      1 RES1    0.0000
     10 C10       -3.6863    0.1405    6.5749 C.ar      1 RES1    0.0000
     11 C11       -2.5725    0.4599    7.3466 C.ar      1 RES1    0.0000
     12 C12       -1.7901    1.5513    7.0036 C.ar      1 RES1    0.0000
     13 C13       -2.0914    2.3223    5.9089 C.ar      1 RES1    0.0000
     14 C14       -3.1846    2.0126    5.1432 C.ar      1 RES1    0.0000
     15 H1        -4.2305   -0.5979    6.8479 H         1 RES1    0.0000
     16 H2        -2.3600   -0.1760    8.1395 H         1 RES1    0.0000
     17 H3        -1.4164    3.1045    5.6755 H         1 RES1    0.0000
     18 H4        -3.4413    2.5796    4.3869 H         1 RES1    0.0000
     19 H5         0.0174    0.3545   10.9002 H         1 RES1    0.0000
     20 H6         1.9250    0.3975   12.5766 H         1 RES1    0.0000
     21 H7         4.0051    2.5780    9.6486 H         1 RES1    0.0000
     22 H8         2.1857    2.5902    8.3109 H         1 RES1    0.0000
     23 H9        -6.4214   -0.2458    5.8880 H         1 RES1    0.0000
     24 H10       -6.5176   -0.3456    4.0693 H         1 RES1    0.0000
     25 H11       -5.3404   -1.3255    4.8278 H         1 RES1    0.0000
     26 H12        5.2457    2.9682   11.5314 H         1 RES1    0.0000
     27 H13        5.6843    1.5689   10.7619 H         1 RES1    0.0000
     28 H14        6.0571    1.6386   12.3792 H         1 RES1    0.0000
     29 N1        -0.3996    1.2370    8.7471 N.2       1 RES1    0.0000
     30 N2        -0.5669    1.9441    7.7691 N.pl3     1 RES1    1.0000
     31 O1         0.1237    2.9270    7.3309 O.2       1 RES1   -1.0000
     32 O2         4.1321    1.4057   12.0381 O.3       1 RES1    0.0000
     33 O3        -5.0265    0.7182    4.6226 O.3       1 RES1    0.0000
@<TRIPOS>BOND
     1    1   23 1
     2    2    3 ar
     3    3    4 ar
     4    4    5 ar
     5    5    6 ar
     6    6    7 ar
     7    7    2 ar
     8    8   26 1
     9    9   10 ar
    10   10   11 ar
    11   11   12 ar
    12   12   13 ar
    13   13   14 ar
    14   14    9 ar
    15   15   10 1
    16   16   11 1
    17   17   13 1
    18   18   14 1
    19   19    3 1
    20   20    4 1
    21   21    6 1
    22   22    7 1
    23   24    1 1
    24   25    1 1
    25   27    8 1
    26   28    8 1
    27   29    2 1
    28   30   12 1
    29   31   30 1
    30   32    5 1
    31   33    1 1
    32    8   32 1
    33    9   33 1
    34   29   30 2
@<TRIPOS>SUBSTRUCTURE
     1 RES1 1

@<TRIPOS>CRYSIN
  15.7760    8.1120   11.0180  90.0000 114.5700  90.0000  14 2

