# MOL2 file generated by ConQuest
# Please check atom types

@<TRIPOS>MOLECULE
PAZQUE
    41    43     1
SMALL
NO_CHARGES
****
Generated from CSD

@<TRIPOS>ATOM
      1 O1         9.6327   -0.7023    8.3589 O.2       1 RES1    0.0000
      2 O2        10.1523    1.3598    8.6566 O.2       1 RES1    0.0000
      3 N1         8.2173    3.5786    2.0191 N.pl3     1 RES1    0.0000
      4 H1         7.8685    3.3828    1.2571 H         1 RES1    0.0000
      5 H2         9.0679    3.5102    2.1333 H         1 RES1    0.0000
      6 N2        10.5702    3.5167    4.4828 N.1       1 RES1    0.0000
      7 N3         8.4401    7.0507    4.2251 N.1       1 RES1    0.0000
      8 N4         4.8946    3.5980    0.7973 N.1       1 RES1    0.0000
      9 N5         9.4880    0.4885    8.1340 N.pl3     1 RES1    0.0000
     10 C1         8.1350    4.4511    4.3155 C.3       1 RES1    0.0000
     11 C2         7.4414    3.9860    3.0223 C.2       1 RES1    0.0000
     12 C3         6.0919    4.1445    3.0037 C.2       1 RES1    0.0000
     13 C4         7.2793    4.1065    5.5873 C.3       1 RES1    0.0000
     14 H3         7.6597    4.6143    6.3334 H         1 RES1    0.0000
     15 C5         5.3254    4.6383    4.1644 C.2       1 RES1    0.0000
     16 C6         3.9331    5.1439    3.9171 C.3       1 RES1    0.0000
     17 H4         3.3504    4.3928    3.7222 H         1 RES1    0.0000
     18 H5         3.9402    5.7258    3.1404 H         1 RES1    0.0000
     19 C7         3.3759    5.9090    5.1081 C.3       1 RES1    0.0000
     20 H6         3.7739    6.7927    5.1359 H         1 RES1    0.0000
     21 H7         2.4178    6.0167    5.0004 H         1 RES1    0.0000
     22 C8         3.6492    5.2072    6.3877 C.3       1 RES1    0.0000
     23 H8         3.2220    4.3358    6.3720 H         1 RES1    0.0000
     24 H9         3.2624    5.7134    7.1197 H         1 RES1    0.0000
     25 C9         5.1369    5.0316    6.6307 C.3       1 RES1    0.0000
     26 H10        5.5088    5.8681    6.9514 H         1 RES1    0.0000
     27 H11        5.2702    4.3630    7.3206 H         1 RES1    0.0000
     28 C10        5.8711    4.6100    5.3857 C.2       1 RES1    0.0000
     29 C11        9.5035    3.9005    4.4264 C.1       1 RES1    0.0000
     30 C12        8.2862    5.9268    4.2467 C.1       1 RES1    0.0000
     31 C13        5.4034    3.8417    1.7866 C.1       1 RES1    0.0000
     32 C14        7.3645    2.6370    5.9636 C.ar      1 RES1    0.0000
     33 C15        6.4795    1.6861    5.4583 C.ar      1 RES1    0.0000
     34 H12        5.8087    1.9494    4.8707 H         1 RES1    0.0000
     35 C16        6.5891    0.3571    5.8198 C.ar      1 RES1    0.0000
     36 H13        5.9911   -0.2649    5.4735 H         1 RES1    0.0000
     37 C17        7.5755   -0.0551    6.6879 C.ar      1 RES1    0.0000
     38 H14        7.6590   -0.9506    6.9269 H         1 RES1    0.0000
     39 C18        8.4326    0.8955    7.1914 C.ar      1 RES1    0.0000
     40 C19        8.3522    2.2336    6.8538 C.ar      1 RES1    0.0000
     41 H15        8.9470    2.8505    7.2143 H         1 RES1    0.0000
@<TRIPOS>BOND
     1    1    9 2
     2    2    9 2
     3    3    4 1
     4    5    3 1
     5    6   29 3
     6    7   30 3
     7    8   31 3
     8    9   39 1
     9   10   11 1
    10   11    3 1
    11   12   11 2
    12   13   10 1
    13   14   13 1
    14   15   12 1
    15   16   15 1
    16   17   16 1
    17   18   16 1
    18   19   16 1
    19   20   19 1
    20   21   19 1
    21   22   19 1
    22   23   22 1
    23   24   22 1
    24   25   22 1
    25   26   25 1
    26   27   25 1
    27   28   13 1
    28   29   10 1
    29   30   10 1
    30   31   12 1
    31   32   13 1
    32   33   32 ar
    33   34   33 1
    34   35   33 ar
    35   36   35 1
    36   37   35 ar
    37   38   37 1
    38   39   37 ar
    39   40   32 ar
    40   41   40 1
    41   15   28 2
    42   25   28 1
    43   39   40 ar
@<TRIPOS>SUBSTRUCTURE
     1 RES1 1

@<TRIPOS>CRYSIN
  25.1335   12.3774   13.4158  90.0000 119.4430  90.0000  15 1

