# MOL2 file generated by ConQuest
# Please check atom types

@<TRIPOS>MOLECULE
PAZVOC
    44    46     2
SMALL
NO_CHARGES
****
Generated from CSD

@<TRIPOS>ATOM
      1 N1         1.2366    6.3040    2.1796 N.pl3     1 RES1    0.0000
      2 N2         0.6784    7.4988    2.4942 N.2       1 RES1    0.0000
      3 N3         0.6880    7.5873    3.8025 N.2       1 RES1    0.0000
      4 N4         2.5649    8.1175    0.3821 N.pl3     1 RES1    0.0000
      5 N5         1.9163    4.9355   -3.2297 N.pl3     1 RES1    0.0000
      6 N6         1.6249    1.0697    4.1162 N.pl3     2 RES2    0.0000
      7 N7         0.8076    2.1155    3.8512 N.2       2 RES2    0.0000
      8 N8         0.6430    2.1401    2.5561 N.2       2 RES2    0.0000
      9 N9         3.3517    2.7754    5.8826 N.pl3     2 RES2    0.0000
     10 N10        2.8170   -0.6148    9.3447 N.pl3     2 RES2    0.0000
     11 O1         3.2330    8.1528    1.4021 O.2       1 RES1    0.0000
     12 O2         2.3345    9.0901   -0.3243 O.2       1 RES1    0.0000
     13 O3         1.3182    3.9578   -3.6553 O.2       1 RES1    0.0000
     14 O4         2.6549    5.6372   -3.9047 O.2       1 RES1    0.0000
     15 O5         3.3220    3.0894    4.7059 O.2       2 RES2    0.0000
     16 O6         3.8711    3.4511    6.7573 O.2       2 RES2    0.0000
     17 O7         3.8684   -0.2431    9.8514 O.2       2 RES2    0.0000
     18 O8         2.0320   -1.3780    9.8828 O.2       2 RES2    0.0000
     19 C1         1.4266    5.9478    0.8233 C.ar      1 RES1    0.0000
     20 C2         2.0335    6.8268   -0.0677 C.ar      1 RES1    0.0000
     21 C3         2.1997    6.5199   -1.3954 C.ar      1 RES1    0.0000
     22 H1         2.6163    7.1260   -1.9973 H         1 RES1    0.0000
     23 C4         1.7349    5.2908   -1.8169 C.ar      1 RES1    0.0000
     24 C5         1.1175    4.3931   -0.9691 C.ar      1 RES1    0.0000
     25 H2         0.8020    3.5593   -1.2954 H         1 RES1    0.0000
     26 C6         0.9682    4.7279    0.3588 C.ar      1 RES1    0.0000
     27 H3         0.5491    4.1205    0.9569 H         1 RES1    0.0000
     28 C7         1.5976    5.6370    3.2976 C.2       1 RES1    0.0000
     29 H4         2.0014    4.7788    3.3581 H         1 RES1    0.0000
     30 C8         1.2540    6.4651    4.3105 C.2       1 RES1    0.0000
     31 H5         1.3888    6.2880    5.2335 H         1 RES1    0.0000
     32 C9         1.9500    0.7094    5.4563 C.ar      2 RES2    0.0000
     33 C10        2.7472    1.4851    6.3026 C.ar      2 RES2    0.0000
     34 C11        3.0346    1.0650    7.5795 C.ar      2 RES2    0.0000
     35 H6         3.5933    1.5789    8.1516 H         2 RES2    0.0000
     36 C12        2.4863   -0.1272    8.0046 C.ar      2 RES2    0.0000
     37 C13        1.6730   -0.9061    7.2114 C.ar      2 RES2    0.0000
     38 H7         1.2973   -1.7141    7.5400 H         2 RES2    0.0000
     39 C14        1.4202   -0.4782    5.9198 C.ar      2 RES2    0.0000
     40 H8         0.8767   -1.0061    5.3464 H         2 RES2    0.0000
     41 C15        1.9604    0.4193    2.9830 C.2       2 RES2    0.0000
     42 H9         2.5096   -0.3509    2.8955 H         2 RES2    0.0000
     43 C16        1.3391    1.1118    1.9998 C.2       2 RES2    0.0000
     44 H10        1.3816    0.9120    1.0720 H         2 RES2    0.0000
@<TRIPOS>BOND
     1    1    2 1
     2    2    3 2
     3    3   30 1
     4    4   11 2
     5    5   13 2
     6    6    7 1
     7    7    8 2
     8    8   43 1
     9    9   15 2
    10   10   17 2
    11   12    4 2
    12   14    5 2
    13   16    9 2
    14   18   10 2
    15   19    1 1
    16   20    4 1
    17   21   20 ar
    18   22   21 1
    19   23    5 1
    20   24   23 ar
    21   25   24 1
    22   26   19 ar
    23   27   26 1
    24   28    1 1
    25   29   28 1
    26   30   28 2
    27   31   30 1
    28   32    6 1
    29   33    9 1
    30   34   33 ar
    31   35   34 1
    32   36   10 1
    33   37   36 ar
    34   38   37 1
    35   39   32 ar
    36   40   39 1
    37   41    6 1
    38   42   41 1
    39   43   41 2
    40   44   43 1
    41   19   20 ar
    42   21   23 ar
    43   24   26 ar
    44   32   33 ar
    45   34   36 ar
    46   37   39 ar
@<TRIPOS>SUBSTRUCTURE
     1 RES1 1
     2 RES2 6

@<TRIPOS>CRYSIN
   8.0280   10.5680   22.5680  90.0000  90.0000  90.0000  19 1

