# MOL2 file generated by ConQuest
# Please check atom types

@<TRIPOS>MOLECULE
PAZYOH
   134   144     2
SMALL
NO_CHARGES
****
Generated from CSD

@<TRIPOS>ATOM
      1 C1         4.4526   14.9432    1.6743 C.3       1 RES1    0.0000
      2 H1         4.3792   14.9724    2.6326 H         1 RES1    0.0000
      3 H2         3.8707   15.6015    1.2897 H         1 RES1    0.0000
      4 H3         5.3583   15.1288    1.4172 H         1 RES1    0.0000
      5 C2         4.0566   13.5602    1.1769 C.3       1 RES1    0.0000
      6 H4         3.1166   13.4119    1.3705 H         1 RES1    0.0000
      7 H5         4.1704   13.5263    0.2146 H         1 RES1    0.0000
      8 C3         4.8725   12.4488    1.8099 C.3       1 RES1    0.0000
      9 H6         4.7603   12.4817    2.7728 H         1 RES1    0.0000
     10 H7         5.8106   12.5935    1.6148 H         1 RES1    0.0000
     11 C4         4.4663   11.0753    1.3080 C.3       1 RES1    0.0000
     12 H8         3.5468   10.9034    1.5660 H         1 RES1    0.0000
     13 H9         4.5088   11.0673    0.3400 H         1 RES1    0.0000
     14 C5         4.9716    9.2160    2.8908 C.2       1 RES1    0.0000
     15 C6         6.2337    8.3675    3.2635 C.3       1 RES1    0.0000
     16 C7         7.1885    8.7062    2.1405 C.ar      1 RES1    0.0000
     17 C8         8.4684    8.2674    1.8609 C.ar      1 RES1    0.0000
     18 H10        8.8668    7.6235    2.4010 H         1 RES1    0.0000
     19 C9         9.1694    8.7903    0.7643 C.ar      1 RES1    0.0000
     20 C10       10.5718    8.3160    0.4551 C.3       1 RES1    0.0000
     21 H11       10.6405    8.1064   -0.4802 H         1 RES1    0.0000
     22 H12       10.7649    7.5320    0.9732 H         1 RES1    0.0000
     23 H13       11.2003    9.0074    0.6757 H         1 RES1    0.0000
     24 C11        8.5564    9.7692   -0.0019 C.ar      1 RES1    0.0000
     25 H14        9.0128   10.1129   -0.7352 H         1 RES1    0.0000
     26 C12        7.2859   10.2578    0.2845 C.ar      1 RES1    0.0000
     27 H15        6.9002   10.9313   -0.2274 H         1 RES1    0.0000
     28 C13        6.6167    9.7032    1.3622 C.ar      1 RES1    0.0000
     29 C14        5.8177    6.8690    3.4851 C.3       1 RES1    0.0000
     30 C15        6.9849    5.9675    3.3852 C.1       1 RES1    0.0000
     31 C16        4.8042    6.3894    2.5306 C.1       1 RES1    0.0000
     32 C17        5.2807    6.9041    4.9622 C.3       1 RES1    0.0000
     33 H16        4.3916    7.3159    4.9592 H         1 RES1    0.0000
     34 C18        5.1850    5.5700    5.6426 C.2       1 RES1    0.0000
     35 H17        4.7292    4.8760    5.2227 H         1 RES1    0.0000
     36 C19        5.7328    5.3611    6.8248 C.2       1 RES1    0.0000
     37 H18        5.6022    4.5380    7.2370 H         1 RES1    0.0000
     38 C20        6.5290    6.3590    7.5094 C.ar      1 RES1    0.0000
     39 C21        7.1349    6.1284    8.7405 C.ar      1 RES1    0.0000
     40 H19        6.9599    5.3310    9.1854 H         1 RES1    0.0000
     41 C22        7.9816    7.0402    9.3191 C.ar      1 RES1    0.0000
     42 H20        8.3732    6.8648   10.1437 H         1 RES1    0.0000
     43 C23        8.2443    8.2252    8.6576 C.ar      1 RES1    0.0000
     44 H21        8.8255    8.8434    9.0367 H         1 RES1    0.0000
     45 C24        7.6500    8.5006    7.4380 C.ar      1 RES1    0.0000
     46 H22        7.8281    9.3073    7.0097 H         1 RES1    0.0000
     47 C25        6.7920    7.5836    6.8488 C.ar      1 RES1    0.0000
     48 C26        6.7872    8.7810    4.6739 C.3       1 RES1    0.0000
     49 H23        7.7586    8.6515    4.6682 H         1 RES1    0.0000
     50 C27        6.5067   10.2391    5.0034 C.ar      1 RES1    0.0000
     51 C28        7.3337   11.2180    4.4907 C.ar      1 RES1    0.0000
     52 H24        8.0598   10.9784    3.9606 H         1 RES1    0.0000
     53 C29        7.0898   12.5525    4.7593 C.ar      1 RES1    0.0000
     54 H25        7.6399   13.2149    4.4089 H         1 RES1    0.0000
     55 C30        6.0262   12.8756    5.5506 C.ar      1 RES1    0.0000
     56 C31        5.1811   11.9239    6.0786 C.ar      1 RES1    0.0000
     57 H26        4.4589   12.1691    6.6102 H         1 RES1    0.0000
     58 C32        5.4334   10.6021    5.7979 C.ar      1 RES1    0.0000
     59 H27        4.8757    9.9439    6.1470 H         1 RES1    0.0000
     60 N1         5.3207   10.0043    1.8333 N.am      1 RES1    0.0000
     61 N2         7.8659    5.2589    3.3053 N.1       1 RES1    0.0000
     62 N3         4.0204    5.9845    1.8005 N.1       1 RES1    0.0000
     63 N4         6.2067    7.8155    5.6060 N.3       1 RES1    0.0000
     64 N5         5.7836   14.2918    5.8580 N.pl3     1 RES1    0.0000
     65 O1         3.8952    9.1897    3.4526 O.2       1 RES1    0.0000
     66 O2         6.6050   15.1066    5.5100 O.2       1 RES1    0.0000
     67 O3         4.8131   14.5981    6.4846 O.2       1 RES1    0.0000
     68 C33        2.3505   15.3677    8.8361 C.3       2 RES2    0.0000
     69 H28        2.4913   15.3384    7.8872 H         2 RES2    0.0000
     70 H29        2.9540   16.0018    9.2301 H         2 RES2    0.0000
     71 H30        1.4444   15.6333    9.0176 H         2 RES2    0.0000
     72 C34        2.6026   13.9901    9.4296 C.3       2 RES2    0.0000
     73 H31        3.5382   13.7652    9.3129 H         2 RES2    0.0000
     74 H32        2.4237   14.0219   10.3817 H         2 RES2    0.0000
     75 C35        1.7578   12.9040    8.8104 C.3       2 RES2    0.0000
     76 H33        1.9169   12.8896    7.8532 H         2 RES2    0.0000
     77 H34        0.8210   13.1146    8.9517 H         2 RES2    0.0000
     78 C36        2.0410   11.5294    9.3754 C.3       2 RES2    0.0000
     79 H35        2.9767   11.3189    9.2364 H         2 RES2    0.0000
     80 H36        1.8795   11.5426   10.3328 H         2 RES2    0.0000
     81 C37        1.6311    9.7640    7.6868 C.2       2 RES2    0.0000
     82 C38        0.4397    8.8836    7.2185 C.3       2 RES2    0.0000
     83 C39       -0.5671    9.1187    8.3281 C.ar      2 RES2    0.0000
     84 C40       -1.8253    8.5879    8.5465 C.ar      2 RES2    0.0000
     85 H37       -2.1750    7.9615    7.9531 H         2 RES2    0.0000
     86 C41       -2.5721    8.9902    9.6546 C.ar      2 RES2    0.0000
     87 C42       -3.9402    8.3847    9.9057 C.3       2 RES2    0.0000
     88 H38       -4.0207    8.1483   10.8322 H         2 RES2    0.0000
     89 H39       -4.0463    7.5993    9.3639 H         2 RES2    0.0000
     90 H40       -4.6186    9.0239    9.6784 H         2 RES2    0.0000
     91 C43       -2.0420    9.9538   10.4913 C.ar      2 RES2    0.0000
     92 H41       -2.5367   10.2260   11.2295 H         2 RES2    0.0000
     93 C44       -0.7970   10.5327   10.2710 C.ar      2 RES2    0.0000
     94 H42       -0.4673   11.1918   10.8385 H         2 RES2    0.0000
     95 C45       -0.0676   10.0954    9.1803 C.ar      2 RES2    0.0000
     96 C46        0.9361    7.4138    6.9523 C.3       2 RES2    0.0000
     97 C47        1.9839    6.9478    7.8749 C.1       2 RES2    0.0000
     98 C48       -0.1689    6.4360    7.0349 C.1       2 RES2    0.0000
     99 C49        1.4546    7.5135    5.4739 C.3       2 RES2    0.0000
    100 H43        2.3204    7.9717    5.4734 H         2 RES2    0.0000
    101 C50        1.6056    6.2002    4.7761 C.2       2 RES2    0.0000
    102 H44        2.1470    5.5483    5.1569 H         2 RES2    0.0000
    103 C51        0.9921    5.9373    3.6351 C.2       2 RES2    0.0000
    104 H45        1.1402    5.1149    3.2275 H         2 RES2    0.0000
    105 C52        0.0974    6.8829    2.9936 C.ar      2 RES2    0.0000
    106 C53       -0.5701    6.6009    1.8101 C.ar      2 RES2    0.0000
    107 H46       -0.3974    5.7999    1.3705 H         2 RES2    0.0000
    108 C54       -1.4839    7.4799    1.2721 C.ar      2 RES2    0.0000
    109 H47       -1.9156    7.2753    0.4738 H         2 RES2    0.0000
    110 C55       -1.7539    8.6630    1.9219 C.ar      2 RES2    0.0000
    111 H48       -2.3841    9.2488    1.5681 H         2 RES2    0.0000
    112 C56       -1.0941    8.9938    3.1009 C.ar      2 RES2    0.0000
    113 H49       -1.2649    9.8067    3.5208 H         2 RES2    0.0000
    114 C57       -0.1790    8.1059    3.6504 C.ar      2 RES2    0.0000
    115 C58       -0.0963    9.3338    5.8058 C.3       2 RES2    0.0000
    116 H50       -1.0697    9.2234    5.8007 H         2 RES2    0.0000
    117 C59        0.2138   10.7918    5.5038 C.ar      2 RES2    0.0000
    118 C60       -0.6093   11.7725    6.0312 C.ar      2 RES2    0.0000
    119 H51       -1.3428   11.5273    6.5465 H         2 RES2    0.0000
    120 C61       -0.3545   13.0989    5.8019 C.ar      2 RES2    0.0000
    121 H52       -0.9085   13.7550    6.1576 H         2 RES2    0.0000
    122 C62        0.7307   13.4422    5.0398 C.ar      2 RES2    0.0000
    123 C63        1.5730   12.4994    4.5037 C.ar      2 RES2    0.0000
    124 H53        2.3076   12.7549    3.9925 H         2 RES2    0.0000
    125 C64        1.3079   11.1607    4.7398 C.ar      2 RES2    0.0000
    126 H54        1.8663   10.5082    4.3834 H         2 RES2    0.0000
    127 N6         1.2233   10.4768    8.7724 N.am      2 RES2    0.0000
    128 N7         2.7966    6.5338    8.5618 N.1       2 RES2    0.0000
    129 N8        -0.9989    5.6649    7.1027 N.1       2 RES2    0.0000
    130 N9         0.4709    8.3786    4.8604 N.3       2 RES2    0.0000
    131 N10        0.9965   14.8663    4.7816 N.pl3     2 RES2    0.0000
    132 O4         2.7269    9.8087    7.1656 O.2       2 RES2    0.0000
    133 O5         0.1497   15.6732    5.1326 O.2       2 RES2    0.0000
    134 O6         1.9940   15.1772    4.1975 O.2       2 RES2    0.0000
@<TRIPOS>BOND
     1    1    2 1
     2    3    1 1
     3    4    1 1
     4    5    1 1
     5    6    5 1
     6    7    5 1
     7    8    5 1
     8    9    8 1
     9   10    8 1
    10   11    8 1
    11   12   11 1
    12   13   11 1
    13   14   15 1
    14   15   16 1
    15   16   17 ar
    16   17   18 1
    17   19   17 ar
    18   20   19 1
    19   21   20 1
    20   22   20 1
    21   23   20 1
    22   24   19 ar
    23   25   24 1
    24   26   24 ar
    25   27   26 1
    26   28   16 ar
    27   29   15 1
    28   30   29 1
    29   31   29 1
    30   32   29 1
    31   33   32 1
    32   34   32 1
    33   35   34 1
    34   36   34 2
    35   37   36 1
    36   38   36 1
    37   39   38 ar
    38   40   39 1
    39   41   39 ar
    40   42   41 1
    41   43   41 ar
    42   44   43 1
    43   45   43 ar
    44   46   45 1
    45   47   38 ar
    46   48   15 1
    47   49   48 1
    48   50   48 1
    49   51   50 ar
    50   52   51 1
    51   53   51 ar
    52   54   53 1
    53   55   53 ar
    54   56   55 ar
    55   57   56 1
    56   58   50 ar
    57   59   58 1
    58   60   11 1
    59   61   30 3
    60   62   31 3
    61   63   32 1
    62   64   55 1
    63   65   14 2
    64   66   64 2
    65   67   64 2
    66   68   69 1
    67   70   68 1
    68   71   68 1
    69   72   68 1
    70   73   72 1
    71   74   72 1
    72   75   72 1
    73   76   75 1
    74   77   75 1
    75   78   75 1
    76   79   78 1
    77   80   78 1
    78   81   82 1
    79   82   83 1
    80   83   84 ar
    81   84   85 1
    82   86   84 ar
    83   87   86 1
    84   88   87 1
    85   89   87 1
    86   90   87 1
    87   91   86 ar
    88   92   91 1
    89   93   91 ar
    90   94   93 1
    91   95   83 ar
    92   96   82 1
    93   97   96 1
    94   98   96 1
    95   99   96 1
    96  100   99 1
    97  101   99 1
    98  102  101 1
    99  103  101 2
   100  104  103 1
   101  105  103 1
   102  106  105 ar
   103  107  106 1
   104  108  106 ar
   105  109  108 1
   106  110  108 ar
   107  111  110 1
   108  112  110 ar
   109  113  112 1
   110  114  105 ar
   111  115   82 1
   112  116  115 1
   113  117  115 1
   114  118  117 ar
   115  119  118 1
   116  120  118 ar
   117  121  120 1
   118  122  120 ar
   119  123  122 ar
   120  124  123 1
   121  125  117 ar
   122  126  125 1
   123  127   78 1
   124  128   97 3
   125  129   98 3
   126  130   99 1
   127  131  122 1
   128  132   81 2
   129  133  131 2
   130  134  131 2
   131   14   60 1
   132   26   28 ar
   133   28   60 1
   134   45   47 ar
   135   47   63 1
   136   48   63 1
   137   56   58 ar
   138   81  127 1
   139   93   95 ar
   140   95  127 1
   141  112  114 ar
   142  114  130 1
   143  115  130 1
   144  123  125 ar
@<TRIPOS>SUBSTRUCTURE
     1 RES1 1
     2 RES2 68

@<TRIPOS>CRYSIN
  20.7930   12.7079   22.5270  90.0000 109.4010  90.0000  14 1

