# MOL2 file generated by ConQuest
# Please check atom types

@<TRIPOS>MOLECULE
PAZYOF
    69    70     1
SMALL
NO_CHARGES
****
Generated from CSD

@<TRIPOS>ATOM
      1 O1         0.7136   -0.2200   12.9054 O.2       1 RES1    0.0000
      2 O2         0.3985    1.3759   11.4682 O.2       1 RES1    0.0000
      3 N1         3.5279   -1.9838   10.6812 N.3       1 RES1    0.0000
      4 N2         3.0798   -0.0905    8.8931 N.2       1 RES1    0.0000
      5 N3         0.9730    0.3346   11.8294 N.pl3     1 RES1    0.0000
      6 C1         1.9456   -0.2495   10.9680 C.2       1 RES1    0.0000
      7 C2         2.6294   -1.3891   11.4310 C.2       1 RES1    0.0000
      8 C3         2.1999    0.3817    9.7312 C.2       1 RES1    0.0000
      9 C4         4.1988   -3.1929   11.0620 C.ar      1 RES1    0.0000
     10 C5         3.4688   -4.3816   11.1769 C.ar      1 RES1    0.0000
     11 C6         4.1825   -5.5175   11.5459 C.ar      1 RES1    0.0000
     12 C7         5.5622   -5.4755   11.7750 C.ar      1 RES1    0.0000
     13 C8         6.2603   -4.3040   11.6146 C.ar      1 RES1    0.0000
     14 C9         5.6036   -3.1260   11.2409 C.ar      1 RES1    0.0000
     15 C10        1.9654   -4.4269   10.8656 C.3       1 RES1    0.0000
     16 C11        1.3112   -5.7408   11.2739 C.3       1 RES1    0.0000
     17 C12        1.6700   -4.1119    9.4012 C.3       1 RES1    0.0000
     18 C13        6.3324   -1.8156   11.0400 C.3       1 RES1    0.0000
     19 C14        6.2929   -0.9482   12.3027 C.3       1 RES1    0.0000
     20 C15        7.7894   -1.9884   10.5851 C.3       1 RES1    0.0000
     21 C16        3.3611    0.6235    7.6893 C.ar      1 RES1    0.0000
     22 C17        4.4805    1.4620    7.6758 C.ar      1 RES1    0.0000
     23 C18        4.7232    2.1808    6.5081 C.ar      1 RES1    0.0000
     24 C19        3.8949    2.0398    5.3882 C.ar      1 RES1    0.0000
     25 C20        2.8584    1.1563    5.4052 C.ar      1 RES1    0.0000
     26 C21        2.5545    0.4120    6.5468 C.ar      1 RES1    0.0000
     27 C22        5.3689    1.5854    8.8978 C.3       1 RES1    0.0000
     28 C23        4.9110    2.6929    9.8421 C.3       1 RES1    0.0000
     29 C24        6.8530    1.7536    8.5762 C.3       1 RES1    0.0000
     30 C25        1.4334   -0.6209    6.5285 C.3       1 RES1    0.0000
     31 C26        1.9081   -1.9108    5.8851 C.3       1 RES1    0.0000
     32 C27        0.1595   -0.1367    5.8092 C.3       1 RES1    0.0000
     33 H1         2.4375   -1.7389   12.2930 H         1 RES1    0.0000
     34 H2         1.7212    1.1715    9.5064 H         1 RES1    0.0000
     35 H3         3.7236   -6.3444   11.6340 H         1 RES1    0.0000
     36 H4         6.0197   -6.2617   12.0480 H         1 RES1    0.0000
     37 H5         7.2005   -4.2895   11.7519 H         1 RES1    0.0000
     38 H6         1.5558   -3.7418   11.3799 H         1 RES1    0.0000
     39 H7         1.3505   -6.3467   10.5440 H         1 RES1    0.0000
     40 H8         0.4040   -5.5841   11.5069 H         1 RES1    0.0000
     41 H9         1.7708   -6.1102   12.0179 H         1 RES1    0.0000
     42 H10        1.5478   -3.1768    9.2836 H         1 RES1    0.0000
     43 H11        0.8793   -4.5693    9.1421 H         1 RES1    0.0000
     44 H12        2.3970   -4.4061    8.8644 H         1 RES1    0.0000
     45 H13        5.8813   -1.3327   10.3580 H         1 RES1    0.0000
     46 H14        5.5272   -0.3861   12.2930 H         1 RES1    0.0000
     47 H15        7.0774   -0.4135   12.3389 H         1 RES1    0.0000
     48 H16        6.2604   -1.5151   13.0647 H         1 RES1    0.0000
     49 H17        8.3442   -2.0317   11.3550 H         1 RES1    0.0000
     50 H18        8.0489   -1.2492   10.0488 H         1 RES1    0.0000
     51 H19        7.8801   -2.7902   10.0841 H         1 RES1    0.0000
     52 H20        5.4579    2.7814    6.4760 H         1 RES1    0.0000
     53 H21        4.0652    2.5534    4.6078 H         1 RES1    0.0000
     54 H22        2.3263    1.0436    4.6261 H         1 RES1    0.0000
     55 H23        5.2956    0.7696    9.3793 H         1 RES1    0.0000
     56 H24        5.3593    3.4934    9.5955 H         1 RES1    0.0000
     57 H25        5.1244    2.4753   10.7418 H         1 RES1    0.0000
     58 H26        3.9731    2.8169    9.7605 H         1 RES1    0.0000
     59 H27        7.2854    0.9147    8.4792 H         1 RES1    0.0000
     60 H28        7.2666    2.2456    9.2758 H         1 RES1    0.0000
     61 H29        6.9207    2.2413    7.7639 H         1 RES1    0.0000
     62 H30        1.2006   -0.8154    7.4285 H         1 RES1    0.0000
     63 H31        1.7200   -1.8713    4.9549 H         1 RES1    0.0000
     64 H32        1.4457   -2.6464    6.2703 H         1 RES1    0.0000
     65 H33        2.8429   -2.0209    6.0148 H         1 RES1    0.0000
     66 H34       -0.4169    0.2984    6.4262 H         1 RES1    0.0000
     67 H35       -0.2903   -0.8818    5.4279 H         1 RES1    0.0000
     68 H36        0.4045    0.4720    5.1226 H         1 RES1    0.0000
     69 H37        3.7083   -1.5725    9.9046 H         1 RES1    0.0000
@<TRIPOS>BOND
     1    1    5 2
     2    2    5 2
     3    3    7 1
     4    4    8 2
     5    5    6 1
     6    6    7 2
     7    7   33 1
     8    8    6 1
     9    9    3 1
    10   10    9 ar
    11   11   10 ar
    12   12   11 ar
    13   13   12 ar
    14   14    9 ar
    15   15   10 1
    16   16   15 1
    17   17   15 1
    18   18   14 1
    19   19   18 1
    20   20   18 1
    21   21    4 1
    22   22   21 ar
    23   23   22 ar
    24   24   23 ar
    25   25   24 ar
    26   26   21 ar
    27   27   22 1
    28   28   27 1
    29   29   27 1
    30   30   26 1
    31   31   30 1
    32   32   30 1
    33   34    8 1
    34   35   11 1
    35   36   12 1
    36   37   13 1
    37   38   15 1
    38   39   16 1
    39   40   16 1
    40   41   16 1
    41   42   17 1
    42   43   17 1
    43   44   17 1
    44   45   18 1
    45   46   19 1
    46   47   19 1
    47   48   19 1
    48   49   20 1
    49   50   20 1
    50   51   20 1
    51   52   23 1
    52   53   24 1
    53   54   25 1
    54   55   27 1
    55   56   28 1
    56   57   28 1
    57   58   28 1
    58   59   29 1
    59   60   29 1
    60   61   29 1
    61   62   30 1
    62   63   31 1
    63   64   31 1
    64   65   31 1
    65   66   32 1
    66   67   32 1
    67   68   32 1
    68   69    3 1
    69   13   14 ar
    70   25   26 ar
@<TRIPOS>SUBSTRUCTURE
     1 RES1 1

@<TRIPOS>CRYSIN
   9.0750   10.7930   13.9350 107.0920  95.9940 102.5300   2 1

