# MOL2 file generated by ConQuest
# Please check atom types

@<TRIPOS>MOLECULE
PBTZBO
    27    29     1
SMALL
USER_CHARGES
****
Generated from CSD

@<TRIPOS>ATOM
      1 C1        -5.7522    1.8813    2.8020 C.ar      1 RES1    0.0000
      2 C2       -11.0099    6.7012    2.4506 C.ar      1 RES1    0.0000
      3 C3       -11.6491    5.4736    2.4773 C.ar      1 RES1    0.0000
      4 C4       -10.9444    4.3007    2.3941 C.ar      1 RES1    0.0000
      5 C5        -9.5594    4.3890    2.2886 C.ar      1 RES1    0.0000
      6 C6        -4.9407    0.7777    2.5961 C.ar      1 RES1    0.0000
      7 C7        -5.1188   -0.0210    1.4912 C.ar      1 RES1    0.0000
      8 C8        -6.1063    0.2564    0.5865 C.ar      1 RES1    0.0000
      9 C9        -6.9262    1.3453    0.7733 C.ar      1 RES1    0.0000
     10 C10       -6.7261    2.1251    1.8731 C.ar      1 RES1    0.0000
     11 C11       -7.4452    5.6313    2.2270 C.2       1 RES1    0.0000
     12 C12       -8.8978    5.6018    2.2766 C.ar      1 RES1    0.0000
     13 C13       -9.6463    6.7663    2.3649 C.ar      1 RES1    0.0000
     14 H1        -5.6217    2.5224    3.6610 H         1 RES1    0.0000
     15 H2       -11.5900    7.6092    2.4970 H         1 RES1    0.0000
     16 H3       -12.7250    5.4400    2.5663 H         1 RES1    0.0000
     17 H4       -11.4447    3.3443    2.4087 H         1 RES1    0.0000
     18 H5        -4.1638    0.5423    3.3084 H         1 RES1    0.0000
     19 H6        -4.4740   -0.8723    1.3362 H         1 RES1    0.0000
     20 H7        -6.2429   -0.3805   -0.2751 H         1 RES1    0.0000
     21 H8        -7.7096    1.5765    0.0661 H         1 RES1    0.0000
     22 H9        -9.1522    7.7270    2.3661 H         1 RES1    0.0000
     23 N1        -8.8153    3.2119    2.1692 N.pl3     1 RES1    0.0000
     24 N2        -7.5058    3.3338    2.0554 N.pl3     1 RES1    1.0000
     25 N3        -6.7934    4.4541    2.0999 N.2       1 RES1    0.0000
     26 O1        -9.3572    2.0873    2.1851 O.2       1 RES1   -1.0000
     27 O2        -6.8049    6.6738    2.3140 O.2       1 RES1    0.0000
@<TRIPOS>BOND
     1    1    6 ar
     2    2    3 ar
     3    3    4 ar
     4    4    5 ar
     5    5   12 ar
     6    6    7 ar
     7    7    8 ar
     8    8    9 ar
     9    9   10 ar
    10   10    1 ar
    11   11   12 1
    12   12   13 ar
    13   13    2 ar
    14   14    1 1
    15   15    2 1
    16   16    3 1
    17   17    4 1
    18   18    6 1
    19   19    7 1
    20   20    8 1
    21   21    9 1
    22   22   13 1
    23   23    5 1
    24   24   10 1
    25   25   11 1
    26   26   23 1
    27   27   11 2
    28   23   24 1
    29   24   25 2
@<TRIPOS>SUBSTRUCTURE
     1 RES1 1

@<TRIPOS>CRYSIN
   8.1300   21.0200    8.1300  90.0000 128.6000  90.0000 231 1

