# MOL2 file generated by ConQuest
# Please check atom types

@<TRIPOS>MOLECULE
PBZQOX
    24    24     1
SMALL
NO_CHARGES
****
Generated from CSD

@<TRIPOS>ATOM
      1 C1         2.8005    0.3029    1.9827 C.2       1 RES1    0.0000
      2 C2         3.9101   -0.4525    1.7601 C.2       1 RES1    0.0000
      3 C3         5.1646    0.1760    1.6013 C.2       1 RES1    0.0000
      4 C4         5.2336    1.6530    1.6962 C.2       1 RES1    0.0000
      5 C5         4.0210    2.3996    1.9445 C.2       1 RES1    0.0000
      6 C6         2.8470    1.7573    2.0881 C.2       1 RES1    0.0000
      7 C7         1.3535   -1.6052    1.9913 C.3       1 RES1    0.0000
      8 C8        -0.1104   -1.8893    2.2600 C.3       1 RES1    0.0000
      9 C9        -1.0315   -1.2143    1.2700 C.3       1 RES1    0.0000
     10 H1        -0.8021   -1.6090    0.4084 H         1 RES1    0.0000
     11 H2         1.8560    2.0489    2.1935 H         1 RES1    0.0000
     12 H3         7.1832    0.8171    1.7588 H         1 RES1    0.0000
     13 H4        -2.1190   -1.4204    1.3174 H         1 RES1    0.0000
     14 H5        -0.8813   -0.4148    1.0078 H         1 RES1    0.0000
     15 H6        -0.3752   -1.3827    3.0037 H         1 RES1    0.0000
     16 H7        -0.2156   -2.8911    2.3516 H         1 RES1    0.0000
     17 H8         1.8096   -1.9861    2.7864 H         1 RES1    0.0000
     18 H9         1.5333   -1.9106    1.0144 H         1 RES1    0.0000
     19 H10        3.9699   -1.4078    1.7588 H         1 RES1    0.0000
     20 H11        4.0713    3.3939    2.0815 H         1 RES1    0.0000
     21 N1         6.3461    2.3544    1.5697 N.2       1 RES1    0.0000
     22 O1         1.5505   -0.1747    2.1296 O.3       1 RES1    0.0000
     23 O2         7.4897    1.6567    1.3576 O.3       1 RES1    0.0000
     24 O3         6.2380   -0.4751    1.3892 O.2       1 RES1    0.0000
@<TRIPOS>BOND
     1    1    2 2
     2    2    3 1
     3    3    4 1
     4    4    5 1
     5    5    6 2
     6    6    1 1
     7    7    8 1
     8    8    9 1
     9    9   10 1
    10   11    6 1
    11   12   23 1
    12   13    9 1
    13   14    9 1
    14   15    8 1
    15   16    8 1
    16   17    7 1
    17   18    7 1
    18   19    2 1
    19   20    5 1
    20   21    4 2
    21   22    1 1
    22   23   21 1
    23   24    3 2
    24    7   22 1
@<TRIPOS>SUBSTRUCTURE
     1 RES1 1

@<TRIPOS>CRYSIN
  10.6400   12.5700    6.6300  90.0000  96.5200  90.0000  14 1

