# MOL2 file generated by ConQuest
# Please check atom types

@<TRIPOS>MOLECULE
PEBBIJ
    42    46     1
SMALL
NO_CHARGES
****
Generated from CSD

@<TRIPOS>ATOM
      1 N1         1.6637   -1.3109    9.7167 N.3       1 RES1    0.0000
      2 O1         1.0679    1.6835   12.0033 O.2       1 RES1    0.0000
      3 O2         4.7537   -0.1713   13.0695 O.2       1 RES1    0.0000
      4 O3         3.4704    0.3188   16.2969 O.3       1 RES1    0.0000
      5 H1         2.9270    0.5612   16.8618 H         1 RES1    0.0000
      6 O4         2.1356    0.0692    9.7234 O.3       1 RES1    0.0000
      7 C1         2.9596   -2.0155    9.5026 C.3       1 RES1    0.0000
      8 H2         3.1811   -2.0524    8.5587 H         1 RES1    0.0000
      9 H3         2.9237   -2.9195    9.8524 H         1 RES1    0.0000
     10 C2         3.9878   -1.1696   10.2744 C.3       1 RES1    0.0000
     11 H4         4.3941   -1.6726   10.9973 H         1 RES1    0.0000
     12 H5         4.6821   -0.8296    9.6878 H         1 RES1    0.0000
     13 C3         3.1020   -0.0527   10.8000 C.3       1 RES1    0.0000
     14 H6         3.5893    0.7776   10.9833 H         1 RES1    0.0000
     15 C4         2.1745   -0.4865   11.9508 C.3       1 RES1    0.0000
     16 C5         1.4475    0.6993   12.5893 C.2       1 RES1    0.0000
     17 C6         1.3018    0.4585   14.0729 C.3       1 RES1    0.0000
     18 H7         0.4050    0.6773   14.3724 H         1 RES1    0.0000
     19 H8         1.9387    0.9917   14.5737 H         1 RES1    0.0000
     20 C7         1.5847   -1.0286   14.2453 C.3       1 RES1    0.0000
     21 H9         0.7688   -1.5081   13.9908 H         1 RES1    0.0000
     22 C8         1.9753   -1.5138   15.6416 C.3       1 RES1    0.0000
     23 H10        1.9158   -2.4817   15.6574 H         1 RES1    0.0000
     24 H11        1.3260   -1.1731   16.2771 H         1 RES1    0.0000
     25 C9         1.2071   -1.4279   11.1429 C.3       1 RES1    0.0000
     26 H12        0.2894   -1.0933   11.2196 H         1 RES1    0.0000
     27 C10        1.2966   -2.8202   11.7877 C.3       1 RES1    0.0000
     28 H13        1.3841   -3.5036   11.1058 H         1 RES1    0.0000
     29 H14        0.4997   -3.0029   12.3085 H         1 RES1    0.0000
     30 C11        2.5403   -2.8069   12.6961 C.3       1 RES1    0.0000
     31 H15        3.3307   -3.0840   12.2069 H         1 RES1    0.0000
     32 H16        2.4195   -3.3936   13.4586 H         1 RES1    0.0000
     33 C12        2.6560   -1.3283   13.1460 C.3       1 RES1    0.0000
     34 C13        4.0224   -0.9200   13.6844 C.2       1 RES1    0.0000
     35 C14        4.4000   -1.4487   15.0368 C.3       1 RES1    0.0000
     36 H17        5.2596   -1.0788   15.2915 H         1 RES1    0.0000
     37 H18        4.4966   -2.4128   14.9834 H         1 RES1    0.0000
     38 C15        3.3718   -1.1097   16.1169 C.3       1 RES1    0.0000
     39 C16        3.7415   -1.8263   17.4108 C.3       1 RES1    0.0000
     40 H19        4.6227   -1.5613   17.6828 H         1 RES1    0.0000
     41 H20        3.7232   -2.7756   17.2679 H         1 RES1    0.0000
     42 H21        3.1105   -1.5940   18.0960 H         1 RES1    0.0000
@<TRIPOS>BOND
     1    1    6 1
     2    2   16 2
     3    3   34 2
     4    4    5 1
     5    6   13 1
     6    7    1 1
     7    8    7 1
     8    9    7 1
     9   10    7 1
    10   11   10 1
    11   12   10 1
    12   13   10 1
    13   14   13 1
    14   15   13 1
    15   16   15 1
    16   17   16 1
    17   18   17 1
    18   19   17 1
    19   20   17 1
    20   21   20 1
    21   22   20 1
    22   23   22 1
    23   24   22 1
    24   25    1 1
    25   26   25 1
    26   27   25 1
    27   28   27 1
    28   29   27 1
    29   30   27 1
    30   31   30 1
    31   32   30 1
    32   33   15 1
    33   34   33 1
    34   35   34 1
    35   36   35 1
    36   37   35 1
    37   38    4 1
    38   39   38 1
    39   40   39 1
    40   41   39 1
    41   42   39 1
    42   15   25 1
    43   20   33 1
    44   22   38 1
    45   30   33 1
    46   35   38 1
@<TRIPOS>SUBSTRUCTURE
     1 RES1 1

@<TRIPOS>CRYSIN
   6.5320   12.0940   17.5060  90.0000  90.0000  90.0000  19 1

