# MOL2 file generated by ConQuest
# Please check atom types

@<TRIPOS>MOLECULE
PEBPUI
    41    45     1
SMALL
NO_CHARGES
****
Generated from CSD

@<TRIPOS>ATOM
      1 C1         3.4695    9.4315    1.6163 C.ar      1 RES1    0.0000
      2 H1         3.3244    9.1388    0.7236 H         1 RES1    0.0000
      3 C2         2.4720    9.1417    2.5665 C.ar      1 RES1    0.0000
      4 C3         1.3022    8.3124    2.1954 C.ar      1 RES1    0.0000
      5 C4         1.5323    7.0527    1.6258 C.ar      1 RES1    0.0000
      6 H2         2.4255    6.7493    1.5085 H         1 RES1    0.0000
      7 C5         0.4816    6.2437    1.2318 C.ar      1 RES1    0.0000
      8 H3         0.6660    5.3837    0.8136 H         1 RES1    0.0000
      9 C6        -0.8243    6.6713    1.3934 C.ar      1 RES1    0.0000
     10 H4        -1.5498    6.1060    1.1574 H         1 RES1    0.0000
     11 C7        -1.0696    7.9291    1.9392 C.ar      1 RES1    0.0000
     12 H5        -1.9647    8.2315    2.0305 H         1 RES1    0.0000
     13 C8        -0.0216    8.7516    2.3525 C.ar      1 RES1    0.0000
     14 C9        -0.3783   10.1086    2.8909 C.ar      1 RES1    0.0000
     15 C10       -1.0409   10.9975    2.0400 C.ar      1 RES1    0.0000
     16 H6        -1.1364   10.7808    1.1196 H         1 RES1    0.0000
     17 C11       -1.5614   12.1908    2.5199 C.ar      1 RES1    0.0000
     18 H7        -2.0158   12.7706    1.8901 H         1 RES1    0.0000
     19 C12       -1.4627   12.4951    3.8680 C.ar      1 RES1    0.0000
     20 H8        -1.8550   13.3484    4.2356 H         1 RES1    0.0000
     21 C13       -0.7772   11.6399    4.7212 C.ar      1 RES1    0.0000
     22 H9        -0.6903   11.8614    5.6414 H         1 RES1    0.0000
     23 C14       -0.2147   10.4563    4.2377 C.ar      1 RES1    0.0000
     24 C15        0.5027    9.5673    5.2076 C.ar      1 RES1    0.0000
     25 C16       -0.1457    9.2110    6.3863 C.ar      1 RES1    0.0000
     26 H10       -1.0393    9.4932    6.5396 H         1 RES1    0.0000
     27 C17        0.5105    8.4473    7.3338 C.ar      1 RES1    0.0000
     28 C18        1.8043    7.9994    7.1637 C.ar      1 RES1    0.0000
     29 H11        2.2292    7.4553    7.8159 H         1 RES1    0.0000
     30 C19        2.4518    8.3712    6.0108 C.ar      1 RES1    0.0000
     31 H12        3.3475    8.0871    5.8754 H         1 RES1    0.0000
     32 C20        1.8368    9.1542    5.0308 C.ar      1 RES1    0.0000
     33 C21        2.6969    9.5693    3.8795 C.ar      1 RES1    0.0000
     34 C22        3.8656   10.2810    4.1513 C.ar      1 RES1    0.0000
     35 H13        4.0361   10.6036    5.0276 H         1 RES1    0.0000
     36 C23        4.7741   10.5112    3.1327 C.ar      1 RES1    0.0000
     37 H14        5.6088   10.9696    3.3067 H         1 RES1    0.0000
     38 N1         4.6017   10.0855    1.8710 N.ar      1 RES1    0.0000
     39 N2        -0.1912    8.1136    8.5836 N.pl3     1 RES1    0.0000
     40 O1         0.4190    7.5088    9.4612 O.2       1 RES1    0.0000
     41 O2        -1.3608    8.4902    8.6941 O.2       1 RES1    0.0000
@<TRIPOS>BOND
     1    1    2 1
     2    3    1 ar
     3    4    3 1
     4    5    4 ar
     5    6    5 1
     6    7    5 ar
     7    8    7 1
     8    9    7 ar
     9   10    9 1
    10   11    9 ar
    11   12   11 1
    12   13    4 ar
    13   14   13 1
    14   15   14 ar
    15   16   15 1
    16   17   15 ar
    17   18   17 1
    18   19   17 ar
    19   20   19 1
    20   21   19 ar
    21   22   21 1
    22   23   14 ar
    23   24   23 1
    24   25   24 ar
    25   26   25 1
    26   27   25 ar
    27   28   27 ar
    28   29   28 1
    29   30   28 ar
    30   31   30 1
    31   32   24 ar
    32   33    3 ar
    33   34   33 ar
    34   35   34 1
    35   36   34 ar
    36   37   36 1
    37   38    1 ar
    38   39   27 1
    39   40   39 2
    40   41   39 2
    41   11   13 ar
    42   21   23 ar
    43   30   32 ar
    44   32   33 1
    45   36   38 ar
@<TRIPOS>SUBSTRUCTURE
     1 RES1 1

@<TRIPOS>CRYSIN
   9.5369    9.6309   18.0131  90.0000  92.1280  90.0000 231 1

