# MOL2 file generated by ConQuest
# Please check atom types

@<TRIPOS>MOLECULE
PEBVAW
   116   118     2
SMALL
NO_CHARGES
****
Generated from CSD

@<TRIPOS>ATOM
      1 O1         2.5136    7.2855   10.4661 O.3       1 RES1    0.0000
      2 O2         4.4028    6.0998   10.1718 O.2       1 RES1    0.0000
      3 O3        -5.1776   12.3480    6.7888 O.2       1 RES1    0.0000
      4 O4        -5.2853   11.2202    4.9513 O.2       1 RES1    0.0000
      5 O5        -3.2236    7.0121    4.6235 O.2       1 RES1    0.0000
      6 O6        -1.9728    6.2047    6.1667 O.2       1 RES1    0.0000
      7 N1        -1.0421    7.6945    9.6466 N.2       1 RES1    0.0000
      8 N2        -1.5154    7.5374    8.3343 N.pl3     1 RES1    0.0000
      9 H1        -1.2626    6.8437    7.8546 H         1 RES1    0.0000
     10 N3        -4.8905   11.3765    6.1057 N.pl3     1 RES1    0.0000
     11 N4        -2.6979    7.1108    5.7277 N.pl3     1 RES1    0.0000
     12 C1        -0.1693    6.8200    9.9864 C.2       1 RES1    0.0000
     13 C2         0.4503    5.7496    9.1382 C.3       1 RES1    0.0000
     14 H2         0.8637    6.1374    8.3272 H         1 RES1    0.0000
     15 H3        -0.2283    5.0828    8.8643 H         1 RES1    0.0000
     16 C3         1.5157    5.1066   10.0462 C.3       1 RES1    0.0000
     17 H4         1.1724    4.2776   10.4637 H         1 RES1    0.0000
     18 H5         2.3359    4.8949    9.5342 H         1 RES1    0.0000
     19 C4         1.7892    6.1869   11.1061 C.3       1 RES1    0.0000
     20 C5         0.3890    6.8061   11.3896 C.3       1 RES1    0.0000
     21 C6        -0.4473    5.8386   12.2413 C.3       1 RES1    0.0000
     22 H6        -1.2875    6.2719   12.5009 H         1 RES1    0.0000
     23 H7         0.0551    5.5933   13.0464 H         1 RES1    0.0000
     24 H8        -0.6438    5.0314   11.7209 H         1 RES1    0.0000
     25 C7         0.4141    8.2030   12.0116 C.3       1 RES1    0.0000
     26 H9        -0.5026    8.5769   11.9734 H         1 RES1    0.0000
     27 H10        0.9917    8.7827   11.4530 H         1 RES1    0.0000
     28 C8         0.9099    8.2900   13.4711 C.3       1 RES1    0.0000
     29 H11        0.2044    7.9418   14.0740 H         1 RES1    0.0000
     30 H12        1.7091    7.7143   13.5751 H         1 RES1    0.0000
     31 C9         1.2439    9.6453   13.8646 C.2       1 RES1    0.0000
     32 H13        0.5129   10.1973   14.1135 H         1 RES1    0.0000
     33 C10        2.4376   10.2092   13.9209 C.2       1 RES1    0.0000
     34 C11        2.5811   11.6318   14.3025 C.3       1 RES1    0.0000
     35 H14        3.5291   11.8791   14.2917 H         1 RES1    0.0000
     36 H15        2.0894   12.1917   13.6661 H         1 RES1    0.0000
     37 H16        2.2195   11.7663   15.2033 H         1 RES1    0.0000
     38 C12        3.7349    9.5207   13.5512 C.3       1 RES1    0.0000
     39 H17        4.4832   10.1419   13.6756 H         1 RES1    0.0000
     40 H18        3.8640    8.7372   14.1254 H         1 RES1    0.0000
     41 H19        3.6988    9.2378   12.6134 H         1 RES1    0.0000
     42 C13        2.4905    5.6962   12.2820 C.1       1 RES1    0.0000
     43 C14        2.9654    5.2926   13.2785 C.1       1 RES1    0.0000
     44 H20        3.3505    4.9661   14.0836 H         1 RES1    0.0000
     45 C15        3.7723    7.1089   10.0223 C.2       1 RES1    0.0000
     46 C16        4.2133    8.3811    9.3512 C.3       1 RES1    0.0000
     47 H21        5.1013    8.2505    8.9564 H         1 RES1    0.0000
     48 H22        4.2525    9.1032   10.0127 H         1 RES1    0.0000
     49 H23        3.5744    8.6165    8.6466 H         1 RES1    0.0000
     50 C17       -2.3567    8.4463    7.8116 C.ar      1 RES1    0.0000
     51 C18       -2.6839    9.6097    8.5114 C.ar      1 RES1    0.0000
     52 H24       -2.3159    9.7522    9.3751 H         1 RES1    0.0000
     53 C19       -3.5202   10.5456    7.9767 C.ar      1 RES1    0.0000
     54 H25       -3.7426   11.3251    8.4719 H         1 RES1    0.0000
     55 C20       -4.0459   10.3556    6.7038 C.ar      1 RES1    0.0000
     56 C21       -3.7683    9.2358    5.9909 C.ar      1 RES1    0.0000
     57 H26       -4.1439    9.1151    5.1272 H         1 RES1    0.0000
     58 C22       -2.9392    8.2782    6.5244 C.ar      1 RES1    0.0000
     59 O7        -6.2003    7.3971    2.7227 O.3       2 RES2    0.0000
     60 O8        -5.4098    6.6538    0.7417 O.2       2 RES2    0.0000
     61 O9        -5.0547    8.9904   12.4315 O.2       2 RES2    0.0000
     62 O10       -3.4303    7.6094   12.6600 O.2       2 RES2    0.0000
     63 O11       -2.6073    4.3116    9.3009 O.2       2 RES2    0.0000
     64 O12       -3.9918    4.0081    7.6836 O.2       2 RES2    0.0000
     65 N5        -6.5885    6.5828    6.2516 N.2       2 RES2    0.0000
     66 N6        -5.5880    5.9609    6.9778 N.pl3     2 RES2    0.0000
     67 H27       -5.1538    5.2728    6.6440 H         2 RES2    0.0000
     68 N7        -4.3679    8.0764   12.0344 N.pl3     2 RES2    0.0000
     69 N8        -3.5904    4.6476    8.6609 N.pl3     2 RES2    0.0000
     70 C23       -6.7739    6.0860    5.0805 C.2       2 RES2    0.0000
     71 C24       -6.0093    4.9978    4.3903 C.3       2 RES2    0.0000
     72 H28       -6.1702    4.1233    4.8269 H         2 RES2    0.0000
     73 H29       -5.0382    5.1877    4.4034 H         2 RES2    0.0000
     74 C25       -6.5459    4.9958    2.9500 C.3       2 RES2    0.0000
     75 H30       -5.8072    4.8889    2.2980 H         2 RES2    0.0000
     76 H31       -7.1973    4.2637    2.8172 H         2 RES2    0.0000
     77 C26       -7.2161    6.3570    2.7980 C.3       2 RES2    0.0000
     78 C27       -7.8835    6.6241    4.1845 C.3       2 RES2    0.0000
     79 C28       -9.1133    5.7021    4.3460 C.3       2 RES2    0.0000
     80 H32       -9.4565    5.7734    5.2611 H         2 RES2    0.0000
     81 H33       -8.8511    4.7742    4.1666 H         2 RES2    0.0000
     82 H34       -9.8101    5.9732    3.7132 H         2 RES2    0.0000
     83 C29       -8.2473    8.0843    4.3927 C.3       2 RES2    0.0000
     84 H35       -7.4110    8.6125    4.4297 H         2 RES2    0.0000
     85 H36       -8.7590    8.3949    3.6043 H         2 RES2    0.0000
     86 C30       -9.0594    8.3890    5.6380 C.3       2 RES2    0.0000
     87 H37       -8.4607    8.3534    6.4251 H         2 RES2    0.0000
     88 H38       -9.7461    7.6846    5.7504 H         2 RES2    0.0000
     89 C31       -9.7453    9.7443    5.6057 C.2       2 RES2    0.0000
     90 H39      -10.5703    9.7819    5.1367 H         2 RES2    0.0000
     91 C32       -9.3532   10.8364    6.1284 C.2       2 RES2    0.0000
     92 C33      -10.2236   12.1779    6.1607 C.3       2 RES2    0.0000
     93 H40       -9.7183   12.8842    6.6129 H         2 RES2    0.0000
     94 H41      -10.4283   12.4568    5.2444 H         2 RES2    0.0000
     95 H42      -11.0584   12.0117    6.6464 H         2 RES2    0.0000
     96 C34       -7.9968   10.8483    6.8211 C.3       2 RES2    0.0000
     97 H43       -7.8178   11.7426    7.1764 H         2 RES2    0.0000
     98 H44       -8.0009   10.1993    7.5568 H         2 RES2    0.0000
     99 H45       -7.2992   10.6069    6.1775 H         2 RES2    0.0000
    100 C35       -8.1319    6.4322    1.6784 C.1       2 RES2    0.0000
    101 C36       -8.9400    6.4005    0.8135 C.1       2 RES2    0.0000
    102 H46       -9.5878    6.3748    0.1184 H         2 RES2    0.0000
    103 C37       -5.3360    7.4254    1.6640 C.2       2 RES2    0.0000
    104 C38       -4.3234    8.4760    1.8339 C.3       2 RES2    0.0000
    105 H47       -3.5848    8.1318    2.3794 H         2 RES2    0.0000
    106 H48       -4.7260    9.2496    2.2801 H         2 RES2    0.0000
    107 H49       -3.9826    8.7471    0.9558 H         2 RES2    0.0000
    108 C39       -5.2873    6.4322    8.2171 C.ar      2 RES2    0.0000
    109 C40       -5.9136    7.5995    8.7004 C.ar      2 RES2    0.0000
    110 H50       -6.5606    8.0348    8.1573 H         2 RES2    0.0000
    111 C41       -5.6163    8.1219    9.9242 C.ar      2 RES2    0.0000
    112 H51       -6.0574    8.9073   10.2280 H         2 RES2    0.0000
    113 C42       -4.6665    7.4967   10.7257 C.ar      2 RES2    0.0000
    114 C43       -4.0131    6.3748   10.3070 C.ar      2 RES2    0.0000
    115 H52       -3.3599    5.9613   10.8608 H         2 RES2    0.0000
    116 C44       -4.3183    5.8446    9.0605 C.ar      2 RES2    0.0000
@<TRIPOS>BOND
     1    1   19 1
     2    2   45 2
     3    3   10 2
     4    4   10 2
     5    5   11 2
     6    6   11 2
     7    7    8 1
     8    8    9 1
     9   10   55 1
    10   11   58 1
    11   12    7 2
    12   13   12 1
    13   14   13 1
    14   15   13 1
    15   16   13 1
    16   17   16 1
    17   18   16 1
    18   19   16 1
    19   20   12 1
    20   21   20 1
    21   22   21 1
    22   23   21 1
    23   24   21 1
    24   25   20 1
    25   26   25 1
    26   27   25 1
    27   28   25 1
    28   29   28 1
    29   30   28 1
    30   31   28 1
    31   32   31 1
    32   33   31 2
    33   34   33 1
    34   35   34 1
    35   36   34 1
    36   37   34 1
    37   38   33 1
    38   39   38 1
    39   40   38 1
    40   41   38 1
    41   42   19 1
    42   43   42 3
    43   44   43 1
    44   45    1 1
    45   46   45 1
    46   47   46 1
    47   48   46 1
    48   49   46 1
    49   50    8 1
    50   51   50 ar
    51   52   51 1
    52   53   51 ar
    53   54   53 1
    54   55   53 ar
    55   56   55 ar
    56   57   56 1
    57   58   50 ar
    58   59   77 1
    59   60  103 2
    60   61   68 2
    61   62   68 2
    62   63   69 2
    63   64   69 2
    64   65   66 1
    65   66   67 1
    66   68  113 1
    67   69  116 1
    68   70   65 2
    69   71   70 1
    70   72   71 1
    71   73   71 1
    72   74   71 1
    73   75   74 1
    74   76   74 1
    75   77   74 1
    76   78   70 1
    77   79   78 1
    78   80   79 1
    79   81   79 1
    80   82   79 1
    81   83   78 1
    82   84   83 1
    83   85   83 1
    84   86   83 1
    85   87   86 1
    86   88   86 1
    87   89   86 1
    88   90   89 1
    89   91   89 2
    90   92   91 1
    91   93   92 1
    92   94   92 1
    93   95   92 1
    94   96   91 1
    95   97   96 1
    96   98   96 1
    97   99   96 1
    98  100   77 1
    99  101  100 3
   100  102  101 1
   101  103   59 1
   102  104  103 1
   103  105  104 1
   104  106  104 1
   105  107  104 1
   106  108   66 1
   107  109  108 ar
   108  110  109 1
   109  111  109 ar
   110  112  111 1
   111  113  111 ar
   112  114  113 ar
   113  115  114 1
   114  116  108 ar
   115   19   20 1
   116   56   58 ar
   117   77   78 1
   118  114  116 ar
@<TRIPOS>SUBSTRUCTURE
     1 RES1 1
     2 RES2 59

@<TRIPOS>CRYSIN
  19.2372   19.7853   12.5770  90.0000 107.9830  90.0000  14 1

