# MOL2 file generated by ConQuest
# Please check atom types

@<TRIPOS>MOLECULE
PEBVEA
    68    61     2
SMALL
NO_CHARGES
****
Generated from CSD

@<TRIPOS>ATOM
      1 O1        12.3032   10.1523   10.1873 O.3       1 RES1    0.0000
      2 O2        11.1559   12.0301   10.6456 O.2       1 RES1    0.0000
      3 O3         5.1948    3.1391   11.0937 O.2       1 RES1    0.0000
      4 O4         4.5595    1.1139   10.6845 O.2       1 RES1    0.0000
      5 O5         2.5757    0.2614    6.4318 O.2       1 RES1    0.0000
      6 O6         3.3941    1.2154    4.6765 O.2       1 RES1    0.0000
      7 N1         6.5678    4.3102    9.1054 N.pl3     1 RES1    0.0000
      8 H1         6.5485    4.2479    9.9826 H         1 RES1    0.0000
      9 N2         7.4220    5.2044    8.4836 N.2       1 RES1    0.0000
     10 N3         4.9127    2.2304   10.3142 N.pl3     1 RES1    0.0000
     11 N4         3.3140    1.0734    5.8909 N.pl3     1 RES1    0.0000
     12 C1         8.2076    5.8414    9.2649 C.2       1 RES1    0.0000
     13 C2         8.3309    5.7226   10.7653 C.3       1 RES1    0.0000
     14 H2         8.6543    4.8225   11.0219 H         1 RES1    0.0000
     15 H3         7.4596    5.8883   11.2054 H         1 RES1    0.0000
     16 C3         9.3491    6.7994   11.1512 C.3       1 RES1    0.0000
     17 H4         9.9252    6.4891   11.8937 H         1 RES1    0.0000
     18 H5         8.8920    7.6336   11.4258 H         1 RES1    0.0000
     19 C4        10.1732    7.0227    9.8785 C.3       1 RES1    0.0000
     20 C5         9.1639    6.8852    8.7073 C.3       1 RES1    0.0000
     21 C6        10.0027    6.3627    7.5363 C.3       1 RES1    0.0000
     22 H6        10.4574    7.1071    7.0680 H         1 RES1    0.0000
     23 H7         9.4360    5.8740    6.8870 H         1 RES1    0.0000
     24 C7        11.0253    5.4206    8.1858 C.3       1 RES1    0.0000
     25 H8        10.6420    4.5139    8.2932 H         1 RES1    0.0000
     26 H9        11.8411    5.3563    7.6283 H         1 RES1    0.0000
     27 C8        11.3522    6.0255    9.5417 C.3       1 RES1    0.0000
     28 H10       11.4933    5.3361   10.2523 H         1 RES1    0.0000
     29 C9        12.3975    7.2098    9.6177 C.3       1 RES1    0.0000
     30 C10       11.2118    8.1119    9.8649 C.2       1 RES1    0.0000
     31 C11        8.3793    8.1547    8.3878 C.3       1 RES1    0.0000
     32 H11        8.9880    8.8332    8.0272 H         1 RES1    0.0000
     33 H12        7.6864    7.9524    7.7243 H         1 RES1    0.0000
     34 H13        7.9597    8.4936    9.2056 H         1 RES1    0.0000
     35 C12       13.2236    7.4886    8.3677 C.3       1 RES1    0.0000
     36 H14       13.9605    6.8449    8.3129 H         1 RES1    0.0000
     37 H15       12.6549    7.4030    7.5741 H         1 RES1    0.0000
     38 H16       13.5873    8.3981    8.4126 H         1 RES1    0.0000
     39 C13       13.3130    7.0649   10.8443 C.3       1 RES1    0.0000
     40 H17       14.0617    6.4713   10.6254 H         1 RES1    0.0000
     41 H18       13.6585    7.9452   11.0995 H         1 RES1    0.0000
     42 H19       12.8022    6.6857   11.5896 H         1 RES1    0.0000
     43 C14       11.1177    9.4060   10.1266 C.2       1 RES1    0.0000
     44 H20       10.2731    9.8164   10.2683 H         1 RES1    0.0000
     45 C15       12.2028   11.4694   10.4924 C.2       1 RES1    0.0000
     46 C16       13.5717   12.0727   10.6082 C.3       1 RES1    0.0000
     47 H21       13.8823   12.3491    9.7204 H         1 RES1    0.0000
     48 H22       14.1900   11.4087   10.9788 H         1 RES1    0.0000
     49 H23       13.5356   12.8522   11.2004 H         1 RES1    0.0000
     50 C17        5.7642    3.5342    8.3465 C.ar      1 RES1    0.0000
     51 C18        4.9621    2.4975    8.8865 C.ar      1 RES1    0.0000
     52 C19        4.1680    1.6917    8.0839 C.ar      1 RES1    0.0000
     53 H24        3.6485    0.9931    8.4644 H         1 RES1    0.0000
     54 C20        4.1447    1.9205    6.7275 C.ar      1 RES1    0.0000
     55 C21        4.9074    2.9373    6.1500 C.ar      1 RES1    0.0000
     56 H25        4.8753    3.0841    5.2123 H         1 RES1    0.0000
     57 C22        5.7020    3.7217    6.9433 C.ar      1 RES1    0.0000
     58 H26        6.2236    4.4080    6.5434 H         1 RES1    0.0000
     59 O7        12.6789    9.7966   10.0676 Du        2 SUP2    0.0000
     60 O8        11.1051   11.4373   10.3471 Du        2 SUP2    0.0000
     61 C23       11.7765    8.7372    9.9211 Du        2 SUP2    0.0000
     62 C24       10.4743    8.6880   10.0073 Du        2 SUP2    0.0000
     63 H27        9.8546    9.4012   10.1144 Du        2 SUP2    0.0000
     64 C25       12.2430   11.0611   10.3422 Du        2 SUP2    0.0000
     65 C26       13.2454   12.0128   10.6882 Du        2 SUP2    0.0000
     66 H28       13.5388   12.4912    9.8890 Du        2 SUP2    0.0000
     67 H29       14.0109   11.5508   11.0946 Du        2 SUP2    0.0000
     68 H30       12.8775   12.6541   11.3371 Du        2 SUP2    0.0000
@<TRIPOS>BOND
     1    1   43 1
     2    2   45 2
     3    3   10 2
     4    4   10 2
     5    5   11 2
     6    6   11 2
     7    7    8 1
     8    9    7 1
     9   10   51 1
    10   11   54 1
    11   12    9 2
    12   13   12 1
    13   14   13 1
    14   15   13 1
    15   16   13 1
    16   17   16 1
    17   18   16 1
    18   19   16 1
    19   20   12 1
    20   21   20 1
    21   22   21 1
    22   23   21 1
    23   24   21 1
    24   25   24 1
    25   26   24 1
    26   27   19 1
    27   28   27 1
    28   29   27 1
    29   30   19 1
    30   31   20 1
    31   32   31 1
    32   33   31 1
    33   34   31 1
    34   35   29 1
    35   36   35 1
    36   37   35 1
    37   38   35 1
    38   39   29 1
    39   40   39 1
    40   41   39 1
    41   42   39 1
    42   43   30 2
    43   44   43 1
    44   45    1 1
    45   46   45 1
    46   47   46 1
    47   48   46 1
    48   49   46 1
    49   50    7 1
    50   51   50 ar
    51   52   51 ar
    52   53   52 1
    53   54   52 ar
    54   55   54 ar
    55   56   55 1
    56   57   50 ar
    57   58   57 1
    58   19   20 1
    59   24   27 1
    60   29   30 1
    61   55   57 ar
@<TRIPOS>SUBSTRUCTURE
     1 RES1 1
     2 SUP2 59

@<TRIPOS>CRYSIN
   8.7959   10.4916   13.2932  70.4680  74.2520  71.3710   2 1

