# MOL2 file generated by ConQuest
# Please check atom types

@<TRIPOS>MOLECULE
PECQAS
    72    72     2
SMALL
NO_CHARGES
****
Generated from CSD

@<TRIPOS>ATOM
      1 O1         9.8794    4.2079   13.4511 O.2       1 RES1    0.0000
      2 O2         7.8811   -1.3908   12.8136 O.3       1 RES1    0.0000
      3 N1         8.1210    2.8961   12.8673 N.am      1 RES1    0.0000
      4 H1         7.2527    2.7524   12.8830 H         1 RES1    0.0000
      5 N2         8.9747    2.0307   12.2591 N.2       1 RES1    0.0000
      6 O3         9.3164   -0.6668   10.1760 O.2       1 RES1    0.0000
      7 N3         5.3371    7.6415   16.2855 N.pl3     1 RES1    0.0000
      8 O4        10.8212    0.5010   11.3242 O.3       1 RES1    0.0000
      9 O5         4.4241    7.2078   16.9495 O.2       1 RES1    0.0000
     10 O6         5.5979    8.8268   16.2208 O.2       1 RES1    0.0000
     11 C1         7.7295    4.9272   14.1342 C.ar      1 RES1    0.0000
     12 O7         5.7264   -1.2655   12.3797 O.2       1 RES1    0.0000
     13 C2         6.1654    6.6820   15.5288 C.ar      1 RES1    0.0000
     14 C3         8.6767    4.0048   13.4579 C.2       1 RES1    0.0000
     15 C4         8.5420    0.9635   11.6929 C.2       1 RES1    0.0000
     16 C5         5.8321    5.3724   15.5445 C.ar      1 RES1    0.0000
     17 H2         5.0742    5.0686   16.0303 H         1 RES1    0.0000
     18 C6         6.6262    4.4767   14.8263 C.ar      1 RES1    0.0000
     19 H3         6.4052    3.5521   14.8158 H         1 RES1    0.0000
     20 C7         9.5867    0.1827   10.9939 C.2       1 RES1    0.0000
     21 C8         6.8317   -0.8219   12.2853 C.2       1 RES1    0.0000
     22 C9         7.1211    0.4785   11.5741 C.3       1 RES1    0.0000
     23 H4         6.9050    0.3659   10.6147 H         1 RES1    0.0000
     24 H5         6.5179    1.1753   11.9358 H         1 RES1    0.0000
     25 C10        8.0297    6.2831   14.1220 C.ar      1 RES1    0.0000
     26 H6         8.7803    6.5979   13.6327 H         1 RES1    0.0000
     27 C11        7.2423    7.1746   14.8193 C.ar      1 RES1    0.0000
     28 H7         7.4348    8.1040   14.8105 H         1 RES1    0.0000
     29 C12        7.6435   -2.6769   13.4457 C.3       1 RES1    0.0000
     30 H8         8.4860   -3.0231   13.8092 H         1 RES1    0.0000
     31 H9         7.2900   -3.3064   12.7834 H         1 RES1    0.0000
     32 H10        6.9948   -2.5687   14.1727 H         1 RES1    0.0000
     33 C13       11.8833   -0.1903   10.6234 C.3       1 RES1    0.0000
     34 H11       12.7513    0.1309   10.9449 H         1 RES1    0.0000
     35 H12       11.8078   -0.0162    9.6622 H         1 RES1    0.0000
     36 H13       11.8105   -1.1543   10.7877 H         1 RES1    0.0000
     37 O8        15.0536    1.0464   14.8252 O.3       2 RES2    0.0000
     38 O9        14.3155    3.7484   11.3432 O.2       2 RES2    0.0000
     39 N4        12.5351    3.0405   12.5317 N.am      2 RES2    0.0000
     40 H14       11.6705    3.0884   12.6855 H         2 RES2    0.0000
     41 O10       13.4400   -0.1723   15.7455 O.2       2 RES2    0.0000
     42 N5        13.3401    2.2153   13.2709 N.2       2 RES2    0.0000
     43 O11        9.9279    2.4697   16.1719 O.3       2 RES2    0.0000
     44 O12       12.0305    3.1996   16.2261 O.2       2 RES2    0.0000
     45 N6         9.6478    7.4532    8.9160 N.pl3     2 RES2    0.0000
     46 O13       10.0513    8.5761    8.7448 O.2       2 RES2    0.0000
     47 C14       12.8252    1.5320   14.2129 C.2       2 RES2    0.0000
     48 O14        8.5147    7.1214    8.6382 O.2       2 RES2    0.0000
     49 C15       10.5263    6.4518    9.5469 C.ar      2 RES2    0.0000
     50 C16       13.7887    0.7012   15.0028 C.2       2 RES2    0.0000
     51 C17       13.1178    3.7837   11.5496 C.2       2 RES2    0.0000
     52 C18       12.1898    4.6834   10.8051 C.ar      2 RES2    0.0000
     53 C19       12.6779    5.9032   10.3787 C.ar      2 RES2    0.0000
     54 H15       13.5907    6.1249   10.5185 H         2 RES2    0.0000
     55 C20       10.8700    4.3447   10.5517 C.ar      2 RES2    0.0000
     56 H16       10.5390    3.4976   10.8279 H         2 RES2    0.0000
     57 C21       10.0289    5.2323    9.9017 C.ar      2 RES2    0.0000
     58 H17        9.1287    4.9979    9.7059 H         2 RES2    0.0000
     59 C22       11.1949    2.4868   15.7769 C.2       2 RES2    0.0000
     60 C23       11.4079    1.4904   14.6672 C.3       2 RES2    0.0000
     61 H18       11.1878    0.5804   14.9905 H         2 RES2    0.0000
     62 H19       10.8077    1.7018   13.9088 H         2 RES2    0.0000
     63 C24       11.8411    6.7980    9.7496 C.ar      2 RES2    0.0000
     64 H20       12.1675    7.6409    9.4578 H         2 RES2    0.0000
     65 C25       16.0344    0.3984   15.6756 C.3       2 RES2    0.0000
     66 H21       16.9295    0.7321   15.4554 H         2 RES2    0.0000
     67 H22       16.0030   -0.5698   15.5323 H         2 RES2    0.0000
     68 H23       15.8338    0.5962   16.6140 H         2 RES2    0.0000
     69 C26        9.5824    3.3821   17.2361 C.3       2 RES2    0.0000
     70 H24        8.6297    3.2908   17.4494 H         2 RES2    0.0000
     71 H25        9.7675    4.3016   16.9530 H         2 RES2    0.0000
     72 H26       10.1151    3.1721   18.0330 H         2 RES2    0.0000
@<TRIPOS>BOND
     1    1   14 2
     2    2   21 1
     3    3    4 1
     4    5    3 1
     5    6   20 2
     6    7    9 2
     7    8   20 1
     8   10    7 2
     9   11   14 1
    10   12   21 2
    11   13    7 1
    12   14    3 1
    13   15    5 2
    14   16   13 ar
    15   17   16 1
    16   18   11 ar
    17   19   18 1
    18   20   15 1
    19   21   22 1
    20   22   15 1
    21   23   22 1
    22   24   22 1
    23   25   11 ar
    24   26   25 1
    25   27   13 ar
    26   28   27 1
    27   29    2 1
    28   30   29 1
    29   31   29 1
    30   32   29 1
    31   33    8 1
    32   34   33 1
    33   35   33 1
    34   36   33 1
    35   37   50 1
    36   38   51 2
    37   39   40 1
    38   41   50 2
    39   42   39 1
    40   43   59 1
    41   44   59 2
    42   45   46 2
    43   47   42 2
    44   48   45 2
    45   49   45 1
    46   50   47 1
    47   51   39 1
    48   52   51 1
    49   53   52 ar
    50   54   53 1
    51   55   52 ar
    52   56   55 1
    53   57   49 ar
    54   58   57 1
    55   59   60 1
    56   60   47 1
    57   61   60 1
    58   62   60 1
    59   63   49 ar
    60   64   63 1
    61   65   37 1
    62   66   65 1
    63   67   65 1
    64   68   65 1
    65   69   43 1
    66   70   69 1
    67   71   69 1
    68   72   69 1
    69   16   18 ar
    70   25   27 ar
    71   53   63 ar
    72   55   57 ar
@<TRIPOS>SUBSTRUCTURE
     1 RES1 1
     2 RES2 37

@<TRIPOS>CRYSIN
   8.7159   10.9174   17.7719  85.4130  79.5390  67.1340   2 1

