# MOL2 file generated by ConQuest
# Please check atom types

@<TRIPOS>MOLECULE
PECZED
    45    47     1
SMALL
NO_CHARGES
****
Generated from CSD

@<TRIPOS>ATOM
      1 O1        -0.0871    1.2564    3.2415 O.2       1 RES1    0.0000
      2 O2        -1.4643    2.8331    2.7225 O.2       1 RES1    0.0000
      3 O3         4.7015    7.5805    6.9527 O.2       1 RES1    0.0000
      4 O4         6.8974   14.4897    8.8049 O.2       1 RES1    0.0000
      5 O5         8.0922   12.8986    9.6126 O.2       1 RES1    0.0000
      6 N1         2.9786    6.1937    5.5445 N.3       1 RES1    0.0000
      7 N2         3.6941    9.5805    6.5666 N.am      1 RES1    0.0000
      8 N3        -0.4043    2.4476    3.2160 N.pl3     1 RES1    0.0000
      9 N4         7.1329   13.3079    8.9855 N.pl3     1 RES1    0.0000
     10 C1         0.4901    3.4248    3.7841 C.ar      1 RES1    0.0000
     11 C2         1.6085    3.0004    4.4737 C.ar      1 RES1    0.0000
     12 H1         1.7942    2.0935    4.5550 H         1 RES1    0.0000
     13 C3         2.4360    3.9262    5.0334 C.ar      1 RES1    0.0000
     14 H2         3.1898    3.6435    5.4996 H         1 RES1    0.0000
     15 C4         2.1689    5.2997    4.9187 C.ar      1 RES1    0.0000
     16 C5         1.0451    5.6971    4.1790 C.ar      1 RES1    0.0000
     17 H3         0.8683    6.6026    4.0613 H         1 RES1    0.0000
     18 C6         0.2094    4.7670    3.6308 C.ar      1 RES1    0.0000
     19 H4        -0.5443    5.0359    3.1579 H         1 RES1    0.0000
     20 C7         2.9508    7.6263    5.3312 C.3       1 RES1    0.0000
     21 H5         2.0364    7.9581    5.4519 H         1 RES1    0.0000
     22 C8         3.4520    8.0015    3.9425 C.ar      1 RES1    0.0000
     23 C9         2.7055    8.7735    3.0672 C.ar      1 RES1    0.0000
     24 H6         1.8620    9.0719    3.3192 H         1 RES1    0.0000
     25 C10        3.2045    9.1026    1.8251 C.ar      1 RES1    0.0000
     26 H7         2.6975    9.6255    1.2474 H         1 RES1    0.0000
     27 C11        4.4479    8.6629    1.4356 C.ar      1 RES1    0.0000
     28 H8         4.7803    8.8824    0.5957 H         1 RES1    0.0000
     29 C12        5.1971    7.8960    2.2987 C.ar      1 RES1    0.0000
     30 H9         6.0406    7.5991    2.0422 H         1 RES1    0.0000
     31 C13        4.7016    7.5685    3.5372 C.ar      1 RES1    0.0000
     32 H10        5.2140    7.0472    4.1124 H         1 RES1    0.0000
     33 C14        3.8665    8.2511    6.3813 C.2       1 RES1    0.0000
     34 C15        4.5337   10.4656    7.2650 C.ar      1 RES1    0.0000
     35 C16        5.6822   10.0667    7.9217 C.ar      1 RES1    0.0000
     36 H11        5.8967    9.1625    7.9729 H         1 RES1    0.0000
     37 C17        6.5110   11.0010    8.5015 C.ar      1 RES1    0.0000
     38 H12        7.2812   10.7293    8.9455 H         1 RES1    0.0000
     39 C18        6.2002   12.3244    8.4222 C.ar      1 RES1    0.0000
     40 C19        5.0435   12.7461    7.8176 C.ar      1 RES1    0.0000
     41 H13        4.8262   13.6498    7.7985 H         1 RES1    0.0000
     42 C20        4.2078   11.8178    7.2410 C.ar      1 RES1    0.0000
     43 H14        3.4205   12.0965    6.8325 H         1 RES1    0.0000
     44 H15        3.6278    5.9602    6.0229 H         1 RES1    0.0000
     45 H16        3.0469    9.9375    6.1315 H         1 RES1    0.0000
@<TRIPOS>BOND
     1    1    8 2
     2    2    8 2
     3    3   33 2
     4    4    9 2
     5    5    9 2
     6    6   15 1
     7    7   33 1
     8    8   10 1
     9    9   39 1
    10   10   11 ar
    11   11   12 1
    12   13   11 ar
    13   14   13 1
    14   15   13 ar
    15   16   15 ar
    16   17   16 1
    17   18   10 ar
    18   19   18 1
    19   20    6 1
    20   21   20 1
    21   22   20 1
    22   23   22 ar
    23   24   23 1
    24   25   23 ar
    25   26   25 1
    26   27   25 ar
    27   28   27 1
    28   29   27 ar
    29   30   29 1
    30   31   22 ar
    31   32   31 1
    32   33   20 1
    33   34    7 1
    34   35   34 ar
    35   36   35 1
    36   37   35 ar
    37   38   37 1
    38   39   37 ar
    39   40   39 ar
    40   41   40 1
    41   42   34 ar
    42   43   42 1
    43   44    6 1
    44   45    7 1
    45   16   18 ar
    46   29   31 ar
    47   40   42 ar
@<TRIPOS>SUBSTRUCTURE
     1 RES1 1

@<TRIPOS>CRYSIN
   6.8330   16.7750   16.4560  90.0000  90.0700  90.0000  14 1

