# MOL2 file generated by ConQuest
# Please check atom types

@<TRIPOS>MOLECULE
PEDFIP
    62    64     2
SMALL
NO_CHARGES
****
Generated from CSD

@<TRIPOS>ATOM
      1 O1        -3.4315   -2.5662    6.3050 O.3       1 RES1    0.0000
      2 H1        -2.8850   -3.1763    6.2549 H         1 RES1    0.0000
      3 O2        -1.5657    3.4626    5.8681 O.2       1 RES1    0.0000
      4 O3         0.3771    2.3748    5.8317 O.3       1 RES1    0.0000
      5 O4         3.4768    7.6653    7.0192 O.2       1 RES1    0.0000
      6 O5         3.3603    7.7566    4.9156 O.2       1 RES1    0.0000
      7 N1         3.1247    7.2138    5.9637 N.pl3     1 RES1    0.0000
      8 C1        -5.0719   -0.3346    6.4093 C.3       1 RES1    0.0000
      9 H2        -5.3198   -1.2599    6.4703 H         1 RES1    0.0000
     10 H3        -5.5448    0.0768    5.6815 H         1 RES1    0.0000
     11 H4        -5.2938    0.1113    7.2297 H         1 RES1    0.0000
     12 C2        -3.5943   -0.2297    6.1687 C.ar      1 RES1    0.0000
     13 C3        -2.9592    0.9854    6.0375 C.ar      1 RES1    0.0000
     14 H5        -3.4650    1.7642    6.0767 H         1 RES1    0.0000
     15 C4        -1.5861    1.0862    5.8490 C.ar      1 RES1    0.0000
     16 C5        -0.8370   -0.0768    5.7363 C.ar      1 RES1    0.0000
     17 H6         0.0788   -0.0264    5.5761 H         1 RES1    0.0000
     18 C6        -1.4435   -1.2992    5.8609 C.ar      1 RES1    0.0000
     19 H7        -0.9392   -2.0772    5.7791 H         1 RES1    0.0000
     20 C7        -2.8038   -1.3792    6.1072 C.ar      1 RES1    0.0000
     21 C8        -0.9764    2.4110    5.8430 C.2       1 RES1    0.0000
     22 C9         1.0403    3.6061    5.8729 C.ar      1 RES1    0.0000
     23 C10        1.4757    4.0848    7.0795 C.ar      1 RES1    0.0000
     24 H8         1.3052    3.6141    7.8636 H         1 RES1    0.0000
     25 C11        2.1720    5.2767    7.1160 C.ar      1 RES1    0.0000
     26 H9         2.4817    5.6217    7.9225 H         1 RES1    0.0000
     27 C12        2.3983    5.9419    5.9364 C.ar      1 RES1    0.0000
     28 C13        1.9733    5.4584    4.7273 C.ar      1 RES1    0.0000
     29 H10        2.1453    5.9267    3.9426 H         1 RES1    0.0000
     30 C14        1.2855    4.2649    4.6966 C.ar      1 RES1    0.0000
     31 H11        0.9928    3.9111    3.8884 H         1 RES1    0.0000
     32 O6        10.4672    3.6654    6.7195 O.3       2 RES2    0.0000
     33 H12        9.7804    3.4917    7.1321 H         2 RES2    0.0000
     34 O7        10.3664    4.2665    0.4400 O.2       2 RES2    0.0000
     35 O8         8.2461    3.7878    0.8685 O.3       2 RES2    0.0000
     36 O9         7.2214    3.3003   -5.2547 O.2       2 RES2    0.0000
     37 O10        6.1533    5.1038   -4.8601 O.2       2 RES2    0.0000
     38 N2         6.8515    4.1761   -4.5078 N.pl3     2 RES2    0.0000
     39 C15       12.6355    4.2361    5.1256 C.3       2 RES2    0.0000
     40 H13       12.6046    4.1328    6.0798 H         2 RES2    0.0000
     41 H14       12.9234    5.1254    4.9097 H         2 RES2    0.0000
     42 H15       13.2508    3.5997    4.7547 H         2 RES2    0.0000
     43 C16       11.2649    3.9999    4.5492 C.ar      2 RES2    0.0000
     44 C17       11.0049    4.0616    3.2014 C.ar      2 RES2    0.0000
     45 H16       11.7068    4.2425    2.6176 H         2 RES2    0.0000
     46 C18        9.7331    3.8639    2.6799 C.ar      2 RES2    0.0000
     47 C19        8.6961    3.5677    3.5470 C.ar      2 RES2    0.0000
     48 H17        7.8392    3.4188    3.2158 H         2 RES2    0.0000
     49 C20        8.9327    3.4957    4.8911 C.ar      2 RES2    0.0000
     50 H18        8.2323    3.2971    5.4723 H         2 RES2    0.0000
     51 C21       10.1967    3.7142    5.3909 C.ar      2 RES2    0.0000
     52 C22        9.5283    3.9919    1.2462 C.2       2 RES2    0.0000
     53 C23        7.9515    3.8991   -0.4945 C.ar      2 RES2    0.0000
     54 C24        8.2409    2.8489   -1.3323 C.ar      2 RES2    0.0000
     55 H19        8.6676    2.0884   -1.0074 H         2 RES2    0.0000
     56 C25        7.8895    2.9433   -2.6621 C.ar      2 RES2    0.0000
     57 H20        8.0857    2.2541   -3.2545 H         2 RES2    0.0000
     58 C26        7.2418    4.0776   -3.0940 C.ar      2 RES2    0.0000
     59 C27        6.9314    5.1134   -2.2569 C.ar      2 RES2    0.0000
     60 H21        6.4839    5.8634   -2.5742 H         2 RES2    0.0000
     61 C28        7.2994    5.0205   -0.9317 C.ar      2 RES2    0.0000
     62 H22        7.1079    5.7122   -0.3410 H         2 RES2    0.0000
@<TRIPOS>BOND
     1    1    2 1
     2    3   21 2
     3    4   21 1
     4    5    7 2
     5    6    7 2
     6    7   27 1
     7    8    9 1
     8   10    8 1
     9   11    8 1
    10   12    8 1
    11   13   12 ar
    12   14   13 1
    13   15   13 ar
    14   16   15 ar
    15   17   16 1
    16   18   16 ar
    17   19   18 1
    18   20    1 1
    19   21   15 1
    20   22    4 1
    21   23   22 ar
    22   24   23 1
    23   25   23 ar
    24   26   25 1
    25   27   25 ar
    26   28   27 ar
    27   29   28 1
    28   30   22 ar
    29   31   30 1
    30   32   33 1
    31   34   52 2
    32   35   52 1
    33   36   38 2
    34   37   38 2
    35   38   58 1
    36   39   40 1
    37   41   39 1
    38   42   39 1
    39   43   39 1
    40   44   43 ar
    41   45   44 1
    42   46   44 ar
    43   47   46 ar
    44   48   47 1
    45   49   47 ar
    46   50   49 1
    47   51   32 1
    48   52   46 1
    49   53   35 1
    50   54   53 ar
    51   55   54 1
    52   56   54 ar
    53   57   56 1
    54   58   56 ar
    55   59   58 ar
    56   60   59 1
    57   61   53 ar
    58   62   61 1
    59   12   20 ar
    60   18   20 ar
    61   28   30 ar
    62   43   51 ar
    63   49   51 ar
    64   59   61 ar
@<TRIPOS>SUBSTRUCTURE
     1 RES1 1
     2 RES2 32

@<TRIPOS>CRYSIN
  42.3130    8.0047   16.1078  90.0000 105.8190  90.0000  15 1

