# MOL2 file generated by ConQuest
# Please check atom types

@<TRIPOS>MOLECULE
PEDREY
   148   152     4
SMALL
NO_CHARGES
****
Generated from CSD

@<TRIPOS>ATOM
      1 C1         0.8240   -3.9897   -0.2697 C.ar      1 RES1    0.0000
      2 C2         1.6349   -3.8629    0.8370 C.ar      1 RES1    0.0000
      3 H1         1.8162   -4.5982    1.3778 H         1 RES1    0.0000
      4 C3         2.1731   -2.6254    1.1280 C.ar      1 RES1    0.0000
      5 H2         2.7199   -2.5154    1.8714 H         1 RES1    0.0000
      6 C4         1.8923   -1.5476    0.3024 C.ar      1 RES1    0.0000
      7 C5         1.0613   -1.6855   -0.8031 C.ar      1 RES1    0.0000
      8 H3         0.8743   -0.9549   -1.3454 H         1 RES1    0.0000
      9 C6         0.5168   -2.9217   -1.0843 C.ar      1 RES1    0.0000
     10 H4        -0.0501   -3.0321   -1.8142 H         1 RES1    0.0000
     11 C7         2.7754    1.9029    0.1145 C.2       1 RES1    0.0000
     12 C8         3.5653    2.1824    1.3191 C.2       1 RES1    0.0000
     13 C9         3.7227    4.5241    0.6264 C.2       1 RES1    0.0000
     14 C10        2.9520    4.1907   -0.5696 C.2       1 RES1    0.0000
     15 C11        2.4792    2.9422   -0.8353 C.2       1 RES1    0.0000
     16 C12        4.7348    3.8004    2.7493 C.3       1 RES1    0.0000
     17 H5         5.3268    4.5501    2.5803 H         1 RES1    0.0000
     18 H6         5.2820    3.0378    2.9919 H         1 RES1    0.0000
     19 C13        3.8273    4.1380    3.8914 C.3       1 RES1    0.0000
     20 H7         3.3202    4.9237    3.6760 H         1 RES1    0.0000
     21 H8         4.3513    4.3017    4.6784 H         1 RES1    0.0000
     22 H9         3.2287    3.4058    4.0515 H         1 RES1    0.0000
     23 C14        2.7096    5.2783   -1.4746 C.1       1 RES1    0.0000
     24 C15        1.6827    2.6313   -2.0627 C.3       1 RES1    0.0000
     25 H10        1.5146    3.4416   -2.5498 H         1 RES1    0.0000
     26 H11        0.8483    2.2306   -1.8085 H         1 RES1    0.0000
     27 H12        2.1746    2.0220   -2.6165 H         1 RES1    0.0000
     28 H13        2.9424   -0.1784    1.3835 H         1 RES1    0.0000
     29 N1         0.2434   -5.3012   -0.5709 N.pl3     1 RES1    0.0000
     30 N2         2.4808   -0.3148    0.6224 N.pl3     1 RES1    0.0000
     31 N3         2.2813    0.7104   -0.1685 N.2       1 RES1    0.0000
     32 N4         3.9817    3.4883    1.5198 N.am      1 RES1    0.0000
     33 N5         2.5059    6.1322   -2.2026 N.1       1 RES1    0.0000
     34 O1         0.6166   -6.2638    0.0781 O.2       1 RES1    0.0000
     35 O2        -0.5994   -5.3622   -1.4628 O.2       1 RES1    0.0000
     36 O3         3.8592    1.3044    2.1254 O.2       1 RES1    0.0000
     37 O4         4.1298    5.6502    0.8515 O.2       1 RES1    0.0000
     38 C16        5.0147    9.9933   -2.4869 C.ar      2 RES2    0.0000
     39 C17        4.5964    8.7533   -2.0562 C.ar      2 RES2    0.0000
     40 H14        4.0250    8.2366   -2.5765 H         2 RES2    0.0000
     41 C18        5.0433    8.2971   -0.8364 C.ar      2 RES2    0.0000
     42 H15        4.7901    7.4569   -0.5298 H         2 RES2    0.0000
     43 C19        5.8747    9.0988   -0.0665 C.ar      2 RES2    0.0000
     44 C20        6.2785   10.3487   -0.5134 C.ar      2 RES2    0.0000
     45 H16        6.8360   10.8764    0.0114 H         2 RES2    0.0000
     46 C21        5.8447   10.7987   -1.7406 C.ar      2 RES2    0.0000
     47 H17        6.1089   11.6316   -2.0600 H         2 RES2    0.0000
     48 C22        7.3881    8.9550    3.1558 C.2       2 RES2    0.0000
     49 C23        7.0661    7.6311    3.6934 C.2       2 RES2    0.0000
     50 C24        8.2797    8.1928    5.7389 C.2       2 RES2    0.0000
     51 C25        8.5745    9.5066    5.1613 C.2       2 RES2    0.0000
     52 C26        8.1624    9.8946    3.9150 C.2       2 RES2    0.0000
     53 C27        7.2465    5.9717    5.4830 C.3       2 RES2    0.0000
     54 H18        6.3481    5.7099    5.2273 H         2 RES2    0.0000
     55 H19        7.2883    5.9901    6.4526 H         2 RES2    0.0000
     56 C28        8.2247    4.9574    4.9641 C.3       2 RES2    0.0000
     57 H20        8.2113    4.9621    4.0038 H         2 RES2    0.0000
     58 H21        7.9815    4.0853    5.2844 H         2 RES2    0.0000
     59 H22        9.1070    5.1761    5.2730 H         2 RES2    0.0000
     60 C29        9.3308   10.3903    5.9985 C.1       2 RES2    0.0000
     61 C30        8.4764   11.2376    3.3452 C.3       2 RES2    0.0000
     62 H23        9.0161   11.7307    3.9676 H         2 RES2    0.0000
     63 H24        7.6588   11.7149    3.1825 H         2 RES2    0.0000
     64 H25        8.9546   11.1319    2.5193 H         2 RES2    0.0000
     65 H26        6.0575    7.7764    1.5360 H         2 RES2    0.0000
     66 N6         4.5423   10.4837   -3.7805 N.pl3     2 RES2    0.0000
     67 N7         6.2709    8.6142    1.1872 N.pl3     2 RES2    0.0000
     68 N8         6.9903    9.3746    1.9632 N.2       2 RES2    0.0000
     69 N9         7.5313    7.3225    4.9548 N.am      2 RES2    0.0000
     70 N10        9.9131   11.0988    6.6664 N.1       2 RES2    0.0000
     71 O5         3.6199    9.8898   -4.3266 O.2       2 RES2    0.0000
     72 O6         5.0925   11.4635   -4.2615 O.2       2 RES2    0.0000
     73 O7         6.4099    6.8073    3.0596 O.2       2 RES2    0.0000
     74 O8         8.6528    7.8689    6.8507 O.2       2 RES2    0.0000
     75 C31        3.2980   10.2303   10.7724 C.ar      3 RES3    0.0000
     76 C32        3.2519    9.3386   11.8245 C.ar      3 RES3    0.0000
     77 H27        3.7125    9.5119   12.6137 H         3 RES3    0.0000
     78 C33        2.5099    8.1866   11.6837 C.ar      3 RES3    0.0000
     79 H28        2.4688    7.5686   12.3774 H         3 RES3    0.0000
     80 C34        1.8254    7.9553   10.5003 C.ar      3 RES3    0.0000
     81 C35        1.8764    8.8686    9.4588 C.ar      3 RES3    0.0000
     82 H29        1.4053    8.7085    8.6727 H         3 RES3    0.0000
     83 C36        2.6257   10.0141    9.5922 C.ar      3 RES3    0.0000
     84 H30        2.6770   10.6307    8.8976 H         3 RES3    0.0000
     85 C37        0.5585    4.6570   10.9710 C.2       3 RES3    0.0000
     86 C38       -0.0817    4.3061    9.6991 C.2       3 RES3    0.0000
     87 C39       -0.4826    2.0528   10.5435 C.2       3 RES3    0.0000
     88 C40        0.1516    2.4470   11.7998 C.2       3 RES3    0.0000
     89 C41        0.6850    3.6849   12.0210 C.2       3 RES3    0.0000
     90 C42       -1.0120    2.5846    8.1588 C.3       3 RES3    0.0000
     91 H31       -0.4638    2.9931    7.4702 H         3 RES3    0.0000
     92 H32       -0.9508    1.6209    8.0648 H         3 RES3    0.0000
     93 C43       -2.4117    3.0142    8.0042 C.3       3 RES3    0.0000
     94 H33       -2.9604    2.5531    8.6441 H         3 RES3    0.0000
     95 H34       -2.7134    2.8083    7.1158 H         3 RES3    0.0000
     96 H35       -2.4744    3.9601    8.1525 H         3 RES3    0.0000
     97 C44        0.2230    1.4086   12.7871 C.1       3 RES3    0.0000
     98 C45        1.4185    4.0327   13.2789 C.3       3 RES3    0.0000
     99 H36        1.3256    3.3171   13.9114 H         3 RES3    0.0000
    100 H37        1.0512    4.8393   13.6504 H         3 RES3    0.0000
    101 H38        2.3483    4.1668   13.0806 H         3 RES3    0.0000
    102 H39        0.6979    6.6012    9.5436 H         3 RES3    0.0000
    103 N11        4.0714   11.4574   10.9262 N.pl3     3 RES3    0.0000
    104 N12        1.1045    6.7755   10.2886 N.pl3     3 RES3    0.0000
    105 N13        1.1290    5.8315   11.2012 N.2       3 RES3    0.0000
    106 N14       -0.5146    3.0018    9.5310 N.am      3 RES3    0.0000
    107 N15        0.2934    0.5634   13.5511 N.1       3 RES3    0.0000
    108 O9         4.5134   11.7351   12.0317 O.2       3 RES3    0.0000
    109 O10        4.2451   12.1729    9.9459 O.2       3 RES3    0.0000
    110 O11       -0.2015    5.1166    8.7834 O.2       3 RES3    0.0000
    111 O12       -0.9379    0.9366   10.3549 O.2       3 RES3    0.0000
    112 C46        5.7825   15.8054   13.6071 C.ar      4 RES4    0.0000
    113 C47        5.2714   14.8666   12.7343 C.ar      4 RES4    0.0000
    114 H40        5.0858   14.0029   13.0272 H         4 RES4    0.0000
    115 C48        5.0383   15.2225   11.4238 C.ar      4 RES4    0.0000
    116 H41        4.6774   14.6074   10.8261 H         4 RES4    0.0000
    117 C49        5.3481   16.5115   11.0047 C.ar      4 RES4    0.0000
    118 C50        5.9031   17.4285   11.8830 C.ar      4 RES4    0.0000
    119 H42        6.1364   18.2778   11.5846 H         4 RES4    0.0000
    120 C51        6.1097   17.0799   13.2016 C.ar      4 RES4    0.0000
    121 H43        6.4619   17.6931   13.8047 H         4 RES4    0.0000
    122 C52        4.2082   16.4911    7.6216 C.2       4 RES4    0.0000
    123 C53        4.5584   17.8090    7.0773 C.2       4 RES4    0.0000
    124 C54        3.6580   17.1160    4.9193 C.2       4 RES4    0.0000
    125 C55        3.3005   15.8256    5.5114 C.2       4 RES4    0.0000
    126 C56        3.5264   15.5182    6.8124 C.2       4 RES4    0.0000
    127 C57        4.4776   19.4174    5.2214 C.3       4 RES4    0.0000
    128 H44        4.3030   20.0780    5.9114 H         4 RES4    0.0000
    129 H45        3.8697   19.5880    4.4860 H         4 RES4    0.0000
    130 C58        5.8841   19.5706    4.7406 C.3       4 RES4    0.0000
    131 H46        6.4910   19.3514    5.4521 H         4 RES4    0.0000
    132 H47        6.0301   20.4785    4.4631 H         4 RES4    0.0000
    133 H48        6.0339   18.9805    3.9981 H         4 RES4    0.0000
    134 C59        2.6681   14.9053    4.6176 C.1       4 RES4    0.0000
    135 C60        3.0788   14.2269    7.4232 C.3       4 RES4    0.0000
    136 H49        2.4314   14.4049    8.1086 H         4 RES4    0.0000
    137 H50        3.8340   13.7751    7.8056 H         4 RES4    0.0000
    138 H51        2.6829   13.6721    6.7461 H         4 RES4    0.0000
    139 H52        5.3325   17.7364    9.3816 H         4 RES4    0.0000
    140 N16        6.0067   15.4263   15.0032 N.pl3     4 RES4    0.0000
    141 N17        5.1003   16.9296    9.6898 N.pl3     4 RES4    0.0000
    142 N18        4.4747   16.1244    8.8671 N.2       4 RES4    0.0000
    143 N19        4.2146   18.0668    5.7647 N.am      4 RES4    0.0000
    144 N20        2.1652   14.1643    3.9093 N.1       4 RES4    0.0000
    145 O13        5.9155   14.2411   15.2980 O.2       4 RES4    0.0000
    146 O14        6.2943   16.2957   15.8062 O.2       4 RES4    0.0000
    147 O15        5.1085   18.6684    7.7529 O.2       4 RES4    0.0000
    148 O16        3.4565   17.3818    3.7454 O.2       4 RES4    0.0000
@<TRIPOS>BOND
     1    1    2 ar
     2    2    3 1
     3    4    2 ar
     4    5    4 1
     5    6    4 ar
     6    7    6 ar
     7    8    7 1
     8    9    1 ar
     9   10    9 1
    10   11   12 1
    11   12   32 1
    12   13   14 1
    13   14   15 2
    14   15   11 1
    15   16   17 1
    16   18   16 1
    17   19   16 1
    18   20   19 1
    19   21   19 1
    20   22   19 1
    21   23   14 1
    22   24   15 1
    23   25   24 1
    24   26   24 1
    25   27   24 1
    26   28   30 1
    27   29    1 1
    28   30    6 1
    29   31   11 2
    30   32   13 1
    31   33   23 3
    32   34   29 2
    33   35   29 2
    34   36   12 2
    35   37   13 2
    36   38   39 ar
    37   39   40 1
    38   41   39 ar
    39   42   41 1
    40   43   41 ar
    41   44   43 ar
    42   45   44 1
    43   46   38 ar
    44   47   46 1
    45   48   49 1
    46   49   69 1
    47   50   51 1
    48   51   52 2
    49   52   48 1
    50   53   54 1
    51   55   53 1
    52   56   53 1
    53   57   56 1
    54   58   56 1
    55   59   56 1
    56   60   51 1
    57   61   52 1
    58   62   61 1
    59   63   61 1
    60   64   61 1
    61   65   67 1
    62   66   38 1
    63   67   43 1
    64   68   48 2
    65   69   50 1
    66   70   60 3
    67   71   66 2
    68   72   66 2
    69   73   49 2
    70   74   50 2
    71   75   76 ar
    72   76   77 1
    73   78   76 ar
    74   79   78 1
    75   80   78 ar
    76   81   80 ar
    77   82   81 1
    78   83   75 ar
    79   84   83 1
    80   85   86 1
    81   86  106 1
    82   87   88 1
    83   88   89 2
    84   89   85 1
    85   90   91 1
    86   92   90 1
    87   93   90 1
    88   94   93 1
    89   95   93 1
    90   96   93 1
    91   97   88 1
    92   98   89 1
    93   99   98 1
    94  100   98 1
    95  101   98 1
    96  102  104 1
    97  103   75 1
    98  104   80 1
    99  105   85 2
   100  106   87 1
   101  107   97 3
   102  108  103 2
   103  109  103 2
   104  110   86 2
   105  111   87 2
   106  112  113 ar
   107  113  114 1
   108  115  113 ar
   109  116  115 1
   110  117  115 ar
   111  118  117 ar
   112  119  118 1
   113  120  112 ar
   114  121  120 1
   115  122  123 1
   116  123  143 1
   117  124  125 1
   118  125  126 2
   119  126  122 1
   120  127  128 1
   121  129  127 1
   122  130  127 1
   123  131  130 1
   124  132  130 1
   125  133  130 1
   126  134  125 1
   127  135  126 1
   128  136  135 1
   129  137  135 1
   130  138  135 1
   131  139  141 1
   132  140  112 1
   133  141  117 1
   134  142  122 2
   135  143  124 1
   136  144  134 3
   137  145  140 2
   138  146  140 2
   139  147  123 2
   140  148  124 2
   141    7    9 ar
   142   16   32 1
   143   30   31 1
   144   44   46 ar
   145   53   69 1
   146   67   68 1
   147   81   83 ar
   148   90  106 1
   149  104  105 1
   150  118  120 ar
   151  127  143 1
   152  141  142 1
@<TRIPOS>SUBSTRUCTURE
     1 RES1 1
     2 RES2 38
     3 RES3 75
     4 RES4 112

@<TRIPOS>CRYSIN
   8.4086   19.0758   19.3272  99.1290  92.7340  91.2470   2 1

