# MOL2 file generated by ConQuest
# Please check atom types

@<TRIPOS>MOLECULE
PEFMAO
    22    23     1
SMALL
USER_CHARGES
****
Generated from CSD

@<TRIPOS>ATOM
      1 O1         4.2495    1.1959    0.7858 O.2       1 RES1    0.0000
      2 O2         3.0140    2.8066    1.3454 O.2       1 RES1    0.0000
      3 O3        -2.5195   -4.6888    1.5117 O.2       1 RES1    0.0000
      4 O4        -4.8670   -1.2019    3.3104 O.2       1 RES1   -1.0000
      5 N1         3.1986    1.6159    1.1807 N.pl3     1 RES1    0.0000
      6 N2        -3.4527   -3.9914    1.9688 N.3       1 RES1    0.0000
      7 N3        -4.5829   -2.3489    2.8412 N.pl3     1 RES1    1.0000
      8 C1         2.0759    0.7382    1.3986 C.ar      1 RES1    0.0000
      9 C2         2.1850   -0.5809    1.0038 C.ar      1 RES1    0.0000
     10 C3         1.1392   -1.4193    1.1617 C.ar      1 RES1    0.0000
     11 C4        -0.0466   -0.9993    1.6788 C.ar      1 RES1    0.0000
     12 C5        -0.1853    0.3264    2.0288 C.ar      1 RES1    0.0000
     13 C6         0.8794    1.2286    1.8936 C.ar      1 RES1    0.0000
     14 C7        -1.1531   -1.9927    1.7987 C.2       1 RES1    0.0000
     15 C8        -2.3212   -1.7479    2.2269 C.2       1 RES1    0.0000
     16 C9        -3.3855   -2.7079    2.3393 C.2       1 RES1    0.0000
     17 C10       -4.7489   -4.6510    2.4107 C.3       1 RES1    0.0000
     18 C11       -4.4167   -5.3662    3.6901 C.3       1 RES1    0.0000
     19 C12       -5.2143   -5.6318    1.3811 C.3       1 RES1    0.0000
     20 C13       -5.6423   -3.3949    2.6180 C.3       1 RES1    0.0000
     21 C14       -6.4147   -2.9795    1.4047 C.3       1 RES1    0.0000
     22 C15       -6.5584   -3.4291    3.8305 C.3       1 RES1    0.0000
@<TRIPOS>BOND
     1    1    5 2
     2    2    5 2
     3    3    6 1
     4    4    7 1
     5    5    8 1
     6    6   16 1
     7    7   16 2
     8    8    9 ar
     9    9   10 ar
    10   10   11 ar
    11   11   12 ar
    12   12   13 ar
    13   13    8 ar
    14   14   11 1
    15   15   14 2
    16   16   15 1
    17   17    6 1
    18   18   17 1
    19   19   17 1
    20   20    7 1
    21   21   20 1
    22   22   20 1
    23   17   20 1
@<TRIPOS>SUBSTRUCTURE
     1 RES1 1

@<TRIPOS>CRYSIN
  27.4570    7.4190    7.6640  90.0000  97.8200  90.0000  14 2

