# MOL2 file generated by ConQuest
# Please check atom types

@<TRIPOS>MOLECULE
PEFMES
    24    25     1
SMALL
USER_CHARGES
****
Generated from CSD

@<TRIPOS>ATOM
      1 O1         3.8354    0.7899   10.3272 O.2       1 RES1    0.0000
      2 O2        -0.2785    1.5516    8.4137 O.2       1 RES1   -1.0000
      3 O3         3.8826   -7.3706    2.7314 O.2       1 RES1    0.0000
      4 O4         1.8981   -7.6270    2.0310 O.2       1 RES1    0.0000
      5 N1         2.6695    1.2542   10.1551 N.3       1 RES1    0.0000
      6 N2         0.7065    1.6222    9.2517 N.pl3     1 RES1    1.0000
      7 N3         2.7115   -7.0487    2.6851 N.pl3     1 RES1    0.0000
      8 C1         1.5835   -3.5700    4.8419 C.ar      1 RES1    0.0000
      9 C2         2.9226   -3.9484    4.7469 C.ar      1 RES1    0.0000
     10 C3         3.3165   -5.0652    4.0513 C.ar      1 RES1    0.0000
     11 C4         2.3424   -5.8405    3.4448 C.ar      1 RES1    0.0000
     12 C5         1.0049   -5.5271    3.4982 C.ar      1 RES1    0.0000
     13 C6         0.6585   -4.3796    4.1831 C.ar      1 RES1    0.0000
     14 C7         1.1554   -2.3404    5.5518 C.2       1 RES1    0.0000
     15 C8         1.8834   -1.6958    6.3922 C.2       1 RES1    0.0000
     16 C9         1.4473   -0.5403    7.1697 C.2       1 RES1    0.0000
     17 C10        2.2425   -0.0117    8.1264 C.2       1 RES1    0.0000
     18 C11        1.8711    0.9157    9.0986 C.2       1 RES1    0.0000
     19 C12        2.0630    2.2698   11.0596 C.3       1 RES1    0.0000
     20 C13        2.3478    1.9080   12.4971 C.3       1 RES1    0.0000
     21 C14        2.7786    3.5952   10.7225 C.3       1 RES1    0.0000
     22 C15        0.5778    2.2533   10.5895 C.3       1 RES1    0.0000
     23 C16       -0.2766    1.3290   11.4359 C.3       1 RES1    0.0000
     24 C17       -0.0933    3.6142   10.4649 C.3       1 RES1    0.0000
@<TRIPOS>BOND
     1    1    5 1
     2    2    6 1
     3    3    7 2
     4    4    7 2
     5    5   18 1
     6    6   18 2
     7    7   11 1
     8    8    9 ar
     9    9   10 ar
    10   10   11 ar
    11   11   12 ar
    12   12   13 ar
    13   13    8 ar
    14   14    8 1
    15   15   14 2
    16   16   15 1
    17   17   16 2
    18   18   17 1
    19   19    5 1
    20   20   19 1
    21   21   19 1
    22   22    6 1
    23   23   22 1
    24   24   22 1
    25   19   22 1
@<TRIPOS>SUBSTRUCTURE
     1 RES1 1

@<TRIPOS>CRYSIN
  22.9200    6.1330   12.0050  90.0000  98.5900  90.0000 231 1

