# MOL2 file generated by ConQuest
# Please check atom types

@<TRIPOS>MOLECULE
PEFNAP
    36    38     1
SMALL
NO_CHARGES
****
Generated from CSD

@<TRIPOS>ATOM
      1 O1         4.6837    1.6360    3.0861 O.3       1 RES1    0.0000
      2 O2         2.4457    7.6453   -0.0066 O.2       1 RES1    0.0000
      3 O3         3.7587    6.5928   -1.3427 O.2       1 RES1    0.0000
      4 N1         3.8602    2.8974    4.8788 N.3       1 RES1    0.0000
      5 N2         3.2339    6.7404   -0.2526 N.pl3     1 RES1    0.0000
      6 C1         4.3338    2.8358    3.7954 C.3       1 RES1    0.0000
      7 C2         4.2397    1.8445    5.8160 C.3       1 RES1    0.0000
      8 C3         4.6399    0.5387    5.1380 C.3       1 RES1    0.0000
      9 C4         5.0968    0.5810    3.9615 C.3       1 RES1    0.0000
     10 C5         4.0454    3.8701    2.7319 C.ar      1 RES1    0.0000
     11 C6         3.0618    4.8271    2.9180 C.ar      1 RES1    0.0000
     12 C7         2.8043    5.7794    1.9675 C.ar      1 RES1    0.0000
     13 C8         3.5357    5.7614    0.8109 C.ar      1 RES1    0.0000
     14 C9         4.5400    4.8476    0.5982 C.ar      1 RES1    0.0000
     15 C10        4.7849    3.9148    1.5687 C.ar      1 RES1    0.0000
     16 C11        5.4410   -0.6352    3.1506 C.ar      1 RES1    0.0000
     17 C12        5.8120   -1.8051    3.7887 C.ar      1 RES1    0.0000
     18 C13        6.1163   -2.9384    3.0576 C.ar      1 RES1    0.0000
     19 C14        6.0873   -2.9033    1.7016 C.ar      1 RES1    0.0000
     20 C15        5.7298   -1.7506    1.0635 C.ar      1 RES1    0.0000
     21 C16        5.4027   -0.6270    1.7814 C.ar      1 RES1    0.0000
     22 H1         5.2187    3.1155    4.0194 H         1 RES1    0.0000
     23 H2         4.9664    2.1561    6.3418 H         1 RES1    0.0000
     24 H3         3.4952    1.6644    6.3783 H         1 RES1    0.0000
     25 H4         5.3421    0.1597    5.6797 H         1 RES1    0.0000
     26 H5         3.8985   -0.0278    5.1453 H         1 RES1    0.0000
     27 H6         5.9734    0.8807    4.1423 H         1 RES1    0.0000
     28 H7         2.5582    4.8220    3.7209 H         1 RES1    0.0000
     29 H8         2.1389    6.4381    2.1097 H         1 RES1    0.0000
     30 H9         5.0477    4.8637   -0.2001 H         1 RES1    0.0000
     31 H10        5.4820    3.2831    1.4344 H         1 RES1    0.0000
     32 H11        5.8533   -1.8321    4.7386 H         1 RES1    0.0000
     33 H12        6.3519   -3.7418    3.5036 H         1 RES1    0.0000
     34 H13        6.3225   -3.6734    1.1951 H         1 RES1    0.0000
     35 H14        5.7011   -1.7248    0.1163 H         1 RES1    0.0000
     36 H15        5.1462    0.1642    1.3221 H         1 RES1    0.0000
@<TRIPOS>BOND
     1    1    6 1
     2    2    5 2
     3    3    5 2
     4    4    6 1
     5    5   13 1
     6    6   10 1
     7    7    4 1
     8    8    7 1
     9    9    1 1
    10   10   11 ar
    11   11   12 ar
    12   12   13 ar
    13   13   14 ar
    14   14   15 ar
    15   15   10 ar
    16   16    9 1
    17   17   16 ar
    18   18   17 ar
    19   19   18 ar
    20   20   19 ar
    21   21   16 ar
    22   22    6 1
    23   23    7 1
    24   24    7 1
    25   25    8 1
    26   26    8 1
    27   27    9 1
    28   28   11 1
    29   29   12 1
    30   30   14 1
    31   31   15 1
    32   32   17 1
    33   33   18 1
    34   34   19 1
    35   35   20 1
    36   36   21 1
    37    8    9 1
    38   20   21 ar
@<TRIPOS>SUBSTRUCTURE
     1 RES1 1

@<TRIPOS>CRYSIN
   8.7150   12.5990    7.1880  95.2300 112.3700  77.2300   2 1

