# MOL2 file generated by ConQuest
# Please check atom types

@<TRIPOS>MOLECULE
PEFTIE
    46    46     2
SMALL
NO_CHARGES
****
Generated from CSD

@<TRIPOS>ATOM
      1 O1        -0.1178   11.4273   11.0199 O.2       1 RES1    0.0000
      2 O2        -0.6398    9.3346   11.2243 O.2       1 RES1    0.0000
      3 N1        -0.3194   10.3072   10.5334 N.pl3     1 RES1    0.0000
      4 N2         0.0875    9.7098    4.9890 N.3       1 RES1    0.0000
      5 N3         1.7914    6.8299    4.3107 N.1       1 RES1    0.0000
      6 C1        -0.1872   10.1365    9.1095 C.ar      1 RES1    0.0000
      7 C2        -0.4738    8.9058    8.5345 C.ar      1 RES1    0.0000
      8 C3        -0.3642    8.7509    7.1740 C.ar      1 RES1    0.0000
      9 C4         0.0240    9.8272    6.3536 C.ar      1 RES1    0.0000
     10 C5         0.3362   11.0650    6.9735 C.ar      1 RES1    0.0000
     11 C6         0.2198   11.2095    8.3300 C.ar      1 RES1    0.0000
     12 C7         0.6048   10.7985    4.1706 C.3       1 RES1    0.0000
     13 C8        -0.2469    8.4738    4.3251 C.3       1 RES1    0.0000
     14 C9         0.8984    7.5210    4.3118 C.1       1 RES1    0.0000
     15 H1        -0.7039    8.2046    9.1146 H         1 RES1    0.0000
     16 H2        -0.5999    7.9028    6.8231 H         1 RES1    0.0000
     17 H3         0.6517   11.8403    6.4549 H         1 RES1    0.0000
     18 H4         0.3711   12.1015    8.7258 H         1 RES1    0.0000
     19 H5        -0.0021   11.6299    4.2351 H         1 RES1    0.0000
     20 H6         1.5160   11.0062    4.5010 H         1 RES1    0.0000
     21 H7         0.6717   10.4661    3.2735 H         1 RES1    0.0000
     22 H8        -0.4772    8.6761    3.3962 H         1 RES1    0.0000
     23 H9        -0.9992    7.9688    4.7772 H         1 RES1    0.0000
     24 O3         1.7166   13.8233    5.1147 O.2       2 RES2    0.0000
     25 O4         2.2145   15.9003    5.4967 O.2       2 RES2    0.0000
     26 N4         2.0969   14.9302    4.7302 N.pl3     2 RES2    0.0000
     27 N5         3.3189   15.6779   -0.6769 N.3       2 RES2    0.0000
     28 N6         1.5684   18.5845   -1.2767 N.1       2 RES2    0.0000
     29 C10        2.4012   15.1219    3.3379 C.ar      2 RES2    0.0000
     30 C11        2.8797   16.3640    2.9144 C.ar      2 RES2    0.0000
     31 C12        3.1601   16.5559    1.5835 C.ar      2 RES2    0.0000
     32 C13        2.9827   15.5197    0.6475 C.ar      2 RES2    0.0000
     33 C14        2.4757   14.2850    1.1058 C.ar      2 RES2    0.0000
     34 C15        2.1974   14.0869    2.4377 C.ar      2 RES2    0.0000
     35 C16        2.9435   14.6767   -1.6572 C.3       2 RES2    0.0000
     36 C17        3.6540   16.9976   -1.1907 C.3       2 RES2    0.0000
     37 C18        2.4830   17.9027   -1.2490 C.1       2 RES2    0.0000
     38 H10        3.0580   17.0937    3.5804 H         2 RES2    0.0000
     39 H11        3.4878   17.4207    1.3196 H         2 RES2    0.0000
     40 H12        2.2978   13.5238    0.5524 H         2 RES2    0.0000
     41 H13        1.8771   13.1942    2.7211 H         2 RES2    0.0000
     42 H14        1.9789   14.5000   -1.7288 H         2 RES2    0.0000
     43 H15        3.2075   15.0121   -2.5165 H         2 RES2    0.0000
     44 H16        3.3766   13.8078   -1.4015 H         2 RES2    0.0000
     45 H17        4.3847   17.4309   -0.6752 H         2 RES2    0.0000
     46 H18        4.0701   16.8908   -2.1278 H         2 RES2    0.0000
@<TRIPOS>BOND
     1    1    3 2
     2    2    3 2
     3    3    6 1
     4    4    9 1
     5    5   14 3
     6    6    7 ar
     7    7    8 ar
     8    8    9 ar
     9    9   10 ar
    10   10   11 ar
    11   11    6 ar
    12   12    4 1
    13   13    4 1
    14   14   13 1
    15   15    7 1
    16   16    8 1
    17   17   10 1
    18   18   11 1
    19   19   12 1
    20   20   12 1
    21   21   12 1
    22   22   13 1
    23   23   13 1
    24   24   26 2
    25   25   26 2
    26   26   29 1
    27   27   32 1
    28   28   37 3
    29   29   30 ar
    30   30   31 ar
    31   31   32 ar
    32   32   33 ar
    33   33   34 ar
    34   34   29 ar
    35   35   27 1
    36   36   27 1
    37   37   36 1
    38   38   30 1
    39   39   31 1
    40   40   33 1
    41   41   34 1
    42   42   35 1
    43   43   35 1
    44   44   35 1
    45   45   36 1
    46   46   36 1
@<TRIPOS>SUBSTRUCTURE
     1 RES1 1
     2 RES2 24

@<TRIPOS>CRYSIN
   7.1495   25.3540   10.2790  90.0000  95.6200  90.0000  14 1

