# MOL2 file generated by ConQuest
# Please check atom types

@<TRIPOS>MOLECULE
PEFTIE01
    23    23     1
SMALL
NO_CHARGES
****
Generated from CSD

@<TRIPOS>ATOM
      1 O1         9.1234    6.4754    1.3686 O.2       1 RES1    0.0000
      2 O2         7.0580    6.2008    1.9536 O.2       1 RES1    0.0000
      3 N1         8.2404    5.8548    1.9744 N.pl3     1 RES1    0.0000
      4 N2         9.7184    1.2065    4.7431 N.3       1 RES1    0.0000
      5 N3         7.4179   -1.2385    3.9832 N.1       1 RES1    0.0000
      6 C1         8.6155    4.6706    2.7172 C.ar      1 RES1    0.0000
      7 C2         7.6308    3.9011    3.3330 C.ar      1 RES1    0.0000
      8 C3         7.9886    2.7484    4.0094 C.ar      1 RES1    0.0000
      9 C4         9.3443    2.3533    4.0821 C.ar      1 RES1    0.0000
     10 C5        10.3182    3.1576    3.4489 C.ar      1 RES1    0.0000
     11 C6         9.9560    4.3085    2.7754 C.ar      1 RES1    0.0000
     12 C7        11.1023    0.7346    4.7132 C.3       1 RES1    0.0000
     13 C8         8.7519    0.4376    5.5018 C.3       1 RES1    0.0000
     14 C9         7.9942   -0.5214    4.6592 C.1       1 RES1    0.0000
     15 H1         6.6238    4.1842    3.3321 H         1 RES1    0.0000
     16 H2         7.2799    2.2277    4.4581 H         1 RES1    0.0000
     17 H3        11.2557    2.8765    3.5108 H         1 RES1    0.0000
     18 H4        10.6254    4.8433    2.3641 H         1 RES1    0.0000
     19 H5        11.0904   -0.1545    5.1229 H         1 RES1    0.0000
     20 H6        11.7001    1.3558    5.2309 H         1 RES1    0.0000
     21 H7        11.4650    0.6968    3.7850 H         1 RES1    0.0000
     22 H8         8.0679    1.0195    5.9580 H         1 RES1    0.0000
     23 H9         9.2846   -0.0687    6.1366 H         1 RES1    0.0000
@<TRIPOS>BOND
     1    1    3 2
     2    2    3 2
     3    3    6 1
     4    4    9 1
     5    5   14 3
     6    6    7 ar
     7    7    8 ar
     8    8    9 ar
     9    9   10 ar
    10   10   11 ar
    11   11    6 ar
    12   12    4 1
    13   13    4 1
    14   14   13 1
    15   15    7 1
    16   16    8 1
    17   17   10 1
    18   18   11 1
    19   19   12 1
    20   20   12 1
    21   21   12 1
    22   22   13 1
    23   23   13 1
@<TRIPOS>SUBSTRUCTURE
     1 RES1 1

@<TRIPOS>CRYSIN
  25.8337   34.3252    4.1548  90.0000  90.0000  90.0000  43 1

