# MOL2 file generated by ConQuest
# Please check atom types

@<TRIPOS>MOLECULE
PEGZUZ
    62    68     1
SMALL
NO_CHARGES
****
Generated from CSD

@<TRIPOS>ATOM
      1 C1         7.7268    0.6464    0.4604 C.ar      1 RES1    0.0000
      2 C2         8.9299    0.1558   -0.0276 C.ar      1 RES1    0.0000
      3 H1         9.4031   -0.5015    0.4290 H         1 RES1    0.0000
      4 C3         9.3966    0.6768   -1.2114 C.ar      1 RES1    0.0000
      5 H2        10.1998    0.3652   -1.5614 H         1 RES1    0.0000
      6 C4         8.6913    1.6640   -1.8975 C.ar      1 RES1    0.0000
      7 H3         9.0330    1.9963   -2.6958 H         1 RES1    0.0000
      8 C5         7.5011    2.1582   -1.4213 C.ar      1 RES1    0.0000
      9 H4         7.0403    2.8179   -1.8874 H         1 RES1    0.0000
     10 C6         6.9996    1.6445   -0.2179 C.ar      1 RES1    0.0000
     11 C7         5.8510    1.9336    0.5870 C.2       1 RES1    0.0000
     12 C8         5.9418    1.1463    1.6876 C.2       1 RES1    0.0000
     13 C9         5.0499    1.2378    2.8763 C.3       1 RES1    0.0000
     14 H5         4.4992    0.4297    2.9493 H         1 RES1    0.0000
     15 C10        3.6629    2.6844    1.4577 C.3       1 RES1    0.0000
     16 H6         3.0883    3.4643    1.4928 H         1 RES1    0.0000
     17 H7         3.1155    1.9293    1.1916 H         1 RES1    0.0000
     18 C11        4.7319    2.9141    0.3901 C.3       1 RES1    0.0000
     19 H8         4.3454    2.7984   -0.4919 H         1 RES1    0.0000
     20 H9         5.0735    3.8197    0.4557 H         1 RES1    0.0000
     21 C12        4.9454    3.5283    3.3852 C.3       1 RES1    0.0000
     22 H10        5.5183    3.9439    2.7072 H         1 RES1    0.0000
     23 C13        4.0342    4.5690    4.0088 C.2       1 RES1    0.0000
     24 C14        3.9476    6.8214    4.6812 C.3       1 RES1    0.0000
     25 H11        3.1276    6.9687    4.2038 H         1 RES1    0.0000
     26 H12        4.4854    7.6163    4.6480 H         1 RES1    0.0000
     27 H13        3.7506    6.6072    5.5955 H         1 RES1    0.0000
     28 C15        5.8006    2.8245    4.4387 C.3       1 RES1    0.0000
     29 C16        5.0911    1.8035    5.2671 C.3       1 RES1    0.0000
     30 H14        4.1174    1.7711    5.1590 H         1 RES1    0.0000
     31 C17        6.9806    3.5884    5.0074 C.2       1 RES1    0.0000
     32 C18        8.2769    3.6220    4.2951 C.ar      1 RES1    0.0000
     33 C19        8.4266    3.1867    2.9858 C.ar      1 RES1    0.0000
     34 H15        7.7040    2.8118    2.5356 H         1 RES1    0.0000
     35 C20        9.6440    3.3085    2.3520 C.ar      1 RES1    0.0000
     36 H16        9.7405    3.0236    1.4718 H         1 RES1    0.0000
     37 C21       10.7173    3.8501    3.0218 C.ar      1 RES1    0.0000
     38 H17       11.5391    3.9280    2.5909 H         1 RES1    0.0000
     39 C22       10.5857    4.2762    4.3186 C.ar      1 RES1    0.0000
     40 H18       11.3167    4.6377    4.7662 H         1 RES1    0.0000
     41 C23        9.3742    4.1708    4.9550 C.ar      1 RES1    0.0000
     42 H19        9.2853    4.4673    5.8320 H         1 RES1    0.0000
     43 C24        5.6072    1.3432    6.5823 C.ar      1 RES1    0.0000
     44 C25        6.8685    0.7865    6.7128 C.ar      1 RES1    0.0000
     45 H20        7.4249    0.7267    5.9692 H         1 RES1    0.0000
     46 C26        7.3076    0.3192    7.9340 C.ar      1 RES1    0.0000
     47 H21        8.1561   -0.0511    8.0225 H         1 RES1    0.0000
     48 C27        6.4682    0.4119    9.0152 C.ar      1 RES1    0.0000
     49 C28        5.2253    0.9884    8.9241 C.ar      1 RES1    0.0000
     50 H22        4.6800    1.0602    9.6735 H         1 RES1    0.0000
     51 C29        4.8028    1.4583    7.7009 C.ar      1 RES1    0.0000
     52 H23        3.9663    1.8575    7.6260 H         1 RES1    0.0000
     53 H24        7.3168   -0.2191    2.2268 H         1 RES1    0.0000
     54 N1         7.0539    0.3417    1.6142 N.pl3     1 RES1    0.0000
     55 N2         4.1928    2.4297    2.8025 N.3       1 RES1    0.0000
     56 N3         5.8817    1.3956    4.0827 N.3       1 RES1    0.0000
     57 N4         6.8997   -0.1350   10.3040 N.pl3     1 RES1    0.0000
     58 O1         2.9383    4.3727    4.4158 O.2       1 RES1    0.0000
     59 O2         4.6702    5.7230    4.0734 O.3       1 RES1    0.0000
     60 O3         6.7957    4.1995    6.0394 O.2       1 RES1    0.0000
     61 O4         8.0436   -0.5319   10.4136 O.2       1 RES1    0.0000
     62 O5         6.1070   -0.1546   11.2187 O.2       1 RES1    0.0000
@<TRIPOS>BOND
     1    1    2 ar
     2    2    3 1
     3    4    2 ar
     4    5    4 1
     5    6    4 ar
     6    7    6 1
     7    8    6 ar
     8    9    8 1
     9   10    1 ar
    10   11   10 1
    11   12   11 2
    12   13   12 1
    13   14   13 1
    14   15   16 1
    15   17   15 1
    16   18   11 1
    17   19   18 1
    18   20   18 1
    19   21   22 1
    20   23   21 1
    21   24   25 1
    22   26   24 1
    23   27   24 1
    24   28   21 1
    25   29   28 1
    26   30   29 1
    27   31   28 1
    28   32   31 1
    29   33   32 ar
    30   34   33 1
    31   35   33 ar
    32   36   35 1
    33   37   35 ar
    34   38   37 1
    35   39   37 ar
    36   40   39 1
    37   41   32 ar
    38   42   41 1
    39   43   29 1
    40   44   43 ar
    41   45   44 1
    42   46   44 ar
    43   47   46 1
    44   48   46 ar
    45   49   48 ar
    46   50   49 1
    47   51   43 ar
    48   52   51 1
    49   53   54 1
    50   54    1 1
    51   55   13 1
    52   56   13 1
    53   57   48 1
    54   58   23 2
    55   59   23 1
    56   60   31 2
    57   61   57 2
    58   62   57 2
    59    8   10 ar
    60   12   54 1
    61   15   18 1
    62   15   55 1
    63   21   55 1
    64   24   59 1
    65   28   56 1
    66   29   56 1
    67   39   41 ar
    68   49   51 ar
@<TRIPOS>SUBSTRUCTURE
     1 RES1 1

@<TRIPOS>CRYSIN
  10.9086   12.1724   19.3163  90.0000  99.2540  90.0000 231 1

