# MOL2 file generated by ConQuest
# Please check atom types

@<TRIPOS>MOLECULE
PEHGAL
    70    75     1
SMALL
NO_CHARGES
****
Generated from CSD

@<TRIPOS>ATOM
      1 O1         4.0608   11.6354    4.0761 O.2       1 RES1    0.0000
      2 O2         4.2096   14.1618    7.1731 O.2       1 RES1    0.0000
      3 O3         9.2230    8.7738    8.7880 O.2       1 RES1    0.0000
      4 O4         9.5911    6.9302    7.7235 O.2       1 RES1    0.0000
      5 O5        10.9660   10.7113    1.7206 O.3       1 RES1    0.0000
      6 N1         5.4496    9.8096    3.9823 N.am      1 RES1    0.0000
      7 N2         5.8892   13.7323    5.6804 N.am      1 RES1    0.0000
      8 N3         9.0551    8.0274    7.8245 N.pl3     1 RES1    0.0000
      9 C1         4.9987   10.9923    4.5039 C.2       1 RES1    0.0000
     10 C2         5.9034   11.3699    5.6840 C.3       1 RES1    0.0000
     11 C3         6.7070   10.1139    5.8653 C.ar      1 RES1    0.0000
     12 C4         7.5669    9.7290    6.8652 C.ar      1 RES1    0.0000
     13 H1         7.7500   10.2996    7.6025 H         1 RES1    0.0000
     14 C5         8.1606    8.4754    6.7601 C.ar      1 RES1    0.0000
     15 C6         7.9182    7.6298    5.6926 C.ar      1 RES1    0.0000
     16 H2         8.3547    6.7875    5.6467 H         1 RES1    0.0000
     17 C7         7.0426    8.0087    4.6955 C.ar      1 RES1    0.0000
     18 H3         6.8652    7.4364    3.9583 H         1 RES1    0.0000
     19 C8         6.4299    9.2433    4.7991 C.ar      1 RES1    0.0000
     20 C9         5.0924   11.9034    6.8658 C.3       1 RES1    0.0000
     21 H4         4.1979   11.4813    6.8956 H         1 RES1    0.0000
     22 H5         5.5587   11.7258    7.7209 H         1 RES1    0.0000
     23 C10        4.9746   13.3858    6.6201 C.2       1 RES1    0.0000
     24 C11        6.7351   12.6392    5.2236 C.3       1 RES1    0.0000
     25 H6         6.7835   12.6567    4.2256 H         1 RES1    0.0000
     26 C12        4.8751    9.2277    2.7632 C.3       1 RES1    0.0000
     27 H7         3.8874    9.2716    2.8153 H         1 RES1    0.0000
     28 H8         5.1346    8.2748    2.7040 H         1 RES1    0.0000
     29 C13        5.3463    9.9589    1.4990 C.3       1 RES1    0.0000
     30 H9         5.0810    9.4298    0.7052 H         1 RES1    0.0000
     31 H10        4.8866   10.8341    1.4444 H         1 RES1    0.0000
     32 C14        6.8319   10.1859    1.4586 C.ar      1 RES1    0.0000
     33 C15        7.3686   11.4605    1.4855 C.ar      1 RES1    0.0000
     34 H11        6.7802   12.2069    1.4767 H         1 RES1    0.0000
     35 C16        8.7383   11.6858    1.5259 C.ar      1 RES1    0.0000
     36 H12        9.0781   12.5736    1.5180 H         1 RES1    0.0000
     37 C17        9.6036   10.6082    1.5770 C.ar      1 RES1    0.0000
     38 C18        9.0915    9.3239    1.4995 C.ar      1 RES1    0.0000
     39 H13        9.6823    8.5804    1.4929 H         1 RES1    0.0000
     40 C19        7.7335    9.1195    1.4310 C.ar      1 RES1    0.0000
     41 H14        7.4005    8.2325    1.3637 H         1 RES1    0.0000
     42 C20       11.5233   12.0221    1.6709 C.3       1 RES1    0.0000
     43 H15       11.3281   12.4279    0.8003 H         1 RES1    0.0000
     44 H16       12.4941   11.9687    1.7961 H         1 RES1    0.0000
     45 H17       11.1315   12.5705    2.3829 H         1 RES1    0.0000
     46 C21        6.1300   15.1083    5.2911 C.3       1 RES1    0.0000
     47 H18        7.1071   15.2504    5.2250 H         1 RES1    0.0000
     48 H19        5.7912   15.7018    6.0074 H         1 RES1    0.0000
     49 C22        5.4926   15.5233    3.9789 C.ar      1 RES1    0.0000
     50 C23        5.9875   16.6325    3.3184 C.ar      1 RES1    0.0000
     51 H20        6.7274   17.1044    3.6819 H         1 RES1    0.0000
     52 C24        5.4177   17.0648    2.1322 C.ar      1 RES1    0.0000
     53 H21        5.7708   17.8253    1.6867 H         1 RES1    0.0000
     54 C25        4.3389   16.3918    1.5969 C.ar      1 RES1    0.0000
     55 H22        3.9495   16.6828    0.7805 H         1 RES1    0.0000
     56 C26        3.8335   15.2974    2.2549 C.ar      1 RES1    0.0000
     57 H23        3.0858   14.8351    1.8948 H         1 RES1    0.0000
     58 C27        4.4042   14.8610    3.4401 C.ar      1 RES1    0.0000
     59 H24        4.0454   14.1017    3.8847 H         1 RES1    0.0000
     60 C28        8.1421   12.7131    5.7928 C.ar      1 RES1    0.0000
     61 C29        9.2075   12.2163    5.0549 C.ar      1 RES1    0.0000
     62 H25        9.0500   11.8214    4.2059 H         1 RES1    0.0000
     63 C30       10.5053   12.2937    5.5500 C.ar      1 RES1    0.0000
     64 H26       11.2309   11.9640    5.0331 H         1 RES1    0.0000
     65 C31       10.7387   12.8477    6.7886 C.ar      1 RES1    0.0000
     66 H27       11.6252   12.9043    7.1252 H         1 RES1    0.0000
     67 C32        9.6866   13.3203    7.5388 C.ar      1 RES1    0.0000
     68 H28        9.8474   13.6911    8.3992 H         1 RES1    0.0000
     69 C33        8.3919   13.2582    7.0448 C.ar      1 RES1    0.0000
     70 H29        7.6714   13.5908    7.5666 H         1 RES1    0.0000
@<TRIPOS>BOND
     1    1    9 2
     2    2   23 2
     3    3    8 2
     4    4    8 2
     5    5   37 1
     6    6    9 1
     7    7   23 1
     8    8   14 1
     9    9   10 1
    10   10   11 1
    11   11   12 ar
    12   12   13 1
    13   14   12 ar
    14   15   14 ar
    15   16   15 1
    16   17   15 ar
    17   18   17 1
    18   19    6 1
    19   20   10 1
    20   21   20 1
    21   22   20 1
    22   23   20 1
    23   24    7 1
    24   25   24 1
    25   26    6 1
    26   27   26 1
    27   28   26 1
    28   29   26 1
    29   30   29 1
    30   31   29 1
    31   32   29 1
    32   33   32 ar
    33   34   33 1
    34   35   33 ar
    35   36   35 1
    36   37   35 ar
    37   38   37 ar
    38   39   38 1
    39   40   32 ar
    40   41   40 1
    41   42    5 1
    42   43   42 1
    43   44   42 1
    44   45   42 1
    45   46    7 1
    46   47   46 1
    47   48   46 1
    48   49   46 1
    49   50   49 ar
    50   51   50 1
    51   52   50 ar
    52   53   52 1
    53   54   52 ar
    54   55   54 1
    55   56   54 ar
    56   57   56 1
    57   58   49 ar
    58   59   58 1
    59   60   24 1
    60   61   60 ar
    61   62   61 1
    62   63   61 ar
    63   64   63 1
    64   65   63 ar
    65   66   65 1
    66   67   65 ar
    67   68   67 1
    68   69   60 ar
    69   70   69 1
    70   10   24 1
    71   11   19 ar
    72   17   19 ar
    73   38   40 ar
    74   56   58 ar
    75   67   69 ar
@<TRIPOS>SUBSTRUCTURE
     1 RES1 1

@<TRIPOS>CRYSIN
   9.6200   15.6720   18.2780  90.0000 100.9840  90.0000  14 1

