# MOL2 file generated by ConQuest
# Please check atom types

@<TRIPOS>MOLECULE
PEHMOE
    26    28     1
SMALL
NO_CHARGES
****
Generated from CSD

@<TRIPOS>ATOM
      1 O1        10.5042    0.1221   -1.1051 O.3       1 RES1    0.0000
      2 O2        13.6777    4.4707    0.9775 O.2       1 RES1    0.0000
      3 O3        13.0346   -0.4613    0.1706 O.3       1 RES1    0.0000
      4 N1         9.2703   -0.2068   -0.4703 N.2       1 RES1    0.0000
      5 N2        10.2327    1.5901    0.5441 N.2       1 RES1    0.0000
      6 N3        12.1479    1.7181   -0.8699 N.pl3     1 RES1    0.0000
      7 N4        13.5810    2.3016    1.5185 N.am      1 RES1    0.0000
      8 N5        13.5246   -0.1987   -1.1204 N.2       1 RES1    0.0000
      9 C1         9.1814    0.6983    0.4657 C.2       1 RES1    0.0000
     10 C2        10.9769    1.1765   -0.4257 C.2       1 RES1    0.0000
     11 C3        12.4850    3.0889   -0.5226 C.3       1 RES1    0.0000
     12 C4        13.2970    3.3177    0.7224 C.2       1 RES1    0.0000
     13 C5        14.3368    2.4605    2.7466 C.3       1 RES1    0.0000
     14 C6         8.0648    0.7078    1.4171 C.ar      1 RES1    0.0000
     15 C7         8.1912    1.4216    2.5929 C.ar      1 RES1    0.0000
     16 C8         7.1708    1.3664    3.5319 C.ar      1 RES1    0.0000
     17 C9         6.0544    0.6195    3.2999 C.ar      1 RES1    0.0000
     18 C10        5.9229   -0.0795    2.1333 C.ar      1 RES1    0.0000
     19 C11        6.9284   -0.0559    1.1727 C.ar      1 RES1    0.0000
     20 C12       13.0927    0.9146   -1.5769 C.2       1 RES1    0.0000
     21 C13       13.5466    1.3833   -2.8956 C.ar      1 RES1    0.0000
     22 C14       14.8296    1.1066   -3.3429 C.ar      1 RES1    0.0000
     23 C15       15.2139    1.5157   -4.5955 C.ar      1 RES1    0.0000
     24 C16       14.3476    2.2037   -5.4055 C.ar      1 RES1    0.0000
     25 C17       13.0719    2.4958   -4.9875 C.ar      1 RES1    0.0000
     26 C18       12.6935    2.0845   -3.7241 C.ar      1 RES1    0.0000
@<TRIPOS>BOND
     1    1    4 1
     2    2   12 2
     3    3    8 1
     4    4    9 2
     5    5    9 1
     6    6   10 1
     7    7   12 1
     8    8   20 2
     9    9   14 1
    10   10    1 1
    11   11    6 1
    12   12   11 1
    13   13    7 1
    14   14   15 ar
    15   15   16 ar
    16   16   17 ar
    17   17   18 ar
    18   18   19 ar
    19   19   14 ar
    20   20    6 1
    21   21   20 1
    22   22   21 ar
    23   23   22 ar
    24   24   23 ar
    25   25   24 ar
    26   26   21 ar
    27    5   10 2
    28   25   26 ar
@<TRIPOS>SUBSTRUCTURE
     1 RES1 1

@<TRIPOS>CRYSIN
  29.8000    7.3580   17.5900  90.0000 119.1000  90.0000  15 1

