# MOL2 file generated by ConQuest
# Please check atom types

@<TRIPOS>MOLECULE
PEHXAC
    16    16     1
SMALL
NO_CHARGES
****
Generated from CSD

@<TRIPOS>ATOM
      1 C1         6.5353    1.7137    5.2245 C.2       1 RES1    0.0000
      2 H1         6.2701    0.9757    5.7605 H         1 RES1    0.0000
      3 C2         7.7461    2.4205    5.5848 C.2       1 RES1    0.0000
      4 C3         8.5432    2.2064    6.6775 C.2       1 RES1    0.0000
      5 H2         8.3724    1.5604    7.3527 H         1 RES1    0.0000
      6 C4         9.4756    3.7701    5.5607 C.2       1 RES1    0.0000
      7 H3        10.0872    4.4418    5.2817 H         1 RES1    0.0000
      8 C5         7.9503    4.0281    3.6063 C.3       1 RES1    0.0000
      9 H4         8.6065    4.7018    3.3326 H         1 RES1    0.0000
     10 H5         7.0720    4.4502    3.7084 H         1 RES1    0.0000
     11 H6         7.8982    3.3266    2.9237 H         1 RES1    0.0000
     12 N1         5.8022    2.0269    4.2256 N.2       1 RES1    0.0000
     13 N2         9.6214    3.0510    6.6634 N.2       1 RES1    0.0000
     14 N3         8.3581    3.4396    4.8780 N.3       1 RES1    0.0000
     15 O1         4.7005    1.1610    4.1437 O.3       1 RES1    0.0000
     16 H7         4.2680    1.4500    3.3146 H         1 RES1    0.0000
@<TRIPOS>BOND
     1    1    2 1
     2    3    1 1
     3    4    3 2
     4    5    4 1
     5    6    7 1
     6    8    9 1
     7   10    8 1
     8   11    8 1
     9   12    1 2
    10   13    4 1
    11   14    3 1
    12   15   12 1
    13   16   15 1
    14    6   13 2
    15    6   14 1
    16    8   14 1
@<TRIPOS>SUBSTRUCTURE
     1 RES1 1

@<TRIPOS>CRYSIN
  14.0523    9.3550    9.5194  90.0000  97.2430  90.0000  15 1

