# MOL2 file generated by ConQuest
# Please check atom types

@<TRIPOS>MOLECULE
PEHXEG
    26    27     1
SMALL
NO_CHARGES
****
Generated from CSD

@<TRIPOS>ATOM
      1 C1         0.9591    0.7734    6.4441 C.2       1 RES1    0.0000
      2 H1         0.4831    1.0953    7.2013 H         1 RES1    0.0000
      3 C2         2.0059    1.5942    5.8924 C.2       1 RES1    0.0000
      4 C3         2.4133    2.8324    6.3099 C.2       1 RES1    0.0000
      5 H2         2.0169    3.3198    7.0220 H         1 RES1    0.0000
      6 C4         3.6962    2.3085    4.6910 C.2       1 RES1    0.0000
      7 H3         4.3829    2.3387    4.0345 H         1 RES1    0.0000
      8 C5         2.8909    0.0257    4.0656 C.3       1 RES1    0.0000
      9 H4         2.7933   -0.7368    4.6878 H         1 RES1    0.0000
     10 H5         3.7808   -0.0487    3.6375 H         1 RES1    0.0000
     11 C6         1.8311   -0.0821    2.9997 C.ar      1 RES1    0.0000
     12 C7         1.4960    0.9824    2.1828 C.ar      1 RES1    0.0000
     13 H6         1.9153    1.8250    2.3119 H         1 RES1    0.0000
     14 C8         0.5543    0.8317    1.1761 C.ar      1 RES1    0.0000
     15 H7         0.3247    1.5724    0.6276 H         1 RES1    0.0000
     16 C9        -0.0503   -0.3905    0.9693 C.ar      1 RES1    0.0000
     17 H8        -0.6823   -0.4957    0.2690 H         1 RES1    0.0000
     18 C10        0.2639   -1.4582    1.7813 C.ar      1 RES1    0.0000
     19 H9        -0.1599   -2.2976    1.6490 H         1 RES1    0.0000
     20 C11        1.2022   -1.3050    2.7970 C.ar      1 RES1    0.0000
     21 H10        1.4148   -2.0424    3.3557 H         1 RES1    0.0000
     22 N1         0.6419   -0.3626    5.9663 N.2       1 RES1    0.0000
     23 N2         3.4731    3.2736    5.5574 N.2       1 RES1    0.0000
     24 N3         2.8441    1.2707    4.8354 N.3       1 RES1    0.0000
     25 O1        -0.4064   -0.9309    6.7066 O.3       1 RES1    0.0000
     26 H11       -0.6349   -1.7006    6.2183 H         1 RES1    0.0000
@<TRIPOS>BOND
     1    1    2 1
     2    3    1 1
     3    4    3 2
     4    5    4 1
     5    6    7 1
     6    8    9 1
     7   10    8 1
     8   11    8 1
     9   12   11 ar
    10   13   12 1
    11   14   12 ar
    12   15   14 1
    13   16   14 ar
    14   17   16 1
    15   18   16 ar
    16   19   18 1
    17   20   11 ar
    18   21   20 1
    19   22    1 2
    20   23    4 1
    21   24    3 1
    22   25   22 1
    23   26   25 1
    24    6   23 2
    25    6   24 1
    26    8   24 1
    27   18   20 ar
@<TRIPOS>SUBSTRUCTURE
     1 RES1 1

@<TRIPOS>CRYSIN
   4.9800    6.4126   32.0202  90.0000  90.0000  90.0000  19 1

