# MOL2 file generated by ConQuest
# Please check atom types

@<TRIPOS>MOLECULE
PEHXUW
    36    36     2
SMALL
NO_CHARGES
****
Generated from CSD

@<TRIPOS>ATOM
      1 C1        11.7766   -2.5629   12.3729 C.3       1 RES1    0.0000
      2 H1        11.9100   -3.5333   12.3867 H         1 RES1    0.0000
      3 H2        12.4681   -2.1454   11.8182 H         1 RES1    0.0000
      4 H3        10.8926   -2.3605   12.0019 H         1 RES1    0.0000
      5 C2        13.0031   -1.8291   14.4624 C.2       1 RES1    0.0000
      6 H4        13.8939   -1.9988   14.1804 H         1 RES1    0.0000
      7 C3        12.6162   -1.3343   15.6583 C.2       1 RES1    0.0000
      8 H5        13.2018   -1.0909   16.3661 H         1 RES1    0.0000
      9 C4        10.8266   -1.6706   14.5167 C.2       1 RES1    0.0000
     10 C5         9.4211   -1.7034   14.1091 C.2       1 RES1    0.0000
     11 C6         6.7900    1.0887   15.7853 C.3       2 RES2    0.0000
     12 H6         7.3784    1.7428   15.3550 H         2 RES2    0.0000
     13 H7         5.8963    1.1408   15.3868 H         2 RES2    0.0000
     14 H8         7.1535    0.1875   15.6558 H         2 RES2    0.0000
     15 C7         5.6000    1.2085   18.0093 C.2       2 RES2    0.0000
     16 H9         4.7427    0.9027   17.7360 H         2 RES2    0.0000
     17 C8         5.9713    1.5612   19.2619 C.2       2 RES2    0.0000
     18 H10        5.4061    1.5419   20.0258 H         2 RES2    0.0000
     19 C9         7.6963    1.8299   18.0086 C.2       2 RES2    0.0000
     20 C10        9.0673    2.0755   17.5525 C.2       2 RES2    0.0000
     21 N1        11.8636   -2.0394   13.7363 N.pl3     1 RES1    0.0000
     22 N2        11.2438   -1.2353   15.6959 N.2       1 RES1    0.0000
     23 N3         8.7069   -0.7588   13.6287 N.2       1 RES1    0.0000
     24 N4         8.6902   -2.9737   14.2983 N.pl3     1 RES1    0.0000
     25 N5         6.7032    1.3783   17.2130 N.pl3     2 RES2    0.0000
     26 N6         7.2889    1.9528   19.2638 N.2       2 RES2    0.0000
     27 N7         9.9274    1.2404   17.1096 N.2       2 RES2    0.0000
     28 N8         9.5513    3.4635   17.5725 N.pl3     2 RES2    0.0000
     29 O1         9.3994    0.3977   13.4827 O.3       1 RES1    0.0000
     30 O2         9.3828   -3.9622   14.5301 O.2       1 RES1    0.0000
     31 O3         7.4698   -2.9867   14.2330 O.2       1 RES1    0.0000
     32 O4         9.4617   -0.0321   17.1032 O.3       2 RES2    0.0000
     33 O5         8.7006    4.3481   17.5210 O.2       2 RES2    0.0000
     34 O6        10.7557    3.6676   17.6331 O.2       2 RES2    0.0000
     35 H11        8.7549    0.9868   13.0810 H         1 RES1    0.0000
     36 H12       10.2153   -0.4391   16.6829 H         2 RES2    0.0000
@<TRIPOS>BOND
     1    1    2 1
     2    3    1 1
     3    4    1 1
     4    5    6 1
     5    7    5 2
     6    8    7 1
     7    9   10 1
     8   10   23 2
     9   11   12 1
    10   13   11 1
    11   14   11 1
    12   15   16 1
    13   17   15 2
    14   18   17 1
    15   19   20 1
    16   20   27 2
    17   21    1 1
    18   22    7 1
    19   23   29 1
    20   24   10 1
    21   25   11 1
    22   26   17 1
    23   27   32 1
    24   28   20 1
    25   29   35 1
    26   30   24 2
    27   31   24 2
    28   32   36 1
    29   33   28 2
    30   34   28 2
    31    5   21 1
    32    9   21 1
    33    9   22 2
    34   15   25 1
    35   19   25 1
    36   19   26 2
@<TRIPOS>SUBSTRUCTURE
     1 RES1 1
     2 RES2 11

@<TRIPOS>CRYSIN
  13.6524    7.4416   14.4976  90.0000  93.8230  90.0000  14 1

