# MOL2 file generated by ConQuest
# Please check atom types

@<TRIPOS>MOLECULE
PEHXIK
    13    13     1
SMALL
NO_CHARGES
****
Generated from CSD

@<TRIPOS>ATOM
      1 C1         3.4644    0.4271    6.6096 C.2       1 RES1    0.0000
      2 N1         3.1922    1.6306    7.1118 N.2       1 RES1    0.0000
      3 C2         2.0146    2.0183    6.5277 C.2       1 RES1    0.0000
      4 H1         1.5668    2.8399    6.6927 H         1 RES1    0.0000
      5 C3         1.5821    1.0456    5.6726 C.2       1 RES1    0.0000
      6 H2         0.7927    1.0606    5.1441 H         1 RES1    0.0000
      7 N2         2.5115    0.0462    5.7298 N.pl3     1 RES1    0.0000
      8 H3         2.4931   -0.7080    5.2767 H         1 RES1    0.0000
      9 C4         4.6529   -0.3137    6.9815 C.2       1 RES1    0.0000
     10 H4         5.2281    0.1185    7.6022 H         1 RES1    0.0000
     11 N3         5.0345   -1.4743    6.5870 N.2       1 RES1    0.0000
     12 O1         4.1375   -2.0579    5.7142 O.3       1 RES1    0.0000
     13 H5         4.5955   -2.8148    5.3968 H         1 RES1    0.0000
@<TRIPOS>BOND
     1    1    2 2
     2    2    3 1
     3    3    4 1
     4    5    3 2
     5    6    5 1
     6    7    1 1
     7    8    7 1
     8    9    1 1
     9   10    9 1
    10   11    9 2
    11   12   11 1
    12   13   12 1
    13    5    7 1
@<TRIPOS>SUBSTRUCTURE
     1 RES1 1

@<TRIPOS>CRYSIN
   7.1805    7.1805   10.3586  90.0000  90.0000  90.0000  78 1

