# MOL2 file generated by ConQuest
# Please check atom types

@<TRIPOS>MOLECULE
PEHZOR
    36    37     1
SMALL
NO_CHARGES
****
Generated from CSD

@<TRIPOS>ATOM
      1 O1         3.8987   -2.0595   16.8073 O.2       1 RES1    0.0000
      2 O2        -0.3054    2.4211   18.5853 O.2       1 RES1    0.0000
      3 O3        -0.7931    0.4335   19.1482 O.2       1 RES1    0.0000
      4 O4        -2.4768    2.6769   13.1477 O.3       1 RES1    0.0000
      5 N1        -0.0748    1.2470   18.6309 N.pl3     1 RES1    0.0000
      6 C1         3.2450   -1.1001   17.1317 C.2       1 RES1    0.0000
      7 C2         3.3798   -0.4468   18.4836 C.3       1 RES1    0.0000
      8 C3         1.9898   -0.0781   19.0413 C.3       1 RES1    0.0000
      9 C4         1.2364    0.7642   18.0242 C.3       1 RES1    0.0000
     10 C5         0.9326   -0.0544   16.7757 C.3       1 RES1    0.0000
     11 C6         2.2968   -0.4458   16.1515 C.3       1 RES1    0.0000
     12 C7         4.1675   -1.2912   19.4744 C.3       1 RES1    0.0000
     13 C8         0.0444    0.6543   15.7833 C.ar      1 RES1    0.0000
     14 C9         0.4168    1.8181   15.1239 C.ar      1 RES1    0.0000
     15 C10       -0.4308    2.4725   14.2542 C.ar      1 RES1    0.0000
     16 C11       -1.7008    1.9435   14.0035 C.ar      1 RES1    0.0000
     17 C12       -2.0794    0.7745   14.6137 C.ar      1 RES1    0.0000
     18 C13       -1.2302    0.1428   15.4992 C.ar      1 RES1    0.0000
     19 C14       -3.7779    2.1890   12.8532 C.3       1 RES1    0.0000
     20 H1         3.8270    0.4612   18.3118 H         1 RES1    0.0000
     21 H2        -1.4717   -0.6934   15.9621 H         1 RES1    0.0000
     22 H3         1.4998   -0.9491   19.2447 H         1 RES1    0.0000
     23 H4         2.0841    0.4499   19.8444 H         1 RES1    0.0000
     24 H5         1.6595    1.5531   17.7121 H         1 RES1    0.0000
     25 H6         0.5197   -0.9799   17.0598 H         1 RES1    0.0000
     26 H7         2.7643    0.4160   15.8359 H         1 RES1    0.0000
     27 H8         2.1714   -1.1063   15.3273 H         1 RES1    0.0000
     28 H9         4.1332   -0.8988   20.4055 H         1 RES1    0.0000
     29 H10        3.7304   -2.2116   19.6497 H         1 RES1    0.0000
     30 H11        5.1289   -1.4103   19.0518 H         1 RES1    0.0000
     31 H12        1.1850    2.2249   15.3536 H         1 RES1    0.0000
     32 H13       -0.1363    3.2757   13.7404 H         1 RES1    0.0000
     33 H14       -2.9310    0.3554   14.4015 H         1 RES1    0.0000
     34 H15       -4.1067    2.7919   12.2096 H         1 RES1    0.0000
     35 H16       -4.3841    2.1386   13.6492 H         1 RES1    0.0000
     36 H17       -3.7319    1.2717   12.4148 H         1 RES1    0.0000
@<TRIPOS>BOND
     1    1    6 2
     2    2    5 2
     3    3    5 2
     4    4   16 1
     5    5    9 1
     6    6    7 1
     7    7    8 1
     8    8    9 1
     9    9   10 1
    10   10   11 1
    11   11    6 1
    12   12    7 1
    13   13   10 1
    14   14   13 ar
    15   15   14 ar
    16   16   15 ar
    17   17   16 ar
    18   18   13 ar
    19   19    4 1
    20   20    7 1
    21   21   18 1
    22   22    8 1
    23   23    8 1
    24   24    9 1
    25   25   10 1
    26   26   11 1
    27   27   11 1
    28   28   12 1
    29   29   12 1
    30   30   12 1
    31   31   14 1
    32   32   15 1
    33   33   17 1
    34   34   19 1
    35   35   19 1
    36   36   19 1
    37   17   18 ar
@<TRIPOS>SUBSTRUCTURE
     1 RES1 1

@<TRIPOS>CRYSIN
   7.7911   10.2720   17.5350  90.0000  90.0000  90.0000  19 1

