# MOL2 file generated by ConQuest
# Please check atom types

@<TRIPOS>MOLECULE
PEJBAJ
    21    22     1
SMALL
NO_CHARGES
****
Generated from CSD

@<TRIPOS>ATOM
      1 C1         0.3613    7.8892    2.7886 C.3       1 RES1    0.0000
      2 N1         1.0606    7.7604    4.0600 N.am      1 RES1    0.0000
      3 C2         1.4279    9.0057    4.6315 C.2       1 RES1    0.0000
      4 O1         1.1759    9.9395    3.7223 O.3       1 RES1    0.0000
      5 C3         0.6622    9.3727    2.4956 C.3       1 RES1    0.0000
      6 H1         1.3324    9.4521    1.7711 H         1 RES1    0.0000
      7 H2        -0.1626    9.8436    2.2162 H         1 RES1    0.0000
      8 N2        -1.0419    7.5267    2.8628 N.am      1 RES1    0.0000
      9 C4        -1.3983    6.4242    2.0418 C.2       1 RES1    0.0000
     10 O2        -0.2804    6.0200    1.4379 O.3       1 RES1    0.0000
     11 C5         0.8046    6.9480    1.6526 C.3       1 RES1    0.0000
     12 H3         0.9855    7.4643    0.8276 H         1 RES1    0.0000
     13 H4         1.6288    6.4620    1.9092 H         1 RES1    0.0000
     14 N3         1.2565    6.5421    4.6914 N.pl3     1 RES1    0.0000
     15 O3         1.9382    6.5198    5.6922 O.2       1 RES1    0.0000
     16 O4         0.7081    5.5868    4.1507 O.2       1 RES1    0.0000
     17 O5         1.8608    9.2093    5.7169 O.2       1 RES1    0.0000
     18 N4        -1.9682    8.2981    3.5456 N.pl3     1 RES1    0.0000
     19 O6        -3.1366    8.1776    3.2383 O.2       1 RES1    0.0000
     20 O7        -1.5028    9.0356    4.3981 O.2       1 RES1    0.0000
     21 O8        -2.4661    5.9154    1.9358 O.2       1 RES1    0.0000
@<TRIPOS>BOND
     1    1    2 1
     2    2    3 1
     3    3    4 1
     4    4    5 1
     5    5    1 1
     6    6    5 1
     7    7    5 1
     8    8    1 1
     9    9    8 1
    10   10    9 1
    11   11    1 1
    12   12   11 1
    13   13   11 1
    14   14    2 1
    15   15   14 2
    16   16   14 2
    17   17    3 2
    18   18    8 1
    19   19   18 2
    20   20   18 2
    21   21    9 2
    22   10   11 1
@<TRIPOS>SUBSTRUCTURE
     1 RES1 1

@<TRIPOS>CRYSIN
   6.8288   12.0470   10.6290  90.0000  91.6970  90.0000 231 1

