# MOL2 file generated by ConQuest
# Please check atom types

@<TRIPOS>MOLECULE
PEJBEN
    63    66     3
SMALL
NO_CHARGES
****
Generated from CSD

@<TRIPOS>ATOM
      1 N1         4.8663   17.0647   -0.6339 N.am      1 RES1    0.0000
      2 N2         4.6622   18.4529   -0.6721 N.pl3     1 RES1    0.0000
      3 O1         4.0711   18.9472    0.2596 O.2       1 RES1    0.0000
      4 O2         5.1005   19.0053   -1.6707 O.2       1 RES1    0.0000
      5 C1         4.6759   16.2775    0.5238 C.2       1 RES1    0.0000
      6 O3         4.3889   16.6302    1.6182 O.2       1 RES1    0.0000
      7 O4         4.8827   15.0096    0.1594 O.3       1 RES1    0.0000
      8 C2         5.2300   14.8992   -1.2352 C.3       1 RES1    0.0000
      9 H1         4.5012   14.4560   -1.7388 H         1 RES1    0.0000
     10 H2         6.0580   14.3686   -1.3447 H         1 RES1    0.0000
     11 C3         5.4416   16.3410   -1.7481 C.3       1 RES1    0.0000
     12 C4         4.8156   16.5991   -3.1354 C.3       1 RES1    0.0000
     13 H3         4.6033   15.7426   -3.5865 H         1 RES1    0.0000
     14 H4         3.9828   17.1279   -3.0478 H         1 RES1    0.0000
     15 O5         5.8080   17.3341   -3.8826 O.3       1 RES1    0.0000
     16 C5         6.9916   17.3828   -3.2486 C.2       1 RES1    0.0000
     17 O6         7.9559   17.9288   -3.6576 O.2       1 RES1    0.0000
     18 N3         6.8251   16.7078   -2.0299 N.am      1 RES1    0.0000
     19 N4         7.8217   16.6038   -1.0581 N.pl3     1 RES1    0.0000
     20 O7         7.4436   16.2836    0.0570 O.2       1 RES1    0.0000
     21 O8         8.9545   16.8296   -1.4017 O.2       1 RES1    0.0000
     22 N5         5.1670   17.9202    4.7710 N.am      2 RES2    0.0000
     23 N6         4.1862   18.3615    3.8691 N.pl3     2 RES2    0.0000
     24 O9         4.4704   19.2890    3.1431 O.2       2 RES2    0.0000
     25 O10        3.1321   17.7668    3.9325 O.2       2 RES2    0.0000
     26 C6         6.4388   18.5099    4.8836 C.2       2 RES2    0.0000
     27 O11        6.8340   19.4808    4.3178 O.2       2 RES2    0.0000
     28 O12        7.1285   17.8073    5.7724 O.3       2 RES2    0.0000
     29 C7         6.3566   16.7082    6.2965 C.3       2 RES2    0.0000
     30 H5         6.1608   16.8524    7.2561 H         2 RES2    0.0000
     31 H6         6.8573   15.8604    6.2006 H         2 RES2    0.0000
     32 C8         5.0526   16.6525    5.4892 C.3       2 RES2    0.0000
     33 C9         3.7896   16.4695    6.3509 C.3       2 RES2    0.0000
     34 H7         4.0321   16.1284    7.2482 H         2 RES2    0.0000
     35 H8         3.3177   17.3332    6.4581 H         2 RES2    0.0000
     36 O13        2.9533   15.5254    5.6687 O.3       2 RES2    0.0000
     37 C10        3.5937   14.9505    4.6466 C.2       2 RES2    0.0000
     38 O14        3.1335   14.1423    3.9144 O.2       2 RES2    0.0000
     39 N7         4.8882   15.4933    4.6187 N.am      2 RES2    0.0000
     40 N8         5.8526   15.1449    3.6651 N.pl3     2 RES2    0.0000
     41 O15        5.6827   14.1100    3.0569 O.2       2 RES2    0.0000
     42 O16        6.7943   15.9073    3.5677 O.2       2 RES2    0.0000
     43 N9         6.9203   21.6658    2.3050 N.am      3 RES3    0.0000
     44 N10        5.8121   21.7660    1.4750 N.pl3     3 RES3    0.0000
     45 O17        4.8286   22.3256    1.9146 O.2       3 RES3    0.0000
     46 O18        5.9491   21.2761    0.3656 O.2       3 RES3    0.0000
     47 C11        7.0648   22.3975    3.5075 C.2       3 RES3    0.0000
     48 O19        6.2827   23.1397    4.0174 O.2       3 RES3    0.0000
     49 O20        8.2785   22.1306    3.9879 O.3       3 RES3    0.0000
     50 C12        8.9566   21.1240    3.2138 C.3       3 RES3    0.0000
     51 H9         9.0196   20.2787    3.7251 H         3 RES3    0.0000
     52 H10        9.8716   21.4228    2.9825 H         3 RES3    0.0000
     53 C13        8.1121   20.9216    1.9311 C.3       3 RES3    0.0000
     54 C14        7.8819   19.4441    1.5546 C.3       3 RES3    0.0000
     55 H11        8.5662   18.8687    1.9804 H         3 RES3    0.0000
     56 H12        6.9868   19.1461    1.8556 H         3 RES3    0.0000
     57 O21        7.9826   19.3668    0.1131 O.3       3 RES3    0.0000
     58 O22        8.9799   23.4288    1.4712 O.2       3 RES3    0.0000
     59 N11        8.7518   21.3640    0.6921 N.am      3 RES3    0.0000
     60 O23        9.7244   22.9708   -0.5290 O.2       3 RES3    0.0000
     61 N12        9.1764   22.6928    0.5195 N.pl3     3 RES3    0.0000
     62 C15        8.4984   20.4933   -0.4028 C.2       3 RES3    0.0000
     63 O24        8.6833   20.6900   -1.5528 O.2       3 RES3    0.0000
@<TRIPOS>BOND
     1    1    2 1
     2    2    3 2
     3    4    2 2
     4    5    1 1
     5    6    5 2
     6    7    5 1
     7    8    7 1
     8    9    8 1
     9   10    8 1
    10   11    1 1
    11   12   11 1
    12   13   12 1
    13   14   12 1
    14   15   12 1
    15   16   15 1
    16   17   16 2
    17   18   11 1
    18   19   18 1
    19   20   19 2
    20   21   19 2
    21   22   23 1
    22   23   24 2
    23   25   23 2
    24   26   22 1
    25   27   26 2
    26   28   26 1
    27   29   28 1
    28   30   29 1
    29   31   29 1
    30   32   22 1
    31   33   32 1
    32   34   33 1
    33   35   33 1
    34   36   33 1
    35   37   36 1
    36   38   37 2
    37   39   32 1
    38   40   39 1
    39   41   40 2
    40   42   40 2
    41   43   44 1
    42   44   45 2
    43   46   44 2
    44   47   43 1
    45   48   47 2
    46   49   47 1
    47   50   49 1
    48   51   50 1
    49   52   50 1
    50   53   43 1
    51   54   53 1
    52   55   54 1
    53   56   54 1
    54   57   54 1
    55   58   61 2
    56   59   53 1
    57   60   61 2
    58   61   59 1
    59   62   57 1
    60   63   62 2
    61    8   11 1
    62   16   18 1
    63   29   32 1
    64   37   39 1
    65   50   53 1
    66   59   62 1
@<TRIPOS>SUBSTRUCTURE
     1 RES1 1
     2 RES2 22
     3 RES3 43

@<TRIPOS>CRYSIN
   6.8491   19.0036   19.8039  90.0000  90.0000  90.0000  19 1

