# MOL2 file generated by ConQuest
# Please check atom types

@<TRIPOS>MOLECULE
PEKBAI
    80    86     2
SMALL
NO_CHARGES
****
Generated from CSD

@<TRIPOS>ATOM
      1 C1         1.5970    9.4225   -3.6254 C.2       1 RES1    0.0000
      2 C2         0.6931    9.9595   -4.6026 C.2       1 RES1    0.0000
      3 C3        -0.5507    9.4406   -4.7892 C.2       1 RES1    0.0000
      4 C4        -1.1090    8.2801   -4.1309 C.2       1 RES1    0.0000
      5 C5        -0.3114    7.8014   -3.1824 C.2       1 RES1    0.0000
      6 O1        -0.4728    6.5646   -2.5915 O.3       1 RES1    0.0000
      7 C6         0.7596    6.2307   -2.0161 C.ar      1 RES1    0.0000
      8 C7         1.0273    5.0039   -1.3759 C.ar      1 RES1    0.0000
      9 C8         2.3224    4.9234   -0.8005 C.ar      1 RES1    0.0000
     10 C9         3.2851    5.9210   -0.9041 C.ar      1 RES1    0.0000
     11 C10        2.9300    7.1136   -1.5748 C.ar      1 RES1    0.0000
     12 C11        1.6539    7.2524   -2.1147 C.ar      1 RES1    0.0000
     13 C12        0.9172    8.4611   -2.6441 C.3       1 RES1    0.0000
     14 O2         2.7648    9.7443   -3.4816 O.2       1 RES1    0.0000
     15 C13        0.8374   10.9429   -5.6317 C.2       1 RES1    0.0000
     16 C14        2.0109   11.7997   -5.9333 C.3       1 RES1    0.0000
     17 N1        -0.2336   11.0214   -6.3558 N.2       1 RES1    0.0000
     18 O3        -1.1583   10.0520   -5.8051 O.3       1 RES1    0.0000
     19 C15        0.0930    3.8977   -1.2739 C.2       1 RES1    0.0000
     20 O4         0.4254    2.8559   -0.6797 O.2       1 RES1    0.0000
     21 C16       -1.2666    3.9540   -1.8665 C.3       1 RES1    0.0000
     22 O5         2.6793    3.8112   -0.1093 O.3       1 RES1    0.0000
     23 C17        4.6428    5.7782   -0.2959 C.3       1 RES1    0.0000
     24 O6         3.8605    8.0810   -1.6685 O.3       1 RES1    0.0000
     25 C18        0.4975    9.4084   -1.4654 C.3       1 RES1    0.0000
     26 C19        4.8802    3.3305    5.2593 C.2       2 RES2    0.0000
     27 C20        4.4282    2.1862    5.9752 C.2       2 RES2    0.0000
     28 C21        3.2053    1.6271    5.7196 C.2       2 RES2    0.0000
     29 C22        2.2255    2.0695    4.7941 C.2       2 RES2    0.0000
     30 C23        2.6281    3.1355    4.0865 C.2       2 RES2    0.0000
     31 O7         1.8040    3.9218    3.3328 O.3       2 RES2    0.0000
     32 C24        2.4743    5.1265    3.1364 C.ar      2 RES2    0.0000
     33 C25        1.9388    6.2227    2.4353 C.ar      2 RES2    0.0000
     34 C26        2.8389    7.3027    2.2964 C.ar      2 RES2    0.0000
     35 C27        4.1244    7.3389    2.8577 C.ar      2 RES2    0.0000
     36 C28        4.5745    6.2046    3.5292 C.ar      2 RES2    0.0000
     37 C29        3.7427    5.0944    3.6468 C.ar      2 RES2    0.0000
     38 C30        4.0276    3.6544    4.0339 C.3       2 RES2    0.0000
     39 O8         5.9189    3.9560    5.4763 O.2       2 RES2    0.0000
     40 C31        4.9371    1.4843    7.1259 C.2       2 RES2    0.0000
     41 C32        6.2018    1.6934    7.8689 C.3       2 RES2    0.0000
     42 N2         4.0845    0.5551    7.4924 N.2       2 RES2    0.0000
     43 O9         2.9623    0.6396    6.5925 O.3       2 RES2    0.0000
     44 C33        0.6057    6.2649    1.8575 C.2       2 RES2    0.0000
     45 O10        0.2526    7.2604    1.1975 O.2       2 RES2    0.0000
     46 C34       -0.3722    5.1607    2.0654 C.3       2 RES2    0.0000
     47 O11        2.4762    8.3968    1.5846 O.3       2 RES2    0.0000
     48 C35        5.0036    8.5396    2.6860 C.3       2 RES2    0.0000
     49 O12        5.8239    6.2126    4.0273 O.3       2 RES2    0.0000
     50 C36        4.7567    2.9404    2.8471 C.3       2 RES2    0.0000
     51 H1        -1.9957    7.8819   -4.3635 H         1 RES1    0.0000
     52 H2         2.7800   11.5946   -5.2478 H         1 RES1    0.0000
     53 H3         2.3489   11.6006   -6.9072 H         1 RES1    0.0000
     54 H4         1.7356   12.8093   -5.8585 H         1 RES1    0.0000
     55 H5        -1.7698    3.0530   -1.6750 H         1 RES1    0.0000
     56 H6        -1.8021    4.7505   -1.4400 H         1 RES1    0.0000
     57 H7        -1.1906    4.0988   -2.9038 H         1 RES1    0.0000
     58 H8         2.0204    3.1294   -0.0386 H         1 RES1    0.0000
     59 H9         4.7264    4.8349    0.1562 H         1 RES1    0.0000
     60 H10        5.3739    5.8747   -1.0438 H         1 RES1    0.0000
     61 H11        4.7833    6.5263    0.4282 H         1 RES1    0.0000
     62 H12        3.6212    8.8835   -2.1189 H         1 RES1    0.0000
     63 H13        1.3501    9.8810   -1.0750 H         1 RES1    0.0000
     64 H14       -0.1728   10.1344   -1.8213 H         1 RES1    0.0000
     65 H15        0.0342    8.8432   -0.7109 H         1 RES1    0.0000
     66 H16        1.3330    1.6351    4.6815 H         2 RES2    0.0000
     67 H17        6.7430    2.4758    7.4250 H         2 RES2    0.0000
     68 H18        5.9853    1.9408    8.8658 H         2 RES2    0.0000
     69 H19        6.7734    0.8125    7.8426 H         2 RES2    0.0000
     70 H20       -1.2685    5.3880    1.5665 H         2 RES2    0.0000
     71 H21        0.0228    4.2658    1.6841 H         2 RES2    0.0000
     72 H22       -0.5621    5.0501    3.0920 H         2 RES2    0.0000
     73 H23        1.6065    8.3726    1.2049 H         2 RES2    0.0000
     74 H24        4.4833    9.2817    2.1567 H         2 RES2    0.0000
     75 H25        5.2789    8.9096    3.6295 H         2 RES2    0.0000
     76 H26        5.8657    8.2680    2.1517 H         2 RES2    0.0000
     77 H27        6.1315    5.4383    4.4851 H         2 RES2    0.0000
     78 H28        5.7461    3.2863    2.7854 H         2 RES2    0.0000
     79 H29        4.7586    1.9026    3.0106 H         2 RES2    0.0000
     80 H30        4.2554    3.1536    1.9495 H         2 RES2    0.0000
@<TRIPOS>BOND
     1    1    2 1
     2    2    3 2
     3    3    4 1
     4    4    5 2
     5    5    6 1
     6    6    7 1
     7    7    8 ar
     8    8    9 ar
     9    9   10 ar
    10   10   11 ar
    11   11   12 ar
    12   12    7 ar
    13   13    1 1
    14   14    1 2
    15   15    2 1
    16   16   15 1
    17   17   15 2
    18   18    3 1
    19   19    8 1
    20   20   19 2
    21   21   19 1
    22   22    9 1
    23   23   10 1
    24   24   11 1
    25   25   13 1
    26   26   27 1
    27   27   28 2
    28   28   29 1
    29   29   30 2
    30   30   31 1
    31   31   32 1
    32   32   33 ar
    33   33   34 ar
    34   34   35 ar
    35   35   36 ar
    36   36   37 ar
    37   37   32 ar
    38   38   26 1
    39   39   26 2
    40   40   27 1
    41   41   40 1
    42   42   40 2
    43   43   28 1
    44   44   33 1
    45   45   44 2
    46   46   44 1
    47   47   34 1
    48   48   35 1
    49   49   36 1
    50   50   38 1
    51   51    4 1
    52   52   16 1
    53   53   16 1
    54   54   16 1
    55   55   21 1
    56   56   21 1
    57   57   21 1
    58   58   22 1
    59   59   23 1
    60   60   23 1
    61   61   23 1
    62   62   24 1
    63   63   25 1
    64   64   25 1
    65   65   25 1
    66   66   29 1
    67   67   41 1
    68   68   41 1
    69   69   41 1
    70   70   46 1
    71   71   46 1
    72   72   46 1
    73   73   47 1
    74   74   48 1
    75   75   48 1
    76   76   48 1
    77   77   49 1
    78   78   50 1
    79   79   50 1
    80   80   50 1
    81    5   13 1
    82   12   13 1
    83   17   18 1
    84   30   38 1
    85   37   38 1
    86   42   43 1
@<TRIPOS>SUBSTRUCTURE
     1 RES1 1
     2 RES2 26

@<TRIPOS>CRYSIN
  18.9890   20.1120    8.2190  90.0000  90.0000  90.0000  19 1

