# MOL2 file generated by ConQuest
# Please check atom types

@<TRIPOS>MOLECULE
PEKBEM
    80    86     2
SMALL
NO_CHARGES
****
Generated from CSD

@<TRIPOS>ATOM
      1 C1         4.3495    3.0415   -1.6513 C.2       1 RES1    0.0000
      2 C2         4.2388    4.1695   -0.9411 C.2       1 RES1    0.0000
      3 C3         5.2083    5.2581   -1.0079 C.2       1 RES1    0.0000
      4 C4         6.4255    4.9407   -1.7944 C.2       1 RES1    0.0000
      5 C5         6.4927    3.7951   -2.4283 C.2       1 RES1    0.0000
      6 O1         7.6919    3.2658   -2.8945 O.3       1 RES1    0.0000
      7 C6         7.5182    1.8734   -2.9577 C.ar      1 RES1    0.0000
      8 C7         8.5501    0.9712   -3.2198 C.ar      1 RES1    0.0000
      9 C8         8.1121   -0.3902   -3.2547 C.ar      1 RES1    0.0000
     10 C9         6.7855   -0.7974   -3.0601 C.ar      1 RES1    0.0000
     11 C10        5.8232    0.1875   -2.8451 C.ar      1 RES1    0.0000
     12 C11        6.2010    1.5167   -2.7551 C.ar      1 RES1    0.0000
     13 C12        5.3934    2.7747   -2.6919 C.3       1 RES1    0.0000
     14 O2         3.3456    2.2162   -1.3928 O.3       1 RES1    0.0000
     15 C13        3.0432    4.0141   -0.1794 C.2       1 RES1    0.0000
     16 C14        2.4107    4.9500    0.8002 C.3       1 RES1    0.0000
     17 N1         2.5025    2.8530   -0.4255 N.2       1 RES1    0.0000
     18 O3         5.0664    6.2935   -0.3703 O.2       1 RES1    0.0000
     19 C15        9.9405    1.3242   -3.4755 C.2       1 RES1    0.0000
     20 O4        10.7592    0.4193   -3.7507 O.2       1 RES1    0.0000
     21 C16       10.4167    2.7388   -3.4145 C.3       1 RES1    0.0000
     22 O5         9.0175   -1.3674   -3.4929 O.3       1 RES1    0.0000
     23 C17        6.4321   -2.2605   -3.1676 C.3       1 RES1    0.0000
     24 O6         4.5054   -0.0508   -2.7311 O.3       1 RES1    0.0000
     25 C18        4.7374    3.0399   -4.0971 C.3       1 RES1    0.0000
     26 C19        0.1849   -3.4242   -0.9890 C.2       2 RES2    0.0000
     27 C20        1.2664   -3.4104   -1.7893 C.2       2 RES2    0.0000
     28 C21        2.1683   -2.2836   -1.8880 C.2       2 RES2    0.0000
     29 C22        1.7609   -1.0774   -1.1713 C.2       2 RES2    0.0000
     30 C23        0.6592   -1.1340   -0.4226 C.2       2 RES2    0.0000
     31 O7         0.0000    0.0000    0.0000 O.3       2 RES2    0.0000
     32 C24       -1.3326   -0.3627    0.2041 C.ar      2 RES2    0.0000
     33 C25       -2.3704    0.5566    0.4313 C.ar      2 RES2    0.0000
     34 C26       -3.6461   -0.0818    0.5715 C.ar      2 RES2    0.0000
     35 C27       -3.8586   -1.4466    0.5170 C.ar      2 RES2    0.0000
     36 C28       -2.7569   -2.2834    0.3021 C.ar      2 RES2    0.0000
     37 C29       -1.4931   -1.7190    0.1176 C.ar      2 RES2    0.0000
     38 C30       -0.1279   -2.3531   -0.0080 C.3       2 RES2    0.0000
     39 O8        -0.4403   -4.5833   -1.0464 O.3       2 RES2    0.0000
     40 C31        1.2472   -4.7034   -2.4261 C.2       2 RES2    0.0000
     41 C32        2.1801   -5.2205   -3.4580 C.3       2 RES2    0.0000
     42 N2         0.2420   -5.4124   -2.0100 N.2       2 RES2    0.0000
     43 O9         3.1743   -2.3216   -2.6266 O.2       2 RES2    0.0000
     44 C33       -2.2126    1.9863    0.5061 C.2       2 RES2    0.0000
     45 O10       -3.2331    2.7018    0.6986 O.2       2 RES2    0.0000
     46 C34       -0.9089    2.6618    0.3435 C.3       2 RES2    0.0000
     47 O11       -4.7321    0.7100    0.8184 O.3       2 RES2    0.0000
     48 C35       -5.2405   -2.0220    0.6848 C.3       2 RES2    0.0000
     49 O12       -2.8240   -3.6258    0.2491 O.3       2 RES2    0.0000
     50 C36        0.3585   -2.8347    1.3972 C.3       2 RES2    0.0000
     51 H1         7.1841    5.5915   -1.8401 H         1 RES1    0.0000
     52 H2         2.9837    5.8268    0.8663 H         1 RES1    0.0000
     53 H3         1.4405    5.1893    0.4793 H         1 RES1    0.0000
     54 H4         2.3643    4.4907    1.7435 H         1 RES1    0.0000
     55 H5        11.4441    2.7724   -3.6294 H         1 RES1    0.0000
     56 H6         9.8934    3.3149   -4.1188 H         1 RES1    0.0000
     57 H7        10.2484    3.1239   -2.4523 H         1 RES1    0.0000
     58 H8         9.9174   -1.0908   -3.6250 H         1 RES1    0.0000
     59 H9         7.3056   -2.8203   -3.3288 H         1 RES1    0.0000
     60 H10        5.9732   -2.5765   -2.2773 H         1 RES1    0.0000
     61 H11        5.7716   -2.4030   -3.9714 H         1 RES1    0.0000
     62 H12        4.2463   -0.9628   -2.7929 H         1 RES1    0.0000
     63 H13        3.9811    2.3323   -4.2692 H         1 RES1    0.0000
     64 H14        4.3237    4.0053   -4.1138 H         1 RES1    0.0000
     65 H15        5.4691    2.9598   -4.8457 H         1 RES1    0.0000
     66 H16        2.2928   -0.2332   -1.2403 H         2 RES2    0.0000
     67 H17        2.9183   -4.5008   -3.6541 H         2 RES2    0.0000
     68 H18        2.6340   -6.1017   -3.1102 H         2 RES2    0.0000
     69 H19        1.6481   -5.4260   -4.3396 H         2 RES2    0.0000
     70 H20       -1.0389    3.6997    0.4372 H         2 RES2    0.0000
     71 H21       -0.2452    2.3235    1.0834 H         2 RES2    0.0000
     72 H22       -0.5168    2.4423   -0.6056 H         2 RES2    0.0000
     73 H23       -4.5864    1.6480    0.8562 H         2 RES2    0.0000
     74 H24       -5.9285   -1.2432    0.8351 H         2 RES2    0.0000
     75 H25       -5.5035   -2.5586   -0.1786 H         2 RES2    0.0000
     76 H26       -5.2534   -2.6648    1.5148 H         2 RES2    0.0000
     77 H27       -3.6841   -4.0102    0.3747 H         2 RES2    0.0000
     78 H28       -0.1895   -3.6828    1.6854 H         2 RES2    0.0000
     79 H29        1.3795   -3.0767    1.3500 H         2 RES2    0.0000
     80 H30        0.2118   -2.0685    2.1001 H         2 RES2    0.0000
@<TRIPOS>BOND
     1    1    2 2
     2    2    3 1
     3    3    4 1
     4    4    5 2
     5    5    6 1
     6    6    7 1
     7    7    8 ar
     8    8    9 ar
     9    9   10 ar
    10   10   11 ar
    11   11   12 ar
    12   12    7 ar
    13   13    1 1
    14   14    1 1
    15   15    2 1
    16   16   15 1
    17   17   14 1
    18   18    3 2
    19   19    8 1
    20   20   19 2
    21   21   19 1
    22   22    9 1
    23   23   10 1
    24   24   11 1
    25   25   13 1
    26   26   27 2
    27   27   28 1
    28   28   29 1
    29   29   30 2
    30   30   31 1
    31   31   32 1
    32   32   33 ar
    33   33   34 ar
    34   34   35 ar
    35   35   36 ar
    36   36   37 ar
    37   37   32 ar
    38   38   26 1
    39   39   26 1
    40   40   27 1
    41   41   40 1
    42   42   39 1
    43   43   28 2
    44   44   33 1
    45   45   44 2
    46   46   44 1
    47   47   34 1
    48   48   35 1
    49   49   36 1
    50   50   38 1
    51   51    4 1
    52   52   16 1
    53   53   16 1
    54   54   16 1
    55   55   21 1
    56   56   21 1
    57   57   21 1
    58   58   22 1
    59   59   23 1
    60   60   23 1
    61   61   23 1
    62   62   24 1
    63   63   25 1
    64   64   25 1
    65   65   25 1
    66   66   29 1
    67   67   41 1
    68   68   41 1
    69   69   41 1
    70   70   46 1
    71   71   46 1
    72   72   46 1
    73   73   47 1
    74   74   48 1
    75   75   48 1
    76   76   48 1
    77   77   49 1
    78   78   50 1
    79   79   50 1
    80   80   50 1
    81    5   13 1
    82   12   13 1
    83   15   17 2
    84   30   38 1
    85   37   38 1
    86   40   42 2
@<TRIPOS>SUBSTRUCTURE
     1 RES1 1
     2 RES2 26

@<TRIPOS>CRYSIN
   9.9870   11.3930    7.8690 102.3800 108.7200  89.7600   1 1

