# MOL2 file generated by ConQuest
# Please check atom types

@<TRIPOS>MOLECULE
PEKSAZ
    30    32     1
SMALL
USER_CHARGES
****
Generated from CSD

@<TRIPOS>ATOM
      1 C1         7.1601   12.2909    2.9569 C.ar      1 RES1    1.0000
      2 N1         5.9573   11.7084    3.1117 N.ar      1 RES1    0.0000
      3 N2         6.2243   10.4166    3.0845 N.pl3     1 RES1    0.0000
      4 N3         7.5385   10.2312    2.9265 N.pl3     1 RES1    0.0000
      5 N4         8.1525   11.3801    2.8209 N.ar      1 RES1    0.0000
      6 N5         7.2873   13.6503    2.9090 N.2       1 RES1    0.0000
      7 N6         8.5356   13.9824    3.0405 N.2       1 RES1   -1.0000
      8 O1         8.7539   15.2215    3.0068 O.2       1 RES1    0.0000
      9 C2         5.2288    9.3792    3.1927 C.ar      1 RES1    0.0000
     10 C3         4.4672    9.3529    4.3538 C.ar      1 RES1    0.0000
     11 C4         3.5172    8.3418    4.4626 C.ar      1 RES1    0.0000
     12 C5         3.3618    7.4172    3.4582 C.ar      1 RES1    0.0000
     13 C6         4.1186    7.4936    2.3197 C.ar      1 RES1    0.0000
     14 C7         5.0733    8.4947    2.1436 C.ar      1 RES1    0.0000
     15 C8         8.2420    8.9708    2.8624 C.ar      1 RES1    0.0000
     16 C9         8.0693    8.0424    3.8429 C.ar      1 RES1    0.0000
     17 C10        8.8073    6.8684    3.7561 C.ar      1 RES1    0.0000
     18 C11        9.7085    6.6755    2.7303 C.ar      1 RES1    0.0000
     19 C12        9.8718    7.6427    1.7718 C.ar      1 RES1    0.0000
     20 C13        9.1339    8.8217    1.8172 C.ar      1 RES1    0.0000
     21 H1         4.6085   10.0821    5.1329 H         1 RES1    0.0000
     22 H2         2.8954    8.2817    5.3459 H         1 RES1    0.0000
     23 H3         2.6317    6.6291    3.5637 H         1 RES1    0.0000
     24 H4         3.9742    6.7556    1.5335 H         1 RES1    0.0000
     25 H5         5.6606    8.5698    1.2453 H         1 RES1    0.0000
     26 H6         7.3831    8.2140    4.6556 H         1 RES1    0.0000
     27 H7         8.6785    6.0941    4.5066 H         1 RES1    0.0000
     28 H8        10.2895    5.7658    2.6765 H         1 RES1    0.0000
     29 H9        10.5784    7.4848    0.9733 H         1 RES1    0.0000
     30 H10        9.2563    9.5859    1.0627 H         1 RES1    0.0000
@<TRIPOS>BOND
     1    1    2 ar
     2    2    3 ar
     3    3    4 ar
     4    4    5 ar
     5    5    1 ar
     6    6    1 1
     7    7    6 un
     8    8    7 un
     9    9    3 1
    10   10    9 ar
    11   11   10 ar
    12   12   11 ar
    13   13   12 ar
    14   14    9 ar
    15   15    4 1
    16   16   15 ar
    17   17   16 ar
    18   18   17 ar
    19   19   18 ar
    20   20   15 ar
    21   21   10 1
    22   22   11 1
    23   23   12 1
    24   24   13 1
    25   25   14 1
    26   26   16 1
    27   27   17 1
    28   28   18 1
    29   29   19 1
    30   30   20 1
    31   13   14 ar
    32   19   20 ar
@<TRIPOS>SUBSTRUCTURE
     1 RES1 1

@<TRIPOS>CRYSIN
  15.7020   12.5290    6.4760  90.0000  90.0000  90.0000  33 1

