# MOL2 file generated by ConQuest
# Please check atom types

@<TRIPOS>MOLECULE
PELDOA
    27    29     1
SMALL
NO_CHARGES
****
Generated from CSD

@<TRIPOS>ATOM
      1 N1         4.0155    2.4934    0.6836 N.pl3     1 RES1    0.0000
      2 C1         5.2066    2.7368   -1.4063 C.ar      1 RES1    0.0000
      3 H1         4.4332    2.4038   -1.8448 H         1 RES1    0.0000
      4 N2         6.2283    3.7892    1.9923 N.pl3     1 RES1    0.0000
      5 C2         7.4527    3.5465   -1.4659 C.ar      1 RES1    0.0000
      6 H2         8.2429    3.7328   -1.9591 H         1 RES1    0.0000
      7 O1         2.9293    2.8134    0.2022 O.2       1 RES1    0.0000
      8 C3         6.2856    3.4815    0.6182 C.ar      1 RES1    0.0000
      9 C4         6.7206    4.4183    4.0490 C.ar      1 RES1    0.0000
     10 O2         4.1531    1.8303    1.6700 O.2       1 RES1    0.0000
     11 C5         7.4280    3.7993   -0.1084 C.ar      1 RES1    0.0000
     12 H3         8.1812    4.1850    0.3233 H         1 RES1    0.0000
     13 C6         5.3902    4.7484    3.7306 C.2       1 RES1    0.0000
     14 H4         4.7859    5.1681    4.3312 H         1 RES1    0.0000
     15 N3         5.0888    4.4031    2.4962 N.2       1 RES1    0.0000
     16 C7         5.2213    2.9434   -0.0469 C.ar      1 RES1    0.0000
     17 C8         9.3180    3.5169    3.9669 C.ar      1 RES1    0.0000
     18 H5        10.2192    3.2157    3.9591 H         1 RES1    0.0000
     19 C9         7.2265    3.7849    2.9210 C.ar      1 RES1    0.0000
     20 C10        8.5272    3.2901    2.8653 C.ar      1 RES1    0.0000
     21 H6         8.8511    2.8206    2.1065 H         1 RES1    0.0000
     22 C11        7.5362    4.6220    5.1535 C.ar      1 RES1    0.0000
     23 H7         7.2051    5.0583    5.9299 H         1 RES1    0.0000
     24 C12        8.8330    4.1778    5.0959 C.ar      1 RES1    0.0000
     25 H8         9.4099    4.3222    5.8361 H         1 RES1    0.0000
     26 C13        6.3645    3.0337   -2.1163 C.ar      1 RES1    0.0000
     27 H9         6.3993    2.8798   -3.0538 H         1 RES1    0.0000
@<TRIPOS>BOND
     1    1    7 2
     2    2    3 1
     3    4    8 1
     4    5    6 1
     5    8   11 ar
     6    9   13 1
     7   10    1 2
     8   11    5 ar
     9   12   11 1
    10   13   14 1
    11   15    4 1
    12   16    1 1
    13   17   18 1
    14   19    4 1
    15   20   17 ar
    16   21   20 1
    17   22    9 ar
    18   23   22 1
    19   24   17 ar
    20   25   24 1
    21   26    2 ar
    22   27   26 1
    23    2   16 ar
    24    5   26 ar
    25    8   16 ar
    26    9   19 ar
    27   13   15 2
    28   19   20 ar
    29   22   24 ar
@<TRIPOS>SUBSTRUCTURE
     1 RES1 1

@<TRIPOS>CRYSIN
   7.5190    7.2230   10.0490  90.0000 103.6310  90.0000   4 1

