# MOL2 file generated by ConQuest
# Please check atom types

@<TRIPOS>MOLECULE
PELDAM
    96   102     2
SMALL
NO_CHARGES
****
Generated from CSD

@<TRIPOS>ATOM
      1 N1         9.4434    7.8756   13.0825 N.2       1 RES1    0.0000
      2 O1         8.9311    7.8219   14.3860 O.3       1 RES1    0.0000
      3 C1         9.7045    8.7623   15.2378 C.3       1 RES1    0.0000
      4 C2         8.8765   10.0267   15.3886 C.3       1 RES1    0.0000
      5 H1         8.6512   10.3718   14.4893 H         1 RES1    0.0000
      6 H2         9.4206   10.7145   15.8487 H         1 RES1    0.0000
      7 C3         7.5884    9.8108   16.1726 C.3       1 RES1    0.0000
      8 H3         7.1269   10.6769   16.2994 H         1 RES1    0.0000
      9 H4         6.9857    9.2104   15.6650 H         1 RES1    0.0000
     10 C4         7.9034    9.1946   17.5257 C.3       1 RES1    0.0000
     11 H5         8.4591    9.8207   18.0530 H         1 RES1    0.0000
     12 H6         7.0614    9.0375   18.0219 H         1 RES1    0.0000
     13 C5         8.6431    7.8810   17.3517 C.3       1 RES1    0.0000
     14 H7         8.0615    7.2371   16.8760 H         1 RES1    0.0000
     15 H8         8.8540    7.5028   18.2424 H         1 RES1    0.0000
     16 C6         9.9334    8.0722   16.5657 C.3       1 RES1    0.0000
     17 H9        10.5649    8.6099   17.1063 H         1 RES1    0.0000
     18 H10       10.3481    7.1878   16.4040 H         1 RES1    0.0000
     19 C7        10.9789    9.0104   14.4272 C.3       1 RES1    0.0000
     20 H11       11.2207    9.9698   14.4102 H         1 RES1    0.0000
     21 H12       11.7426    8.4855   14.7762 H         1 RES1    0.0000
     22 C8        10.5458    8.5254   13.0766 C.2       1 RES1    0.0000
     23 C9        11.3056    8.6752   11.8433 C.2       1 RES1    0.0000
     24 O2        10.6826    8.0557   10.7795 O.3       1 RES1    0.0000
     25 C10       11.2149    8.4755    9.5115 C.3       1 RES1    0.0000
     26 H13       10.9559    9.4266    9.3459 H         1 RES1    0.0000
     27 C11       12.7270    8.3669    9.5209 C.3       1 RES1    0.0000
     28 H14       12.9993    7.4455    9.7980 H         1 RES1    0.0000
     29 O3        14.6694    9.2327   10.7564 O.3       1 RES1    0.0000
     30 H15       14.7845    8.5852   11.2789 H         1 RES1    0.0000
     31 C12       13.2892    9.3835   10.4907 C.3       1 RES1    0.0000
     32 H16       13.1571   10.2888   10.0877 H         1 RES1    0.0000
     33 C13       12.4630    9.3217   11.7479 C.2       1 RES1    0.0000
     34 H17       12.7883    9.7713   12.5181 H         1 RES1    0.0000
     35 C14       10.6243    7.6055    8.4254 C.3       1 RES1    0.0000
     36 H18       10.8188    6.6525    8.6083 H         1 RES1    0.0000
     37 H19        9.6426    7.7240    8.3878 H         1 RES1    0.0000
     38 O4        11.2148    8.0004    7.1898 O.3       1 RES1    0.0000
     39 C15       12.6287    7.8740    7.1609 C.3       1 RES1    0.0000
     40 O5        13.2195    8.6445    8.2160 O.3       1 RES1    0.0000
     41 C16       13.0700    6.4144    7.2137 C.3       1 RES1    0.0000
     42 H20       12.5517    5.8930    6.5664 H         1 RES1    0.0000
     43 H21       12.9188    6.0599    8.1151 H         1 RES1    0.0000
     44 H22       14.0235    6.3532    6.9946 H         1 RES1    0.0000
     45 C17       13.0881    8.5437    5.8883 C.3       1 RES1    0.0000
     46 H23       12.7985    9.4800    5.8896 H         1 RES1    0.0000
     47 H24       12.6980    8.0825    5.1166 H         1 RES1    0.0000
     48 H25       14.0656    8.5052    5.8330 H         1 RES1    0.0000
     49 N2         3.3091    7.4144   13.0716 N.2       2 RES2    0.0000
     50 O6         2.7650    7.5010   14.3610 O.3       2 RES2    0.0000
     51 C18        3.6097    6.7228   15.2975 C.3       2 RES2    0.0000
     52 C19        2.8656    5.4360   15.6062 C.3       2 RES2    0.0000
     53 H26        3.4361    4.8560   16.1694 H         2 RES2    0.0000
     54 H27        2.6823    4.9538   14.7606 H         2 RES2    0.0000
     55 C20        1.5475    5.7024   16.3300 C.3       2 RES2    0.0000
     56 H28        0.9458    6.2229   15.7413 H         2 RES2    0.0000
     57 H29        1.1044    4.8422   16.5397 H         2 RES2    0.0000
     58 C21        1.7925    6.4708   17.6113 C.3       2 RES2    0.0000
     59 H30        2.3418    5.9216   18.2254 H         2 RES2    0.0000
     60 H31        0.9273    6.6554   18.0559 H         2 RES2    0.0000
     61 C22        2.5073    7.7843   17.3277 C.3       2 RES2    0.0000
     62 H32        2.7108    8.2386   18.1830 H         2 RES2    0.0000
     63 H33        1.9118    8.3748   16.8011 H         2 RES2    0.0000
     64 C23        3.8042    7.5561   16.5558 C.3       2 RES2    0.0000
     65 H34        4.1881    8.4341   16.3051 H         2 RES2    0.0000
     66 H35        4.4551    7.1008   17.1473 H         2 RES2    0.0000
     67 C24        4.8981    6.4806   14.5098 C.3       2 RES2    0.0000
     68 H36        5.6355    7.0554   14.8341 H         2 RES2    0.0000
     69 H37        5.1786    5.5325   14.5543 H         2 RES2    0.0000
     70 C25        4.4706    6.8633   13.1282 C.2       2 RES2    0.0000
     71 C26        5.2930    6.7831   11.9282 C.2       2 RES2    0.0000
     72 O7         4.5535    6.8961   10.7711 O.3       2 RES2    0.0000
     73 C27        5.3252    7.4033    9.6728 C.3       2 RES2    0.0000
     74 H38        5.5327    8.3679    9.8362 H         2 RES2    0.0000
     75 C28        6.6209    6.6398    9.5089 C.3       2 RES2    0.0000
     76 H39        6.4267    5.6668    9.3798 H         2 RES2    0.0000
     77 O8         8.5443    5.8752   10.7503 O.3       2 RES2    0.0000
     78 H40        9.2457    6.2426   11.0316 H         2 RES2    0.0000
     79 C29        7.4824    6.8308   10.7267 C.3       2 RES2    0.0000
     80 H41        7.8804    7.7477   10.6925 H         2 RES2    0.0000
     81 C30        6.6211    6.7290   11.9565 C.2       2 RES2    0.0000
     82 H42        7.0494    6.6199   12.7979 H         2 RES2    0.0000
     83 C31        4.5084    7.2809    8.4144 C.3       2 RES2    0.0000
     84 H43        4.2641    6.3345    8.2592 H         2 RES2    0.0000
     85 H44        3.6752    7.8090    8.4980 H         2 RES2    0.0000
     86 O9         5.2869    7.7689    7.3235 O.3       2 RES2    0.0000
     87 C32        6.5395    7.1110    7.1517 C.3       2 RES2    0.0000
     88 O10        7.2998    7.1507    8.3696 O.3       2 RES2    0.0000
     89 C33        6.3584    5.6956    6.6465 C.3       2 RES2    0.0000
     90 H45        5.8469    5.1780    7.3026 H         2 RES2    0.0000
     91 H46        7.2368    5.2807    6.5155 H         2 RES2    0.0000
     92 H47        5.8745    5.7123    5.7949 H         2 RES2    0.0000
     93 C34        7.3152    7.9620    6.1816 C.3       2 RES2    0.0000
     94 H48        8.2034    7.5719    6.0436 H         2 RES2    0.0000
     95 H49        7.4094    8.8677    6.5438 H         2 RES2    0.0000
     96 H50        6.8381    7.9996    5.3272 H         2 RES2    0.0000
@<TRIPOS>BOND
     1    1    2 1
     2    2    3 1
     3    3    4 1
     4    4    5 1
     5    6    4 1
     6    7    4 1
     7    8    7 1
     8    9    7 1
     9   10    7 1
    10   11   10 1
    11   12   10 1
    12   13   10 1
    13   14   13 1
    14   15   13 1
    15   16    3 1
    16   17   16 1
    17   18   16 1
    18   19    3 1
    19   20   19 1
    20   21   19 1
    21   22    1 2
    22   23   22 1
    23   24   23 1
    24   25   24 1
    25   26   25 1
    26   27   25 1
    27   28   27 1
    28   29   30 1
    29   31   27 1
    30   32   31 1
    31   33   23 2
    32   34   33 1
    33   35   25 1
    34   36   35 1
    35   37   35 1
    36   38   35 1
    37   39   38 1
    38   40   27 1
    39   41   39 1
    40   42   41 1
    41   43   41 1
    42   44   41 1
    43   45   39 1
    44   46   45 1
    45   47   45 1
    46   48   45 1
    47   49   50 1
    48   50   51 1
    49   51   52 1
    50   52   53 1
    51   54   52 1
    52   55   52 1
    53   56   55 1
    54   57   55 1
    55   58   55 1
    56   59   58 1
    57   60   58 1
    58   61   58 1
    59   62   61 1
    60   63   61 1
    61   64   51 1
    62   65   64 1
    63   66   64 1
    64   67   51 1
    65   68   67 1
    66   69   67 1
    67   70   49 2
    68   71   70 1
    69   72   71 1
    70   73   72 1
    71   74   73 1
    72   75   73 1
    73   76   75 1
    74   77   78 1
    75   79   75 1
    76   80   79 1
    77   81   71 2
    78   82   81 1
    79   83   73 1
    80   84   83 1
    81   85   83 1
    82   86   83 1
    83   87   86 1
    84   88   75 1
    85   89   87 1
    86   90   89 1
    87   91   89 1
    88   92   89 1
    89   93   87 1
    90   94   93 1
    91   95   93 1
    92   96   93 1
    93   13   16 1
    94   19   22 1
    95   29   31 1
    96   31   33 1
    97   39   40 1
    98   61   64 1
    99   67   70 1
   100   77   79 1
   101   79   81 1
   102   87   88 1
@<TRIPOS>SUBSTRUCTURE
     1 RES1 1
     2 RES2 49

@<TRIPOS>CRYSIN
  11.9680    9.8760   14.2330  90.0000  96.8830  90.0000   4 1

