# MOL2 file generated by ConQuest
# Please check atom types

@<TRIPOS>MOLECULE
PELDOC
    45    40     3
SMALL
NO_CHARGES
****
Generated from CSD

@<TRIPOS>ATOM
      1 C1         6.1792   10.4999   21.8455 C.3       1 RES1    0.0000
      2 C2         7.1003   10.2443   20.6819 C.3       1 RES1    0.0000
      3 C3         6.4137   10.3678   19.3502 C.3       1 RES1    0.0000
      4 N1         9.3772   10.8755   20.1481 N.pl3     1 RES1    0.0000
      5 N2         7.0087    9.1148   23.6324 N.pl3     1 RES1    0.0000
      6 N3         5.2746   12.1044   18.1635 N.pl3     1 RES1    0.0000
      7 N4         6.7785   10.3255   23.1325 N.3       1 RES1    0.0000
      8 O1         8.1688   11.2089   20.8066 O.3       1 RES1    0.0000
      9 O2         9.4153    9.8626   19.5318 O.2       1 RES1    0.0000
     10 O3        10.2141   11.7261   20.2985 O.2       1 RES1    0.0000
     11 O4         7.4734    9.0560   24.7782 O.2       1 RES1    0.0000
     12 O5         6.7292    8.1338   22.9460 O.2       1 RES1    0.0000
     13 O6         5.9397   11.7374   19.3230 O.3       1 RES1    0.0000
     14 O7         5.1642   11.2831   17.3372 O.2       1 RES1    0.0000
     15 O8         4.9347   13.2728   18.1649 O.2       1 RES1    0.0000
     16 H1         5.8598   11.4420   21.7968 H         1 RES1    0.0000
     17 H2         5.3082    9.9395   21.8103 H         1 RES1    0.0000
     18 H3         7.4592    9.4472   20.7198 H         1 RES1    0.0000
     19 H4         6.9794   10.2935   18.6810 H         1 RES1    0.0000
     20 H5         5.5458    9.9395   19.1416 H         1 RES1    0.0000
     21 H6         6.9864   10.8894   23.6662 H         1 RES1    0.0000
     22 C4         2.9148    6.2132   13.2284 C.3       2 RES2    0.0000
     23 C5         4.3566    5.9136   13.5901 C.3       2 RES2    0.0000
     24 C6         4.6522    5.9853   15.0613 C.3       2 RES2    0.0000
     25 N5         2.6370    5.9533   11.8412 N.3       2 RES2    0.0000
     26 N6         6.4473    6.5431   12.5714 N.pl3     2 RES2    0.0000
     27 N7         2.3489    4.7305   11.4254 N.pl3     2 RES2    0.0000
     28 N8         4.5442    7.7314   16.6842 N.pl3     2 RES2    0.0000
     29 O9         4.2161    7.4188   15.3648 O.3       2 RES2    0.0000
     30 O10        5.1316    6.9179   12.8776 O.3       2 RES2    0.0000
     31 O11        6.8200    5.4766   12.9385 O.2       2 RES2    0.0000
     32 O12        7.0459    7.3920   11.9854 O.2       2 RES2    0.0000
     33 O13        2.5230    3.7962   12.2178 O.2       2 RES2    0.0000
     34 O14        1.9612    4.6062   10.2712 O.2       2 RES2    0.0000
     35 O15        3.8151    8.3937   17.3209 O.2       2 RES2    0.0000
     36 O16        5.1639    7.0405   17.3020 O.2       2 RES2    0.0000
     37 H7         2.3847    6.4075   11.4064 H         2 RES2    0.0000
     38 H8         2.2407    5.7081   13.7906 H         2 RES2    0.0000
     39 H9         2.7679    7.0984   13.3300 H         2 RES2    0.0000
     40 H10        4.6528    4.9913   13.3707 H         2 RES2    0.0000
     41 H11        5.6186    5.8203   15.1724 H         2 RES2    0.0000
     42 H12        4.2833    5.2072   15.4569 H         2 RES2    0.0000
     43 O17        3.8449    6.8713   15.7847 Du        3 SUP3    0.0000
     44 O18        4.4188    9.0051   16.8089 Du        3 SUP3    0.0000
     45 O19        5.6823    7.5621   16.7872 Du        3 SUP3    0.0000
@<TRIPOS>BOND
     1    1    2 1
     2    2    3 1
     3    3   13 1
     4    4    8 1
     5    5    7 1
     6    6   13 1
     7    7    1 1
     8    8    2 1
     9    9    4 2
    10   10    4 2
    11   11    5 2
    12   12    5 2
    13   14    6 2
    14   15    6 2
    15   16    1 1
    16   17    1 1
    17   18    2 1
    18   19    3 1
    19   20    3 1
    20   21    7 1
    21   22   23 1
    22   23   24 1
    23   24   29 1
    24   25   22 1
    25   26   30 1
    26   27   25 1
    27   28   29 1
    28   30   23 1
    29   31   26 2
    30   32   26 2
    31   33   27 2
    32   34   27 2
    33   35   28 2
    34   36   28 2
    35   37   25 1
    36   38   22 1
    37   39   22 1
    38   40   23 1
    39   41   24 1
    40   42   24 1
@<TRIPOS>SUBSTRUCTURE
     1 RES1 1
     2 RES2 22
     3 SUP3 43

@<TRIPOS>CRYSIN
   7.1363    8.6355   13.7048  90.0000  98.7090  90.0000   4 1

