# MOL2 file generated by ConQuest
# Please check atom types

@<TRIPOS>MOLECULE
PELFES
    30    32     1
SMALL
NO_CHARGES
****
Generated from CSD

@<TRIPOS>ATOM
      1 N1         3.8364    7.6711    8.1202 N.pl3     1 RES1    0.0000
      2 C1         3.0082    6.9096    8.9185 C.2       1 RES1    0.0000
      3 N2         2.0087    7.5880    9.4092 N.2       1 RES1    0.0000
      4 C2         2.1610    8.8762    8.9094 C.ar      1 RES1    0.0000
      5 C3         1.3696   10.0110    9.0939 C.ar      1 RES1    0.0000
      6 H1         0.6093    9.9781    9.6472 H         1 RES1    0.0000
      7 C4         1.7649   11.1722    8.4707 C.ar      1 RES1    0.0000
      8 H2         1.2434   11.9667    8.5832 H         1 RES1    0.0000
      9 C5         2.9100   11.2296    7.6772 C.ar      1 RES1    0.0000
     10 H3         3.1542   12.0673    7.2455 H         1 RES1    0.0000
     11 C6         3.7060   10.1149    7.4721 C.ar      1 RES1    0.0000
     12 H4         4.4693   10.1472    6.9314 H         1 RES1    0.0000
     13 C7         3.3010    8.9515    8.1032 C.ar      1 RES1    0.0000
     14 C8         4.9318    7.2229    7.3318 C.ar      1 RES1    0.0000
     15 C9         6.2214    7.6247    7.6290 C.ar      1 RES1    0.0000
     16 H5         6.3673    8.1819    8.4008 H         1 RES1    0.0000
     17 C10        7.2815    7.1883    6.8615 C.ar      1 RES1    0.0000
     18 H6         8.1809    7.4590    7.0732 H         1 RES1    0.0000
     19 C11        7.0766    6.3252    5.7984 C.ar      1 RES1    0.0000
     20 H7         7.7775    6.0372    5.2897 H         1 RES1    0.0000
     21 C12        5.8035    5.8883    5.5076 C.ar      1 RES1    0.0000
     22 H8         5.6281    5.2974    4.7425 H         1 RES1    0.0000
     23 C13        4.7534    6.3511    6.2623 C.ar      1 RES1    0.0000
     24 N3         3.4102    5.8780    5.9228 N.pl3     1 RES1    0.0000
     25 O1         2.5144    6.7010    5.8448 O.2       1 RES1    0.0000
     26 O2         3.2746    4.6803    5.7270 O.2       1 RES1    0.0000
     27 C14        3.2753    5.4761    9.2023 C.3       1 RES1    0.0000
     28 H9         2.6167    5.1437    9.8478 H         1 RES1    0.0000
     29 H10        4.1757    5.3795    9.5752 H         1 RES1    0.0000
     30 H11        3.2083    4.9609    8.3724 H         1 RES1    0.0000
@<TRIPOS>BOND
     1    1    2 1
     2    2    3 2
     3    3    4 1
     4    4    5 ar
     5    5    6 1
     6    7    5 ar
     7    8    7 1
     8    9    7 ar
     9   10    9 1
    10   11    9 ar
    11   12   11 1
    12   13    1 1
    13   14    1 1
    14   15   14 ar
    15   16   15 1
    16   17   15 ar
    17   18   17 1
    18   19   17 ar
    19   20   19 1
    20   21   19 ar
    21   22   21 1
    22   23   14 ar
    23   24   23 1
    24   25   24 2
    25   26   24 2
    26   27    2 1
    27   28   27 1
    28   29   27 1
    29   30   27 1
    30    4   13 ar
    31   11   13 ar
    32   21   23 ar
@<TRIPOS>SUBSTRUCTURE
     1 RES1 1

@<TRIPOS>CRYSIN
   7.7474    8.2529   10.2300  86.5800  82.2000  71.9140   2 1

