# MOL2 file generated by ConQuest
# Please check atom types

@<TRIPOS>MOLECULE
PELGEV
    33    34     1
SMALL
NO_CHARGES
****
Generated from CSD

@<TRIPOS>ATOM
      1 C1        -3.6968    4.6353   16.4350 C.2       1 RES1    0.0000
      2 H1        -4.1593    4.3385   17.2105 H         1 RES1    0.0000
      3 C2        -2.7670    3.9106   15.7669 C.2       1 RES1    0.0000
      4 H2        -2.4632    3.0386   15.9870 H         1 RES1    0.0000
      5 C3        -1.3854    4.5374   13.6510 C.ar      1 RES1    0.0000
      6 H3        -0.8759    3.7385   13.5834 H         1 RES1    0.0000
      7 C4        -1.2252    5.5707   12.7531 C.ar      1 RES1    0.0000
      8 C5        -1.9511    6.7782   12.8046 C.ar      1 RES1    0.0000
      9 H4        -1.7998    7.4567   12.1580 H         1 RES1    0.0000
     10 C6        -2.8796    6.9627   13.8002 C.ar      1 RES1    0.0000
     11 H5        -3.3859    7.7652   13.8533 H         1 RES1    0.0000
     12 C7        -3.0583    5.9345   14.7348 C.ar      1 RES1    0.0000
     13 C8        -2.3298    4.7167   14.6636 C.ar      1 RES1    0.0000
     14 C9        -4.8315    6.8707   16.2725 C.3       1 RES1    0.0000
     15 H6        -5.5790    6.4191   16.7374 H         1 RES1    0.0000
     16 H7        -5.2050    7.3233   15.4756 H         1 RES1    0.0000
     17 C10       -4.2452    7.9244   17.2013 C.3       1 RES1    0.0000
     18 H8        -4.9754    8.5469   17.4829 H         1 RES1    0.0000
     19 C11       -3.5709    7.3706   18.4413 C.3       1 RES1    0.0000
     20 H9        -2.8523    6.7588   18.1764 H         1 RES1    0.0000
     21 H10       -4.2293    6.8857   18.9825 H         1 RES1    0.0000
     22 H11       -3.1960    8.1082   18.9664 H         1 RES1    0.0000
     23 C12       -2.9893    9.9221   16.8073 C.2       1 RES1    0.0000
     24 C13       -2.0266   10.5812   15.8858 C.3       1 RES1    0.0000
     25 H12       -2.4648   11.3360   15.4396 H         1 RES1    0.0000
     26 H13       -1.7245    9.9350   15.2130 H         1 RES1    0.0000
     27 H14       -1.2559   10.9060   16.3969 H         1 RES1    0.0000
     28 N1        -3.8793    5.8641   15.8328 N.3       1 RES1    0.0000
     29 N2        -0.2446    5.4138   11.6825 N.pl3     1 RES1    0.0000
     30 O1        -3.2809    8.6664   16.4010 O.3       1 RES1    0.0000
     31 O2        -3.4731   10.4186   17.7976 O.2       1 RES1    0.0000
     32 O3        -0.0594    6.3559   10.9092 O.2       1 RES1    0.0000
     33 O4         0.3577    4.3430   11.5947 O.2       1 RES1    0.0000
@<TRIPOS>BOND
     1    1    2 1
     2    3    1 2
     3    4    3 1
     4    5    6 1
     5    7    5 ar
     6    8    7 ar
     7    9    8 1
     8   10    8 ar
     9   11   10 1
    10   12   10 ar
    11   13    3 1
    12   14   15 1
    13   16   14 1
    14   17   14 1
    15   18   17 1
    16   19   17 1
    17   20   19 1
    18   21   19 1
    19   22   19 1
    20   23   24 1
    21   24   25 1
    22   26   24 1
    23   27   24 1
    24   28    1 1
    25   29    7 1
    26   30   17 1
    27   31   23 2
    28   32   29 2
    29   33   29 2
    30    5   13 ar
    31   12   13 ar
    32   12   28 1
    33   14   28 1
    34   23   30 1
@<TRIPOS>SUBSTRUCTURE
     1 RES1 1

@<TRIPOS>CRYSIN
   4.6908   10.7522   12.3836  90.0000  89.6860  90.0000   4 1

