# MOL2 file generated by ConQuest
# Please check atom types

@<TRIPOS>MOLECULE
PELHUL
    36    36     1
SMALL
NO_CHARGES
****
Generated from CSD

@<TRIPOS>ATOM
      1 C1        11.3282    0.4980   15.3992 C.ar      1 RES1    0.0000
      2 N1        12.8249    0.9035   17.2698 N.3       1 RES1    0.0000
      3 C2        12.2717   -0.0770   13.2683 C.ar      1 RES1    0.0000
      4 N2        10.1229    0.6829   16.1514 N.pl3     1 RES1    0.0000
      5 O1        12.9010   -0.6478   11.1279 O.2       1 RES1    0.0000
      6 C3        13.6156    0.0357   13.7804 C.ar      1 RES1    0.0000
      7 C4        12.6386    0.6142   15.9826 C.ar      1 RES1    0.0000
      8 N3        11.9789   -0.4468   11.9174 N.pl3     1 RES1    0.0000
      9 C5        13.7276    0.4069   15.1251 C.ar      1 RES1    0.0000
     10 H1        14.5823    0.5232   15.4723 H         1 RES1    0.0000
     11 N4        14.7037   -0.2052   13.0376 N.3       1 RES1    0.0000
     12 O2        10.8071   -0.5806   11.5627 O.2       1 RES1    0.0000
     13 O3        10.1807    1.0113   17.3362 O.2       1 RES1    0.0000
     14 C6        11.1883    0.1534   14.0816 C.ar      1 RES1    0.0000
     15 H2        10.3332    0.0721   13.7251 H         1 RES1    0.0000
     16 O4         9.0510    0.5106   15.5853 O.2       1 RES1    0.0000
     17 C7        16.0754   -0.1058   13.5272 C.3       1 RES1    0.0000
     18 H3        16.6480   -0.6555   12.9698 H         1 RES1    0.0000
     19 H4        16.1122   -0.4636   14.4280 H         1 RES1    0.0000
     20 N5        16.5689    1.8721   12.1972 N.3       1 RES1    0.0000
     21 N6        12.8944    1.8483   19.8414 N.3       1 RES1    0.0000
     22 C8        14.1085    0.9203   17.9511 C.3       1 RES1    0.0000
     23 H5        14.5871    1.7369   17.7382 H         1 RES1    0.0000
     24 H6        14.6468    0.1667   17.6631 H         1 RES1    0.0000
     25 C9        13.8600    0.8404   19.4367 C.3       1 RES1    0.0000
     26 H7        13.5236   -0.0413   19.6628 H         1 RES1    0.0000
     27 H8        14.6936    0.9777   19.9131 H         1 RES1    0.0000
     28 C10       16.6175    1.3041   13.5401 C.3       1 RES1    0.0000
     29 H9        16.0912    1.8504   14.1437 H         1 RES1    0.0000
     30 H10       17.5339    1.2985   13.8593 H         1 RES1    0.0000
     31 H11       14.5871   -0.4903   12.2759 H         1 RES1    0.0000
     32 H12       12.1438    1.1206   17.7382 H         1 RES1    0.0000
     33 H13       15.7071    2.1641   12.0530 H         1 RES1    0.0000
     34 H14       17.0498    2.6334   12.1599 H         1 RES1    0.0000
     35 H15       12.6732    1.7719   20.7366 H         1 RES1    0.0000
     36 H16       13.2880    2.6824   19.7106 H         1 RES1    0.0000
@<TRIPOS>BOND
     1    1    4 1
     2    2    7 1
     3    3    6 ar
     4    4   13 2
     5    5    8 2
     6    6    9 ar
     7    7    1 ar
     8    8    3 1
     9    9    7 ar
    10   10    9 1
    11   11    6 1
    12   12    8 2
    13   14    1 ar
    14   15   14 1
    15   16    4 2
    16   17   11 1
    17   18   17 1
    18   19   17 1
    19   20   28 1
    20   21   25 1
    21   22    2 1
    22   23   22 1
    23   24   22 1
    24   25   22 1
    25   26   25 1
    26   27   25 1
    27   28   17 1
    28   29   28 1
    29   30   28 1
    30   31   11 1
    31   32    2 1
    32   33   20 1
    33   34   20 1
    34   35   21 1
    35   36   21 1
    36    3   14 ar
@<TRIPOS>SUBSTRUCTURE
     1 RES1 1

@<TRIPOS>CRYSIN
  16.1380    7.0036   22.7500  90.0000  90.0000  90.0000  61 1

