# MOL2 file generated by ConQuest
# Please check atom types

@<TRIPOS>MOLECULE
PELJUN
    64    59     2
SMALL
NO_CHARGES
****
Generated from CSD

@<TRIPOS>ATOM
      1 O1         8.9473    1.6976   12.9008 O.2       1 RES1    0.0000
      2 C1         6.6590    1.6976   12.6953 C.ar      1 RES1    0.0000
      3 N1         7.9915    1.6976   12.1360 N.pl3     1 RES1    0.0000
      4 N2         5.5265    1.6976   10.5467 N.3       1 RES1    0.0000
      5 C2         5.4846    1.6976   11.8853 C.ar      1 RES1    0.0000
      6 O2         8.1322    1.6976   10.9122 O.2       1 RES1    0.0000
      7 C3         4.3359    1.6976    9.7136 C.3       1 RES1    0.0000
      8 C4         4.6614    1.6976    8.2537 C.3       1 RES1    0.0000
      9 N3         2.9220    1.6976   14.5297 N.3       1 RES1    0.0000
     10 C5         5.3486    1.6976   14.7054 C.ar      1 RES1    0.0000
     11 O3         6.4602    1.6976   16.7039 O.2       1 RES1    0.0000
     12 C6         4.1370    1.6976   13.9516 C.ar      1 RES1    0.0000
     13 N4         5.3730    1.6976   16.1385 N.pl3     1 RES1    0.0000
     14 C7         4.2626    1.6976   12.5640 C.ar      1 RES1    0.0000
     15 H1         3.4836    1.6976   12.0576 H         1 RES1    0.0000
     16 C8         6.5590    1.6976   14.0592 C.ar      1 RES1    0.0000
     17 H2         7.3381    1.6976   14.5669 H         1 RES1    0.0000
     18 C9         1.6767    1.6976   13.7767 C.3       1 RES1    0.0000
     19 O4         4.3254    1.6976   16.7711 O.2       1 RES1    0.0000
     20 C10        0.4500    1.6976   14.6733 C.3       1 RES1    0.0000
     21 C11        0.3302    2.9416   15.5252 C.3       1 RES1    0.0000
     22 H3         1.0674    2.9749   16.1565 H         1 RES1    0.0000
     23 H4         0.3825    3.7279   14.9603 H         1 RES1    0.0000
     24 C12       -1.1418    1.6976   17.1294 C.3       1 RES1    0.0000
     25 C13       -0.9883    2.9484   16.2833 C.3       1 RES1    0.0000
     26 H5        -1.7220    3.0020   15.6515 H         1 RES1    0.0000
     27 H6        -1.0267    3.7300   16.8556 H         1 RES1    0.0000
     28 C14        4.2114    1.6976    5.4786 C.3       1 RES1    0.0000
     29 C15        3.4719    2.5192    7.5121 C.3       1 RES1    0.0000
     30 C16        3.6475    2.7277    6.0341 C.3       1 RES1    0.0000
     31 H7         3.2906    3.4224    7.7619 H         1 RES1    0.0000
     32 H8         2.7441    2.1390    7.0176 H         1 RES1    0.0000
     33 H9         4.2905    3.4563    5.9278 H         1 RES1    0.0000
     34 H10        2.8255    2.9878    5.5822 H         1 RES1    0.0000
     35 H11        1.6627    2.5939   13.1315 H         1 RES1    0.0000
     36 H12        3.7440    2.4921    9.8832 H         1 RES1    0.0000
     37 H13        2.8952    1.6976   15.4734 H         1 RES1    0.0000
     38 H14        6.4067    1.6976   10.1809 H         1 RES1    0.0000
     39 H15       -0.3256    1.6976   14.0885 H         1 RES1    0.0000
     40 H16       -0.4767    1.6976   17.8365 H         1 RES1    0.0000
     41 H17       -2.0348    1.6976   17.6239 H         1 RES1    0.0000
     42 H18        5.3370    1.0186    7.9480 Du        2 SUP2    0.0000
     43 H19        4.0115    2.2069    4.6944 H         1 RES1    0.0000
     44 C17        5.2765    0.8013    7.6609 Du        2 SUP2    0.0000
     45 C18        5.4649    0.9955    6.1670 Du        2 SUP2    0.0000
     46 H20        5.8253    0.5432    8.2670 Du        2 SUP2    0.0000
     47 H21        4.4998    0.2377    7.4695 Du        2 SUP2    0.0000
     48 H22        6.3834    1.0050    5.8480 Du        2 SUP2    0.0000
     49 H23        5.2556    0.0679    6.3797 Du        2 SUP2    0.0000
     50 C11F       0.3302    0.4536   15.5252 C.3       1 RES1    0.0000
     51 H3F        1.0674    0.4203   16.1565 H         1 RES1    0.0000
     52 H4F        0.3825   -0.3327   14.9603 H         1 RES1    0.0000
     53 C13F      -0.9883    0.4468   16.2833 C.3       1 RES1    0.0000
     54 H5F       -1.7220    0.3932   15.6515 H         1 RES1    0.0000
     55 H6F       -1.0267   -0.3348   16.8556 H         1 RES1    0.0000
     56 C15F       3.4719    0.8760    7.5121 C.3       1 RES1    0.0000
     57 C16F       3.6475    0.6675    6.0341 C.3       1 RES1    0.0000
     58 H7F        3.2906   -0.0272    7.7619 H         1 RES1    0.0000
     59 H8F        2.7441    1.2562    7.0176 H         1 RES1    0.0000
     60 H9F        4.2905   -0.0611    5.9278 H         1 RES1    0.0000
     61 H10F       2.8255    0.4074    5.5822 H         1 RES1    0.0000
     62 H11F       1.6627    0.8013   13.1315 H         1 RES1    0.0000
     63 H12F       3.7440    0.9031    9.8832 H         1 RES1    0.0000
     64 H19F       4.0115    1.1883    4.6944 H         1 RES1    0.0000
@<TRIPOS>BOND
     1    1    3 2
     2    2    3 1
     3    3    6 2
     4    4    5 1
     5    5    2 ar
     6    7    4 1
     7    8    7 1
     8    9   12 1
     9   10   12 ar
    10   11   13 2
    11   12   14 ar
    12   13   10 1
    13   14    5 ar
    14   15   14 1
    15   16    2 ar
    16   17   16 1
    17   18    9 1
    18   19   13 2
    19   20   18 1
    20   21   20 1
    21   22   21 1
    22   23   21 1
    23   24   25 1
    24   25   21 1
    25   26   25 1
    26   27   25 1
    27   28   30 1
    28   29    8 1
    29   30   29 1
    30   31   29 1
    31   32   29 1
    32   33   30 1
    33   34   30 1
    34   35   18 1
    35   36    7 1
    36   37    9 1
    37   38    4 1
    38   39   20 1
    39   40   24 1
    40   41   24 1
    41   43   28 1
    42   50   20 1
    43   51   50 1
    44   52   50 1
    45   53   24 1
    46   54   53 1
    47   55   53 1
    48   56    8 1
    49   57   28 1
    50   58   56 1
    51   59   56 1
    52   60   57 1
    53   61   57 1
    54   62   18 1
    55   63    7 1
    56   64   28 1
    57   10   16 ar
    58   50   53 1
    59   56   57 1
@<TRIPOS>SUBSTRUCTURE
     1 RES1 1
     2 SUP2 42

@<TRIPOS>CRYSIN
  11.6274    6.7904   26.5820  90.0000  90.0000  90.0000  62 1

