# MOL2 file generated by ConQuest
# Please check atom types

@<TRIPOS>MOLECULE
PELKEY
    48    48     1
SMALL
NO_CHARGES
****
Generated from CSD

@<TRIPOS>ATOM
      1 N1         4.3903    1.9224   -5.1328 N.3       1 RES1    0.0000
      2 C1         3.0315    1.8334   -4.6955 C.3       1 RES1    0.0000
      3 H1         3.0081    1.7315   -3.7410 H         1 RES1    0.0000
      4 H2         2.6109    1.0765   -5.1087 H         1 RES1    0.0000
      5 H3         2.5617    2.6341   -4.9427 H         1 RES1    0.0000
      6 C2         4.4517    2.0230   -6.5797 C.3       1 RES1    0.0000
      7 H4         4.0169    1.2630   -6.9726 H         1 RES1    0.0000
      8 H5         5.3695    2.0481   -6.8605 H         1 RES1    0.0000
      9 H6         4.0099    2.8269   -6.8640 H         1 RES1    0.0000
     10 H7         8.8937    2.5542    1.6864 H         1 RES1    0.0000
     11 H8         5.9077    0.9402   -3.4788 H         1 RES1    0.0000
     12 N2         8.3187    2.7606    1.1064 N.3       1 RES1    0.0000
     13 C3         7.1363    2.1094   -0.8609 C.ar      1 RES1    0.0000
     14 H9         6.7229    2.9428   -0.8715 H         1 RES1    0.0000
     15 C4         8.0085    1.8248    0.1910 C.ar      1 RES1    0.0000
     16 C5         8.5664    0.5041    0.2243 C.ar      1 RES1    0.0000
     17 N3         6.0532    1.5645   -2.9190 N.3       1 RES1    0.0000
     18 C6         6.8467    1.2191   -1.8992 C.ar      1 RES1    0.0000
     19 O1         9.9245   -1.0768    1.1823 O.2       1 RES1    0.0000
     20 N4         9.4777    0.0592    1.2423 N.pl3     1 RES1    0.0000
     21 C7         8.2700   -0.3968   -0.7611 C.ar      1 RES1    0.0000
     22 H10        8.6329   -1.2520   -0.7152 H         1 RES1    0.0000
     23 O2         7.7720   -2.1891   -2.6426 O.2       1 RES1    0.0000
     24 C8         7.4531   -0.0765   -1.8153 C.ar      1 RES1    0.0000
     25 N5         7.2702   -1.0873   -2.8095 N.pl3     1 RES1    0.0000
     26 O3         6.6145   -0.8360   -3.8205 O.2       1 RES1    0.0000
     27 O4         9.7823    0.8208    2.1500 O.2       1 RES1    0.0000
     28 C9         5.3917    2.8404   -3.0832 C.3       1 RES1    0.0000
     29 H11        5.9608    3.5540   -2.7521 H         1 RES1    0.0000
     30 H12        4.5638    2.8520   -2.5773 H         1 RES1    0.0000
     31 N6         9.9505    4.8801    2.1915 N.3       1 RES1    0.0000
     32 C10        8.5085    4.9488    2.1288 C.3       1 RES1    0.0000
     33 H13        8.2449    5.8763    2.0228 H         1 RES1    0.0000
     34 H14        8.1436    4.6336    2.9711 H         1 RES1    0.0000
     35 C11        7.9036    4.1424    1.0074 C.3       1 RES1    0.0000
     36 H15        6.9363    4.1965    1.0525 H         1 RES1    0.0000
     37 H16        8.1860    4.5067    0.1545 H         1 RES1    0.0000
     38 C12        5.1017    3.0505   -4.5551 C.3       1 RES1    0.0000
     39 H17        4.5704    3.8548   -4.6646 H         1 RES1    0.0000
     40 H18        5.9382    3.1779   -5.0301 H         1 RES1    0.0000
     41 C13       10.4144    5.4438    3.4505 C.3       1 RES1    0.0000
     42 H19       11.3722    5.3874    3.4929 H         1 RES1    0.0000
     43 H20       10.0316    4.9518    4.1816 H         1 RES1    0.0000
     44 H21       10.1452    6.3636    3.5088 H         1 RES1    0.0000
     45 C14       10.5506    5.5895    1.0763 C.3       1 RES1    0.0000
     46 H22       10.2522    5.2009    0.2516 H         1 RES1    0.0000
     47 H23       11.5065    5.5253    1.1337 H         1 RES1    0.0000
     48 H24       10.2902    6.5141    1.1081 H         1 RES1    0.0000
@<TRIPOS>BOND
     1    1    2 1
     2    2    3 1
     3    4    2 1
     4    5    2 1
     5    6    1 1
     6    7    6 1
     7    8    6 1
     8    9    6 1
     9   10   12 1
    10   11   17 1
    11   12   15 1
    12   13   14 1
    13   15   13 ar
    14   16   15 ar
    15   17   18 1
    16   18   13 ar
    17   19   20 2
    18   20   16 1
    19   21   16 ar
    20   22   21 1
    21   23   25 2
    22   24   18 ar
    23   25   24 1
    24   26   25 2
    25   27   20 2
    26   28   17 1
    27   29   28 1
    28   30   28 1
    29   31   32 1
    30   32   33 1
    31   34   32 1
    32   35   12 1
    33   36   35 1
    34   37   35 1
    35   38    1 1
    36   39   38 1
    37   40   38 1
    38   41   31 1
    39   42   41 1
    40   43   41 1
    41   44   41 1
    42   45   31 1
    43   46   45 1
    44   47   45 1
    45   48   45 1
    46   21   24 ar
    47   28   38 1
    48   32   35 1
@<TRIPOS>SUBSTRUCTURE
     1 RES1 1

@<TRIPOS>CRYSIN
  12.7313   15.6701    9.4477  90.0000 110.8430  90.0000  14 1

