# MOL2 file generated by ConQuest
# Please check atom types

@<TRIPOS>MOLECULE
PELKAU
    48    38     2
SMALL
NO_CHARGES
****
Generated from CSD

@<TRIPOS>ATOM
      1 N1         4.2610    7.2504    1.3967 N.3       1 RES1    0.0000
      2 N2         4.6542    4.3516    1.5384 N.pl3     1 RES1    0.0000
      3 C1         2.1897    6.8529    0.2700 C.ar      1 RES1    0.0000
      4 H1         2.0610    7.7713    0.2140 H         1 RES1    0.0000
      5 O1         0.9516    2.4864   -0.8956 O.2       1 RES1    0.0000
      6 C2         3.3650    6.4028    0.8684 C.ar      1 RES1    0.0000
      7 C3         1.4653    4.6234   -0.2428 C.ar      1 RES1    0.0000
      8 O2        -0.5112    4.0036   -1.2357 O.2       1 RES1    0.0000
      9 C4         3.5372    4.9739    0.9065 C.ar      1 RES1    0.0000
     10 O3         4.6987    3.1341    1.6037 O.2       1 RES1    0.0000
     11 C5         4.1411    8.6845    1.4022 C.3       1 RES1    0.0000
     12 H2         3.2639    8.9340    1.7337 H         1 RES1    0.0000
     13 H3         4.2258    9.0202    0.4957 H         1 RES1    0.0000
     14 C6         1.1921    6.0307   -0.2506 C.ar      1 RES1    0.0000
     15 N3         0.0439    6.5305   -0.7338 N.3       1 RES1    0.0000
     16 C7         2.6029    4.1490    0.3408 C.ar      1 RES1    0.0000
     17 H4         2.7494    3.2300    0.3548 H         1 RES1    0.0000
     18 N4         0.5924    3.6509   -0.8178 N.pl3     1 RES1    0.0000
     19 O4         5.5305    5.0389    2.0395 O.2       1 RES1    0.0000
     20 C8         5.1551   10.8132    2.2651 C.3       1 RES1    0.0000
     21 H5         5.8519   11.1541    2.8308 H         1 RES1    0.0000
     22 H6         4.3024   11.1089    2.5920 H         1 RES1    0.0000
     23 H7         5.2836   11.1347    1.3695 H         1 RES1    0.0000
     24 C9         5.1968    9.3100    2.2675 C.3       1 RES1    0.0000
     25 H8         6.0697    9.0202    1.9586 H         1 RES1    0.0000
     26 H9         5.0860    8.9943    3.1779 H         1 RES1    0.0000
     27 C10       -0.4787    7.9134   -0.5260 C.3       1 RES1    0.0000
     28 H10       -1.4282    7.8918   -0.3291 H         1 RES1    0.0000
     29 H11       -0.0184    8.3440    0.2124 H         1 RES1    0.0000
     30 C11       -0.2285    8.6412   -1.7835 C.3       1 RES1    0.0000
     31 H12       -0.6109    8.1718   -2.5414 H         1 RES1    0.0000
     32 H13        0.7213    8.7661   -1.9329 H         1 RES1    0.0000
     33 C12       -0.9737   10.0645   -1.5391 C.3       1 RES1    0.0000
     34 H14       -1.8894    9.9095   -1.2956 H         1 RES1    0.0000
     35 H15       -0.9414   10.5856   -2.3445 H         1 RES1    0.0000
     36 H16       -0.5320   10.5404   -0.8318 H         1 RES1    0.0000
     37 H17        4.9782    6.8260    1.7430 H         1 RES1    0.0000
     38 H18       -0.4857    5.9173   -1.0505 H         1 RES1    0.0000
     39 C13        0.0688    7.8423   -1.4551 Du        2 SUP2    0.0000
     40 C14       -0.6939    8.8393   -0.7159 Du        2 SUP2    0.0000
     41 C15       -0.5743    9.9375   -2.0076 Du        2 SUP2    0.0000
     42 H19        0.9870    8.1395   -1.5555 Du        2 SUP2    0.0000
     43 H20       -0.3109    7.7325   -2.3406 Du        2 SUP2    0.0000
     44 H21       -0.2452    9.1451    0.0910 Du        2 SUP2    0.0000
     45 H22       -1.6006    8.5658   -0.5213 Du        2 SUP2    0.0000
     46 H23       -0.1164    9.5219   -2.7390 Du        2 SUP2    0.0000
     47 H24       -0.0909   10.7148   -1.7220 Du        2 SUP2    0.0000
     48 H25       -1.4578   10.1959   -2.2854 Du        2 SUP2    0.0000
@<TRIPOS>BOND
     1    1    6 1
     2    2    9 1
     3    3    4 1
     4    5   18 2
     5    6    3 ar
     6    7   14 ar
     7    8   18 2
     8    9    6 ar
     9   10    2 2
    10   11    1 1
    11   12   11 1
    12   13   11 1
    13   14    3 ar
    14   15   14 1
    15   16    7 ar
    16   17   16 1
    17   18    7 1
    18   19    2 2
    19   20   21 1
    20   22   20 1
    21   23   20 1
    22   24   11 1
    23   25   24 1
    24   26   24 1
    25   27   15 1
    26   28   27 1
    27   29   27 1
    28   30   27 1
    29   31   30 1
    30   32   30 1
    31   33   30 1
    32   34   33 1
    33   35   33 1
    34   36   33 1
    35   37    1 1
    36   38   15 1
    37    9   16 ar
    38   20   24 1
@<TRIPOS>SUBSTRUCTURE
     1 RES1 1
     2 SUP2 39

@<TRIPOS>CRYSIN
   8.3647   21.5330    7.7900  90.0000  92.7070  90.0000  14 1

