# MOL2 file generated by ConQuest
# Please check atom types

@<TRIPOS>MOLECULE
PELMUP
    32    33     1
SMALL
NO_CHARGES
****
Generated from CSD

@<TRIPOS>ATOM
      1 O1         0.3886    9.3264   17.3523 O.2       1 RES1    0.0000
      2 O2        -0.7273   10.0687   15.6625 O.2       1 RES1    0.0000
      3 N1         0.8174    4.2554   12.1746 N.2       1 RES1    0.0000
      4 N2        -0.0505    9.2064   16.2179 N.pl3     1 RES1    0.0000
      5 C1         0.7892    5.6480   14.1205 C.ar      1 RES1    0.0000
      6 C2         1.0998    5.7555   15.4777 C.ar      1 RES1    0.0000
      7 C3         0.8315    6.9268   16.1677 C.ar      1 RES1    0.0000
      8 C4         0.2473    7.9730   15.4798 C.ar      1 RES1    0.0000
      9 C5        -0.0767    7.9070   14.1277 C.ar      1 RES1    0.0000
     10 C6         0.2034    6.7321   13.4560 C.ar      1 RES1    0.0000
     11 C7         1.1045    4.4043   13.4104 C.2       1 RES1    0.0000
     12 H1         1.4973    5.0210   15.9306 H         1 RES1    0.0000
     13 H2         1.0434    7.0088   17.0910 H         1 RES1    0.0000
     14 H3        -0.4768    8.6445   13.6814 H         1 RES1    0.0000
     15 H4        -0.0043    6.6589   12.5330 H         1 RES1    0.0000
     16 H5         1.5299    3.6960   13.8796 H         1 RES1    0.0000
     17 O1B        1.6514   -2.0822    6.5246 O.2       1 RES1    0.0000
     18 O2B        2.7673   -2.8245    8.2143 O.2       1 RES1    0.0000
     19 N1B        1.2226    2.9888   11.7023 N.2       1 RES1    0.0000
     20 N2B        2.0905   -1.9622    7.6590 N.pl3     1 RES1    0.0000
     21 C1B        1.2507    1.5962    9.7563 C.ar      1 RES1    0.0000
     22 C2B        0.9401    1.4887    8.3992 C.ar      1 RES1    0.0000
     23 C3B        1.2085    0.3174    7.7091 C.ar      1 RES1    0.0000
     24 C4B        1.7926   -0.7288    8.3970 C.ar      1 RES1    0.0000
     25 C5B        2.1166   -0.6628    9.7492 C.ar      1 RES1    0.0000
     26 C6B        1.8366    0.5121   10.4208 C.ar      1 RES1    0.0000
     27 C7B        0.9355    2.8399   10.4664 C.2       1 RES1    0.0000
     28 H1B        0.5427    2.2232    7.9462 H         1 RES1    0.0000
     29 H2B        0.9966    0.2354    6.7858 H         1 RES1    0.0000
     30 H3B        2.5168   -1.4003   10.1954 H         1 RES1    0.0000
     31 H4B        2.0443    0.5853   11.3439 H         1 RES1    0.0000
     32 H5B        0.5101    3.5482    9.9972 H         1 RES1    0.0000
@<TRIPOS>BOND
     1    1    4 2
     2    2    4 2
     3    3   11 2
     4    4    8 1
     5    5    6 ar
     6    6    7 ar
     7    7    8 ar
     8    8    9 ar
     9    9   10 ar
    10   10    5 ar
    11   11    5 1
    12   12    6 1
    13   13    7 1
    14   14    9 1
    15   15   10 1
    16   16   11 1
    17   17   20 2
    18   18   20 2
    19   19    3 1
    20   20   24 1
    21   21   22 ar
    22   22   23 ar
    23   23   24 ar
    24   24   25 ar
    25   25   26 ar
    26   26   21 ar
    27   27   19 2
    28   28   22 1
    29   29   23 1
    30   30   25 1
    31   31   26 1
    32   32   27 1
    33   21   27 1
@<TRIPOS>SUBSTRUCTURE
     1 RES1 1

@<TRIPOS>CRYSIN
   3.7318    7.2442   23.9367  90.0000  94.0530  90.0000 231 1

