# MOL2 file generated by ConQuest
# Please check atom types

@<TRIPOS>MOLECULE
PELMOJ
    32    33     1
SMALL
NO_CHARGES
****
Generated from CSD

@<TRIPOS>ATOM
      1 O1        10.8217   -2.9354    5.7747 O.2       1 RES1    0.0000
      2 O2         9.7680   -4.2589    7.1109 O.2       1 RES1    0.0000
      3 O3        19.0124    6.5766    4.3507 O.2       1 RES1    0.0000
      4 O4        19.8722    6.2406    6.3029 O.2       1 RES1    0.0000
      5 N1        14.0198    0.4261    7.5075 N.2       1 RES1    0.0000
      6 N2        10.5522   -3.3357    6.8903 N.pl3     1 RES1    0.0000
      7 N3        15.0421    1.3960    7.5378 N.2       1 RES1    0.0000
      8 N4        19.0458    5.9985    5.4280 N.pl3     1 RES1    0.0000
      9 C1        12.7892   -1.1076    8.8580 C.ar      1 RES1    0.0000
     10 C2        12.1125   -1.6862    7.7781 C.ar      1 RES1    0.0000
     11 C3        11.2042   -2.6909    8.0369 C.ar      1 RES1    0.0000
     12 C4        10.9087   -3.1403    9.3048 C.ar      1 RES1    0.0000
     13 C5        11.5718   -2.5536   10.3656 C.ar      1 RES1    0.0000
     14 C6        12.5049   -1.5509   10.1467 C.ar      1 RES1    0.0000
     15 C7        13.8028   -0.0710    8.6604 C.2       1 RES1    0.0000
     16 C8        16.1507    3.0269    6.1902 C.ar      1 RES1    0.0000
     17 C9        16.1553    3.7180    4.9775 C.ar      1 RES1    0.0000
     18 C10       17.1017    4.6859    4.7172 C.ar      1 RES1    0.0000
     19 C11       18.0448    4.9633    5.6957 C.ar      1 RES1    0.0000
     20 C12       18.0593    4.3151    6.9176 C.ar      1 RES1    0.0000
     21 C13       17.1166    3.3367    7.1531 C.ar      1 RES1    0.0000
     22 C14       15.1431    1.9922    6.4144 C.2       1 RES1    0.0000
     23 H1        12.2737   -1.3941    6.8896 H         1 RES1    0.0000
     24 H2        10.2707   -3.8300    9.4453 H         1 RES1    0.0000
     25 H3        11.3885   -2.8396   11.2524 H         1 RES1    0.0000
     26 H4        12.9558   -1.1610   10.8863 H         1 RES1    0.0000
     27 H5        14.3080    0.2364    9.4038 H         1 RES1    0.0000
     28 H6        15.4969    3.5183    4.3231 H         1 RES1    0.0000
     29 H7        17.1072    5.1511    3.8885 H         1 RES1    0.0000
     30 H8        18.7024    4.5387    7.5786 H         1 RES1    0.0000
     31 H9        17.1244    2.8672    7.9790 H         1 RES1    0.0000
     32 H10       14.5529    1.7591    5.7083 H         1 RES1    0.0000
@<TRIPOS>BOND
     1    1    6 2
     2    2    6 2
     3    3    8 2
     4    4    8 2
     5    5    7 1
     6    6   11 1
     7    7   22 2
     8    8   19 1
     9    9   10 ar
    10   10   11 ar
    11   11   12 ar
    12   12   13 ar
    13   13   14 ar
    14   14    9 ar
    15   15    5 2
    16   16   17 ar
    17   17   18 ar
    18   18   19 ar
    19   19   20 ar
    20   20   21 ar
    21   21   16 ar
    22   22   16 1
    23   23   10 1
    24   24   12 1
    25   25   13 1
    26   26   14 1
    27   27   15 1
    28   28   17 1
    29   29   18 1
    30   30   20 1
    31   31   21 1
    32   32   22 1
    33    9   15 1
@<TRIPOS>SUBSTRUCTURE
     1 RES1 1

@<TRIPOS>CRYSIN
  30.8650    4.7660   21.7360  90.0000 123.9260  90.0000  15 1

