# MOL2 file generated by ConQuest
# Please check atom types

@<TRIPOS>MOLECULE
PELPOL
    29    30     1
SMALL
NO_CHARGES
****
Generated from CSD

@<TRIPOS>ATOM
      1 O1         3.6236    2.3897   -5.0505 O.2       1 RES1    0.0000
      2 O2         1.8746    1.3499    0.3013 O.3       1 RES1    0.0000
      3 O3         1.8495   -4.8032    1.1943 O.2       1 RES1    0.0000
      4 O4         2.6258   -4.1722    3.0990 O.2       1 RES1    0.0000
      5 N1         1.1402   -0.6322   -1.4191 N.2       1 RES1    0.0000
      6 N2         2.1980   -3.9548    1.9687 N.pl3     1 RES1    0.0000
      7 C1         1.8281    0.0559   -2.2763 C.2       1 RES1    0.0000
      8 C2         3.2121    0.4587   -2.1279 C.2       1 RES1    0.0000
      9 C3         3.8490    1.2168   -3.0256 C.2       1 RES1    0.0000
     10 C4         3.0786    1.6732   -4.2262 C.2       1 RES1    0.0000
     11 C5         1.6731    1.2264   -4.4276 C.2       1 RES1    0.0000
     12 C6         1.1297    0.4492   -3.4925 C.2       1 RES1    0.0000
     13 C7         5.3071    1.6351   -2.8789 C.3       1 RES1    0.0000
     14 C8         5.4113    3.1491   -2.8321 C.3       1 RES1    0.0000
     15 C9         6.1209    1.0136   -4.0139 C.3       1 RES1    0.0000
     16 C10        5.9111    1.1016   -1.5940 C.3       1 RES1    0.0000
     17 C11        0.9304    1.7053   -5.6625 C.3       1 RES1    0.0000
     18 C12        0.8166    3.2073   -5.6719 C.3       1 RES1    0.0000
     19 C13       -0.4805    1.1147   -5.7188 C.3       1 RES1    0.0000
     20 C14        1.6256    1.2454   -6.9318 C.3       1 RES1    0.0000
     21 C15        1.6715   -0.9293   -0.1374 C.ar      1 RES1    0.0000
     22 C16        1.9907    0.0856    0.7681 C.ar      1 RES1    0.0000
     23 C17        2.3866   -0.2507    2.0764 C.ar      1 RES1    0.0000
     24 C18        2.4584   -1.5769    2.4386 C.ar      1 RES1    0.0000
     25 C19        2.1301   -2.5418    1.5550 C.ar      1 RES1    0.0000
     26 C20        1.7106   -2.2459    0.2654 C.ar      1 RES1    0.0000
     27 C21        2.0005    2.4278    1.2162 C.3       1 RES1    0.0000
     28 C22        1.8426    3.6921    0.5214 C.2       1 RES1    0.0000
     29 C23        1.6391    3.8597   -0.7244 C.2       1 RES1    0.0000
@<TRIPOS>BOND
     1    1   10 2
     2    2   22 1
     3    3    6 2
     4    4    6 2
     5    5    7 2
     6    6   25 1
     7    7    8 1
     8    8    9 2
     9    9   10 1
    10   10   11 1
    11   11   12 2
    12   12    7 1
    13   13    9 1
    14   14   13 1
    15   15   13 1
    16   16   13 1
    17   17   11 1
    18   18   17 1
    19   19   17 1
    20   20   17 1
    21   21    5 1
    22   22   21 ar
    23   23   22 ar
    24   24   23 ar
    25   25   24 ar
    26   26   21 ar
    27   27    2 1
    28   28   27 1
    29   29   28 2
    30   25   26 ar
@<TRIPOS>SUBSTRUCTURE
     1 RES1 1

@<TRIPOS>CRYSIN
  12.1360   11.8833   15.6190  90.0000  91.6900  90.0000 231 1

