# MOL2 file generated by ConQuest
# Please check atom types

@<TRIPOS>MOLECULE
PELPUR
    29    30     1
SMALL
NO_CHARGES
****
Generated from CSD

@<TRIPOS>ATOM
      1 O1         8.1830    5.9125    1.6870 O.2       1 RES1    0.0000
      2 O2         8.2945    2.3662   -4.8129 O.3       1 RES1    0.0000
      3 O3         8.5433    1.4254   -2.8356 O.2       1 RES1    0.0000
      4 O4         4.3103   -0.1579   -6.2969 O.2       1 RES1    0.0000
      5 O5         2.6179    0.7622   -5.3318 O.2       1 RES1    0.0000
      6 N1         7.3046    4.5155   -3.4048 N.2       1 RES1    0.0000
      7 N2         3.8263    0.6828   -5.5605 N.pl3     1 RES1    0.0000
      8 C1         8.0144    5.5564    0.5179 C.2       1 RES1    0.0000
      9 C2         8.5731    6.3608   -0.6061 C.2       1 RES1    0.0000
     10 C3         8.3106    5.9478   -1.8614 C.2       1 RES1    0.0000
     11 C4         7.5099    4.7598   -2.1393 C.2       1 RES1    0.0000
     12 C5         7.0341    3.9574   -1.0420 C.2       1 RES1    0.0000
     13 C6         7.2510    4.3056    0.2431 C.2       1 RES1    0.0000
     14 C7         6.7129    3.4796    1.4235 C.3       1 RES1    0.0000
     15 C8         6.0412    2.2004    0.9333 C.3       1 RES1    0.0000
     16 C9         7.8596    3.1029    2.3844 C.3       1 RES1    0.0000
     17 C10        5.6297    4.3193    2.1660 C.3       1 RES1    0.0000
     18 C11        9.3903    7.6283   -0.3077 C.3       1 RES1    0.0000
     19 C12        9.8591    8.2816   -1.6029 C.3       1 RES1    0.0000
     20 C13       10.6328    7.2594    0.5035 C.3       1 RES1    0.0000
     21 C14        8.5323    8.6279    0.5015 C.3       1 RES1    0.0000
     22 C15        6.4283    3.5012   -3.8150 C.ar      1 RES1    0.0000
     23 C16        5.0475    3.6258   -3.6817 C.ar      1 RES1    0.0000
     24 C17        4.1915    2.7085   -4.2612 C.ar      1 RES1    0.0000
     25 C18        4.7280    1.6559   -4.9483 C.ar      1 RES1    0.0000
     26 C19        6.0928    1.4892   -5.1113 C.ar      1 RES1    0.0000
     27 C20        6.9329    2.4191   -4.5473 C.ar      1 RES1    0.0000
     28 C21        8.9541    1.7609   -3.8868 C.2       1 RES1    0.0000
     29 C22       10.4600    1.6363   -4.3001 C.3       1 RES1    0.0000
@<TRIPOS>BOND
     1    1    8 2
     2    2   27 1
     3    3   28 2
     4    4    7 2
     5    5    7 2
     6    6   11 2
     7    7   25 1
     8    8    9 1
     9    9   10 2
    10   10   11 1
    11   11   12 1
    12   12   13 2
    13   13    8 1
    14   14   13 1
    15   15   14 1
    16   16   14 1
    17   17   14 1
    18   18    9 1
    19   19   18 1
    20   20   18 1
    21   21   18 1
    22   22    6 1
    23   23   22 ar
    24   24   23 ar
    25   25   24 ar
    26   26   25 ar
    27   27   22 ar
    28   28    2 1
    29   29   28 1
    30   26   27 ar
@<TRIPOS>SUBSTRUCTURE
     1 RES1 1

@<TRIPOS>CRYSIN
  10.8160    9.8100   11.5420  90.0000 117.3100  90.0000   4 1

