# MOL2 file generated by ConQuest
# Please check atom types

@<TRIPOS>MOLECULE
PEMCAM
    42    26     2
SMALL
NO_CHARGES
****
Generated from CSD

@<TRIPOS>ATOM
      1 O1         3.0516    3.8151    8.4324 O.2       1 RES1    0.0000
      2 O2         4.7105    5.1887    8.7299 O.2       1 RES1    0.0000
      3 N1         4.0251    5.3711   17.0929 N.3       1 RES1    0.0000
      4 N2         3.7944    4.4783    9.1703 N.pl3     1 RES1    0.0000
      5 C1         4.0876    5.2480   15.7405 C.ar      1 RES1    0.0000
      6 C2         5.0491    6.1147   17.8116 C.3       1 RES1    0.0000
      7 C3         3.0704    4.5799   17.8547 C.3       1 RES1    0.0000
      8 C4         5.0710    5.9628   15.0101 C.ar      1 RES1    0.0000
      9 C5         5.1314    5.8736   13.6242 C.ar      1 RES1    0.0000
     10 C6         4.2272    5.0996   12.8783 C.ar      1 RES1    0.0000
     11 C7         3.2755    4.3672   13.6089 C.ar      1 RES1    0.0000
     12 C8         3.2000    4.4374   14.9782 C.ar      1 RES1    0.0000
     13 C9         4.3405    5.0809   11.4348 C.2       1 RES1    0.0000
     14 C10        3.5683    4.4015   10.5816 C.2       1 RES1    0.0000
     15 H1         4.8447    6.0987   18.7916 H         1 RES1    0.0000
     16 H2         5.0608    7.0613   17.4880 H         1 RES1    0.0000
     17 H3         5.9425    5.6960   17.6516 H         1 RES1    0.0000
     18 H4         3.1625    4.7933   18.8268 H         1 RES1    0.0000
     19 H5         3.2508    3.6070   17.7095 H         1 RES1    0.0000
     20 H6         2.1418    4.7962   17.5509 H         1 RES1    0.0000
     21 H7         5.7467    6.5285   15.4822 H         1 RES1    0.0000
     22 H8         5.8299    6.3852   13.1242 H         1 RES1    0.0000
     23 H9         2.6339    3.7722   13.1242 H         1 RES1    0.0000
     24 H10        2.5030    3.9148   15.4697 H         1 RES1    0.0000
     25 H11        5.0730    5.6404   11.0454 H         1 RES1    0.0000
     26 H12        2.8246    3.8322   10.9347 H         1 RES1    0.0000
     27 O3         3.1858    4.0017    8.9743 Du        2 SUP2    0.0000
     28 O4         4.8731    5.2713    8.4332 Du        2 SUP2    0.0000
     29 N3         4.1304    4.7772    9.2536 Du        2 SUP2    0.0000
     30 C11        5.0081    5.8180   14.8355 Du        2 SUP2    0.0000
     31 C12        4.8021    5.6455   13.4966 Du        2 SUP2    0.0000
     32 C13        3.8017    4.8021   13.0462 Du        2 SUP2    0.0000
     33 C14        2.9474    4.1750   13.9396 Du        2 SUP2    0.0000
     34 C15        3.0539    4.3855   15.2734 Du        2 SUP2    0.0000
     35 C16        3.6586    4.5762   11.6268 Du        2 SUP2    0.0000
     36 C17        4.3800    5.1222   10.6403 Du        2 SUP2    0.0000
     37 H13        5.7589    6.3882   15.1752 Du        2 SUP2    0.0000
     38 H14        5.4149    6.0965   12.8448 Du        2 SUP2    0.0000
     39 H15        2.2555    3.5398   13.5973 Du        2 SUP2    0.0000
     40 H16        2.4158    3.9593   15.9151 Du        2 SUP2    0.0000
     41 H17        2.9018    3.9316   11.5186 Du        2 SUP2    0.0000
     42 H18        5.0902    5.7895   10.8617 Du        2 SUP2    0.0000
@<TRIPOS>BOND
     1    1    4 2
     2    2    4 2
     3    3    5 1
     4    4   14 1
     5    5    8 ar
     6    6    3 1
     7    7    3 1
     8    8    9 ar
     9    9   10 ar
    10   10   11 ar
    11   11   12 ar
    12   12    5 ar
    13   13   10 1
    14   14   13 2
    15   15    6 1
    16   16    6 1
    17   17    6 1
    18   18    7 1
    19   19    7 1
    20   20    7 1
    21   21    8 1
    22   22    9 1
    23   23   11 1
    24   24   12 1
    25   25   13 1
    26   26   14 1
@<TRIPOS>SUBSTRUCTURE
     1 RES1 1
     2 SUP2 27

@<TRIPOS>CRYSIN
  10.1460    7.3091   25.1662  90.0000  90.0000  90.0000  61 1

