# MOL2 file generated by ConQuest
# Please check atom types

@<TRIPOS>MOLECULE
PEMCAM01
    52    26     2
SMALL
NO_CHARGES
****
Generated from CSD

@<TRIPOS>ATOM
      1 N1         3.8570    0.9207    9.2163 N.pl3     1 RES1    0.0000
      2 N2         4.0798    1.6870   17.1440 N.3       1 RES1    0.0000
      3 O1         4.7305    1.6228    8.7360 O.2       1 RES1    0.0000
      4 O2         3.1207    0.2820    8.4888 O.2       1 RES1    0.0000
      5 C1         4.3067    1.4907   12.9244 C.ar      1 RES1    0.0000
      6 C2         5.1884    2.2368   13.7003 C.ar      1 RES1    0.0000
      7 H1         5.8536    2.7263   13.2711 H         1 RES1    0.0000
      8 C3         5.1193    2.2809   15.0651 C.ar      1 RES1    0.0000
      9 H2         5.7402    2.7905   15.5323 H         1 RES1    0.0000
     10 C4         4.1375    1.5788   15.7794 C.ar      1 RES1    0.0000
     11 C5         3.2558    0.7916   14.9942 C.ar      1 RES1    0.0000
     12 H3         2.5989    0.2873   15.4183 H         1 RES1    0.0000
     13 C6         3.3445    0.7551   13.6331 C.ar      1 RES1    0.0000
     14 H4         2.7463    0.2231   13.1596 H         1 RES1    0.0000
     15 C7         4.4026    1.4840   11.4952 C.2       1 RES1    0.0000
     16 H5         5.0863    1.9996   11.1314 H         1 RES1    0.0000
     17 C8         3.6394    0.8342   10.6247 C.2       1 RES1    0.0000
     18 H6         2.9423    0.3067   10.9415 H         1 RES1    0.0000
     19 C9         5.1430    2.3838   17.8492 C.3       1 RES1    0.0000
     20 H7         4.8852    2.5189   18.7658 H         1 RES1    0.0000
     21 H8         5.2998    3.2344   17.4339 H         1 RES1    0.0000
     22 H9         5.9464    1.8593   17.8163 H         1 RES1    0.0000
     23 C10        3.1248    0.8938   17.9125 C.3       1 RES1    0.0000
     24 H10        3.1619    1.1557   18.8367 H         1 RES1    0.0000
     25 H11        3.3465   -0.0373   17.8365 H         1 RES1    0.0000
     26 H12        2.2400    1.0416   17.5732 H         1 RES1    0.0000
     27 N3         4.0994    1.2162    9.3133 Du        2 SUP2    0.0000
     28 N4         4.1159    1.6564   17.1858 Du        2 SUP2    0.0000
     29 O3         5.0183    1.7310    8.6878 Du        2 SUP2    0.0000
     30 O4         3.2372    0.4096    8.9664 Du        2 SUP2    0.0000
     31 C11        3.9045    1.2080   13.0930 Du        2 SUP2    0.0000
     32 C12        4.8976    2.0354   13.6028 Du        2 SUP2    0.0000
     33 H13        5.4865    2.4666   13.0254 Du        2 SUP2    0.0000
     34 C13        5.0121    2.2189   14.9777 Du        2 SUP2    0.0000
     35 H14        5.6762    2.7725   15.3196 Du        2 SUP2    0.0000
     36 C14        4.1324    1.5750   15.8392 Du        2 SUP2    0.0000
     37 C15        3.1392    0.7476   15.3297 Du        2 SUP2    0.0000
     38 H15        2.5514    0.3164   15.9045 Du        2 SUP2    0.0000
     39 C16        3.0258    0.5641   13.9547 Du        2 SUP2    0.0000
     40 H16        2.3606    0.0104   13.6129 Du        2 SUP2    0.0000
     41 C17        3.7302    0.9990   11.6809 Du        2 SUP2    0.0000
     42 H17        3.0413    0.4268   11.4302 Du        2 SUP2    0.0000
     43 C18        4.4315    1.5221   10.7034 Du        2 SUP2    0.0000
     44 H18        5.1420    2.0899   10.8959 Du        2 SUP2    0.0000
     45 C19        5.0698    2.4189   17.9581 Du        2 SUP2    0.0000
     46 H19        5.9578    2.2264   17.6492 Du        2 SUP2    0.0000
     47 H20        4.9935    2.1809   18.8848 Du        2 SUP2    0.0000
     48 H21        4.8904    3.3560   17.8543 Du        2 SUP2    0.0000
     49 C20        3.1547    0.9259   17.9530 Du        2 SUP2    0.0000
     50 H22        2.2699    1.1766   17.6795 Du        2 SUP2    0.0000
     51 H23        3.2713    1.1259   18.8848 Du        2 SUP2    0.0000
     52 H24        3.2805   -0.0149   17.8112 Du        2 SUP2    0.0000
@<TRIPOS>BOND
     1    1    3 2
     2    2   10 1
     3    4    1 2
     4    5    6 ar
     5    6    7 1
     6    8    6 ar
     7    9    8 1
     8   10    8 ar
     9   11   10 ar
    10   12   11 1
    11   13    5 ar
    12   14   13 1
    13   15    5 1
    14   16   15 1
    15   17    1 1
    16   18   17 1
    17   19    2 1
    18   20   19 1
    19   21   19 1
    20   22   19 1
    21   23    2 1
    22   24   23 1
    23   25   23 1
    24   26   23 1
    25   11   13 ar
    26   15   17 2
@<TRIPOS>SUBSTRUCTURE
     1 RES1 1
     2 SUP2 27

@<TRIPOS>CRYSIN
  10.3129    7.4611   25.3216  90.0000  90.0000  90.0000  61 1

