# MOL2 file generated by ConQuest
# Please check atom types

@<TRIPOS>MOLECULE
PEMCAM04
    52    26     2
SMALL
NO_CHARGES
****
Generated from CSD

@<TRIPOS>ATOM
      1 N1         3.8198    0.8314    9.1623 N.pl3     1 RES1    0.0000
      2 N2         4.0433    1.7207   17.0729 N.3       1 RES1    0.0000
      3 O1         4.7385    1.5403    8.7266 O.2       1 RES1    0.0000
      4 O2         3.0747    0.1679    8.4277 O.2       1 RES1    0.0000
      5 C1         4.2507    1.4578   12.8688 C.ar      1 RES1    0.0000
      6 C2         5.1511    2.2358   13.6131 C.ar      1 RES1    0.0000
      7 H1         5.8225    2.7243   13.1526 H         1 RES1    0.0000
      8 C3         5.0986    2.3182   14.9942 C.ar      1 RES1    0.0000
      9 H2         5.7307    2.8533   15.4603 H         1 RES1    0.0000
     10 C4         4.1091    1.6100   15.7187 C.ar      1 RES1    0.0000
     11 C5         3.2173    0.7968   14.9716 C.ar      1 RES1    0.0000
     12 H3         2.5530    0.2925   15.4276 H         1 RES1    0.0000
     13 C6         3.2972    0.7255   13.5980 C.ar      1 RES1    0.0000
     14 H4         2.6898    0.1650   13.1299 H         1 RES1    0.0000
     15 C7         4.3652    1.4352   11.4326 C.2       1 RES1    0.0000
     16 H5         5.0620    1.9582   11.0535 H         1 RES1    0.0000
     17 C8         3.5900    0.7523   10.5741 C.2       1 RES1    0.0000
     18 H6         2.8827    0.2119   10.9052 H         1 RES1    0.0000
     19 C9         5.0549    2.4662   17.8113 C.3       1 RES1    0.0000
     20 H7         4.8038    2.5080   18.7585 H         1 RES1    0.0000
     21 H8         5.1192    3.3746   17.4488 H         1 RES1    0.0000
     22 H9         5.9215    2.0168   17.7228 H         1 RES1    0.0000
     23 C10        3.0766    0.9259   17.8130 C.3       1 RES1    0.0000
     24 H10        3.1195    1.1613   18.7635 H         1 RES1    0.0000
     25 H11        3.2818   -0.0257   17.7027 H         1 RES1    0.0000
     26 H12        2.1753    1.1078   17.4714 H         1 RES1    0.0000
     27 N3         4.0464    1.0777    9.2913 Du        2 SUP2    0.0000
     28 N4         3.9810    1.7522   17.0868 Du        2 SUP2    0.0000
     29 O3         4.8385    1.5836    8.4969 Du        2 SUP2    0.0000
     30 O4         3.1869    0.3299    8.8237 Du        2 SUP2    0.0000
     31 C11        3.8585    1.1664   13.0244 Du        2 SUP2    0.0000
     32 C12        4.8620    2.0234   13.4567 Du        2 SUP2    0.0000
     33 H13        5.4377    2.4399   12.8233 Du        2 SUP2    0.0000
     34 C13        5.0233    2.2800   14.8142 Du        2 SUP2    0.0000
     35 H14        5.7092    2.8658   15.1084 Du        2 SUP2    0.0000
     36 C14        4.1811    1.6715   15.7393 Du        2 SUP2    0.0000
     37 C15        3.1777    0.8138   15.3044 Du        2 SUP2    0.0000
     38 H15        2.6020    0.3988   15.9379 Du        2 SUP2    0.0000
     39 C16        3.0164    0.5601   13.9495 Du        2 SUP2    0.0000
     40 H16        2.3304   -0.0271   13.6528 Du        2 SUP2    0.0000
     41 C17        3.6962    0.9457   11.6191 Du        2 SUP2    0.0000
     42 H17        3.0031    0.3475   11.3677 Du        2 SUP2    0.0000
     43 C18        4.3832    1.4729   10.6362 Du        2 SUP2    0.0000
     44 H18        5.0825    2.0946   10.8046 Du        2 SUP2    0.0000
     45 C19        5.0529    2.4120   17.8158 Du        2 SUP2    0.0000
     46 H19        5.9073    2.2126   17.3859 Du        2 SUP2    0.0000
     47 H20        5.0620    2.0836   18.7384 Du        2 SUP2    0.0000
     48 H21        4.8977    3.3790   17.8133 Du        2 SUP2    0.0000
     49 C20        3.1338    1.0117   17.9993 Du        2 SUP2    0.0000
     50 H22        2.1967    1.2243   17.8208 Du        2 SUP2    0.0000
     51 H23        3.3573    1.2603   18.9219 Du        2 SUP2    0.0000
     52 H24        3.2849    0.0521   17.8736 Du        2 SUP2    0.0000
@<TRIPOS>BOND
     1    1    3 2
     2    2   10 1
     3    4    1 2
     4    5    6 ar
     5    6    7 1
     6    8    6 ar
     7    9    8 1
     8   10    8 ar
     9   11   10 ar
    10   12   11 1
    11   13    5 ar
    12   14   13 1
    13   15    5 1
    14   16   15 1
    15   17    1 1
    16   18   17 1
    17   19    2 1
    18   20   19 1
    19   21   19 1
    20   22   19 1
    21   23    2 1
    22   24   23 1
    23   25   23 1
    24   26   23 1
    25   11   13 ar
    26   15   17 2
@<TRIPOS>SUBSTRUCTURE
     1 RES1 1
     2 SUP2 27

@<TRIPOS>CRYSIN
  10.2078    7.3313   25.1387  90.0000  90.0000  90.0000  61 1

