# MOL2 file generated by ConQuest
# Please check atom types

@<TRIPOS>MOLECULE
PEMCAM02
    52    26     2
SMALL
NO_CHARGES
****
Generated from CSD

@<TRIPOS>ATOM
      1 N1         3.8386    0.8775    9.1968 N.pl3     1 RES1    0.0000
      2 N2         4.0791    1.6719   17.1214 N.3       1 RES1    0.0000
      3 O1         4.7206    1.5771    8.7305 O.2       1 RES1    0.0000
      4 O2         3.1025    0.2231    8.4498 O.2       1 RES1    0.0000
      5 C1         4.2768    1.4718   12.9067 C.ar      1 RES1    0.0000
      6 C2         5.1743    2.2359   13.6630 C.ar      1 RES1    0.0000
      7 H1         5.8422    2.7235   13.2162 H         1 RES1    0.0000
      8 C3         5.1154    2.3019   15.0392 C.ar      1 RES1    0.0000
      9 H2         5.7425    2.8251   15.5034 H         1 RES1    0.0000
     10 C4         4.1264    1.5941   15.7627 C.ar      1 RES1    0.0000
     11 C5         3.2382    0.7959   14.9965 C.ar      1 RES1    0.0000
     12 H3         2.5762    0.2927   15.4353 H         1 RES1    0.0000
     13 C6         3.3238    0.7411   13.6257 C.ar      1 RES1    0.0000
     14 H4         2.7211    0.1949   13.1556 H         1 RES1    0.0000
     15 C7         4.3916    1.4644   11.4709 C.2       1 RES1    0.0000
     16 H5         5.0835    1.9832   11.1031 H         1 RES1    0.0000
     17 C8         3.6218    0.8011   10.6050 C.2       1 RES1    0.0000
     18 H6         2.9185    0.2690   10.9314 H         1 RES1    0.0000
     19 C9         5.0958    2.4227   17.8437 C.3       1 RES1    0.0000
     20 H7         4.9170    2.3767   18.7955 H         1 RES1    0.0000
     21 H8         5.0784    3.3490   17.5559 H         1 RES1    0.0000
     22 H9         5.9686    2.0432   17.6594 H         1 RES1    0.0000
     23 C10        3.0902    0.9175   17.8791 C.3       1 RES1    0.0000
     24 H10        3.1108    1.1984   18.8081 H         1 RES1    0.0000
     25 H11        3.2948   -0.0296   17.8235 H         1 RES1    0.0000
     26 H12        2.2082    1.0798   17.5105 H         1 RES1    0.0000
     27 N3         4.1069    1.1561    9.3006 Du        2 SUP2    0.0000
     28 N4         4.0298    1.8379   17.1268 Du        2 SUP2    0.0000
     29 O3         5.0270    1.7045    8.6947 Du        2 SUP2    0.0000
     30 O4         3.2177    0.3883    8.8966 Du        2 SUP2    0.0000
     31 C11        3.8869    1.1887   13.0597 Du        2 SUP2    0.0000
     32 C12        4.8810    2.0306   13.5444 Du        2 SUP2    0.0000
     33 H13        5.4659    2.4597   12.9460 Du        2 SUP2    0.0000
     34 C13        5.0115    2.2374   14.9127 Du        2 SUP2    0.0000
     35 H14        5.6839    2.8065   15.2384 Du        2 SUP2    0.0000
     36 C14        4.1470    1.6008   15.7963 Du        2 SUP2    0.0000
     37 C15        3.1519    0.7619   15.3116 Du        2 SUP2    0.0000
     38 H15        2.5669    0.3328   15.9099 Du        2 SUP2    0.0000
     39 C16        3.0223    0.5543   13.9433 Du        2 SUP2    0.0000
     40 H16        2.3490   -0.0148   13.6176 Du        2 SUP2    0.0000
     41 C17        3.7101    0.9827   11.6560 Du        2 SUP2    0.0000
     42 H17        3.0059    0.4128   11.4061 Du        2 SUP2    0.0000
     43 C18        4.4102    1.4911   10.6790 Du        2 SUP2    0.0000
     44 H18        5.1174    2.0788   10.8734 Du        2 SUP2    0.0000
     45 C19        5.0784    2.4308   17.9346 Du        2 SUP2    0.0000
     46 H19        5.7270    1.7527   18.1669 Du        2 SUP2    0.0000
     47 H20        4.6877    2.7991   18.7450 Du        2 SUP2    0.0000
     48 H21        5.5081    3.1393   17.4322 Du        2 SUP2    0.0000
     49 C20        3.2074    0.9338   17.8841 Du        2 SUP2    0.0000
     50 H22        2.2678    1.1443   17.7352 Du        2 SUP2    0.0000
     51 H23        3.4089    1.0153   18.8283 Du        2 SUP2    0.0000
     52 H24        3.3750    0.0200   17.5963 Du        2 SUP2    0.0000
@<TRIPOS>BOND
     1    1    3 2
     2    2   10 1
     3    4    1 2
     4    5    6 ar
     5    6    7 1
     6    8    6 ar
     7    9    8 1
     8   10    8 ar
     9   11   10 ar
    10   12   11 1
    11   13    5 ar
    12   14   13 1
    13   15    5 1
    14   16   15 1
    15   17    1 1
    16   18   17 1
    17   19    2 1
    18   20   19 1
    19   21   19 1
    20   22   19 1
    21   23    2 1
    22   24   23 1
    23   25   23 1
    24   26   23 1
    25   11   13 ar
    26   15   17 2
@<TRIPOS>SUBSTRUCTURE
     1 RES1 1
     2 SUP2 27

@<TRIPOS>CRYSIN
  10.2801    7.4110   25.2458  90.0000  90.0000  90.0000  61 1

