# MOL2 file generated by ConQuest
# Please check atom types

@<TRIPOS>MOLECULE
PEMCAM05
    52    26     2
SMALL
NO_CHARGES
****
Generated from CSD

@<TRIPOS>ATOM
      1 N1         3.8033    0.8156    9.1545 N.pl3     1 RES1    0.0000
      2 N2         4.0318    1.7204   17.0619 N.3       1 RES1    0.0000
      3 O1         4.7180    1.5219    8.7155 O.2       1 RES1    0.0000
      4 O2         3.0555    0.1480    8.4205 O.2       1 RES1    0.0000
      5 C1         4.2348    1.4483   12.8592 C.ar      1 RES1    0.0000
      6 C2         5.1374    2.2310   13.5993 C.ar      1 RES1    0.0000
      7 H1         5.8058    2.7199   13.1342 H         1 RES1    0.0000
      8 C3         5.0901    2.3172   14.9805 C.ar      1 RES1    0.0000
      9 H2         5.7245    2.8520   15.4421 H         1 RES1    0.0000
     10 C4         4.0989    1.6102   15.7078 C.ar      1 RES1    0.0000
     11 C5         3.2048    0.7913   14.9645 C.ar      1 RES1    0.0000
     12 H3         2.5432    0.2867   15.4220 H         1 RES1    0.0000
     13 C6         3.2809    0.7165   13.5918 C.ar      1 RES1    0.0000
     14 H4         2.6723    0.1547   13.1267 H         1 RES1    0.0000
     15 C7         4.3483    1.4250   11.4225 C.2       1 RES1    0.0000
     16 H5         5.0417    1.9502   11.0423 H         1 RES1    0.0000
     17 C8         3.5728    0.7364   10.5659 C.2       1 RES1    0.0000
     18 H6         2.8673    0.1941   10.8991 H         1 RES1    0.0000
     19 C9         5.0428    2.4741   17.7972 C.3       1 RES1    0.0000
     20 H7         4.8152    2.4814   18.7495 H         1 RES1    0.0000
     21 H8         5.0722    3.3941   17.4612 H         1 RES1    0.0000
     22 H9         5.9186    2.0524   17.6747 H         1 RES1    0.0000
     23 C10        3.0604    0.9237   17.8012 C.3       1 RES1    0.0000
     24 H10        3.1071    1.1513   18.7520 H         1 RES1    0.0000
     25 H11        3.2606   -0.0285   17.6822 H         1 RES1    0.0000
     26 H12        2.1591    1.1119   17.4637 H         1 RES1    0.0000
     27 N3         4.0927    1.0871    9.2617 Du        2 SUP2    0.0000
     28 N4         3.9017    1.8021   17.1021 Du        2 SUP2    0.0000
     29 O3         4.8792    1.5978    8.4631 Du        2 SUP2    0.0000
     30 O4         3.2006    0.3422    8.8549 Du        2 SUP2    0.0000
     31 C11        3.8255    1.1396   13.0413 Du        2 SUP2    0.0000
     32 C12        4.8152    2.0042   13.4933 Du        2 SUP2    0.0000
     33 H13        5.3974    2.4274   12.8730 Du        2 SUP2    0.0000
     34 C13        4.9523    2.2472   14.8545 Du        2 SUP2    0.0000
     35 H14        5.6280    2.8418   15.1659 Du        2 SUP2    0.0000
     36 C14        4.0998    1.6343   15.7636 Du        2 SUP2    0.0000
     37 C15        3.1102    0.7661   15.3090 Du        2 SUP2    0.0000
     38 H15        2.5280    0.3451   15.9293 Du        2 SUP2    0.0000
     39 C16        2.9740    0.5209   13.9479 Du        2 SUP2    0.0000
     40 H16        2.2973   -0.0700   13.6365 Du        2 SUP2    0.0000
     41 C17        3.6761    0.9397   11.6249 Du        2 SUP2    0.0000
     42 H17        2.9700    0.3597   11.3637 Du        2 SUP2    0.0000
     43 C18        4.3874    1.4534   10.6354 Du        2 SUP2    0.0000
     44 H18        5.0925    2.0611   10.8238 Du        2 SUP2    0.0000
     45 C19        4.9889    2.4369   17.8304 Du        2 SUP2    0.0000
     46 H19        5.7449    1.8087   17.8932 Du        2 SUP2    0.0000
     47 H20        4.6902    2.6893   18.7144 Du        2 SUP2    0.0000
     48 H21        5.2825    3.2350   17.3331 Du        2 SUP2    0.0000
     49 C20        3.1295    1.0433   18.0539 Du        2 SUP2    0.0000
     50 H22        2.1703    1.1717   17.8706 Du        2 SUP2    0.0000
     51 H23        3.3286    1.3476   18.9605 Du        2 SUP2    0.0000
     52 H24        3.3459    0.0897   17.9710 Du        2 SUP2    0.0000
@<TRIPOS>BOND
     1    1    3 2
     2    2   10 1
     3    4    1 2
     4    5    6 ar
     5    6    7 1
     6    8    6 ar
     7    9    8 1
     8   10    8 ar
     9   11   10 ar
    10   12   11 1
    11   13    5 ar
    12   14   13 1
    13   15    5 1
    14   16   15 1
    15   17    1 1
    16   18   17 1
    17   19    2 1
    18   20   19 1
    19   21   19 1
    20   22   19 1
    21   23    2 1
    22   24   23 1
    23   25   23 1
    24   26   23 1
    25   11   13 ar
    26   15   17 2
@<TRIPOS>SUBSTRUCTURE
     1 RES1 1
     2 SUP2 27

@<TRIPOS>CRYSIN
  10.1607    7.2960   25.1132  90.0000  90.0000  90.0000  61 1

