# MOL2 file generated by ConQuest
# Please check atom types

@<TRIPOS>MOLECULE
PEMCAM03
    52    26     2
SMALL
NO_CHARGES
****
Generated from CSD

@<TRIPOS>ATOM
      1 N1         3.8349    0.8490    9.1723 N.pl3     1 RES1    0.0000
      2 N2         4.0536    1.7104   17.0826 N.3       1 RES1    0.0000
      3 O1         4.7503    1.5529    8.7342 O.2       1 RES1    0.0000
      4 O2         3.0892    0.1892    8.4365 O.2       1 RES1    0.0000
      5 C1         4.2642    1.4648   12.8772 C.ar      1 RES1    0.0000
      6 C2         5.1618    2.2388   13.6254 C.ar      1 RES1    0.0000
      7 H1         5.8344    2.7288   13.1666 H         1 RES1    0.0000
      8 C3         5.1076    2.3164   15.0044 C.ar      1 RES1    0.0000
      9 H2         5.7391    2.8517   15.4717 H         1 RES1    0.0000
     10 C4         4.1202    1.6081   15.7284 C.ar      1 RES1    0.0000
     11 C5         3.2292    0.8004   14.9772 C.ar      1 RES1    0.0000
     12 H3         2.5637    0.2960   15.4290 H         1 RES1    0.0000
     13 C6         3.3097    0.7346   13.6040 C.ar      1 RES1    0.0000
     14 H4         2.7000    0.1775   13.1339 H         1 RES1    0.0000
     15 C7         4.3796    1.4452   11.4425 C.2       1 RES1    0.0000
     16 H5         5.0782    1.9667   11.0653 H         1 RES1    0.0000
     17 C8         3.6039    0.7678   10.5821 C.2       1 RES1    0.0000
     18 H6         2.8947    0.2290   10.9118 H         1 RES1    0.0000
     19 C9         5.0557    2.4622   17.8250 C.3       1 RES1    0.0000
     20 H7         4.8261    2.4607   18.7785 H         1 RES1    0.0000
     21 H8         5.0803    3.3856   17.4976 H         1 RES1    0.0000
     22 H9         5.9348    2.0477   17.6989 H         1 RES1    0.0000
     23 C10        3.0914    0.9255   17.8323 C.3       1 RES1    0.0000
     24 H10        3.1262    1.1810   18.7785 H         1 RES1    0.0000
     25 H11        3.3056   -0.0265   17.7442 H         1 RES1    0.0000
     26 H12        2.1907    1.0919   17.4825 H         1 RES1    0.0000
     27 N3         4.0566    1.1045    9.2861 Du        2 SUP2    0.0000
     28 N4         4.0269    1.8040   17.1025 Du        2 SUP2    0.0000
     29 O3         4.8876    1.6420    8.5361 Du        2 SUP2    0.0000
     30 O4         3.2103    0.3534    8.8079 Du        2 SUP2    0.0000
     31 C11        3.8927    1.1855   13.0307 Du        2 SUP2    0.0000
     32 C12        4.8897    2.0469   13.4786 Du        2 SUP2    0.0000
     33 H13        5.4707    2.4637   12.8545 Du        2 SUP2    0.0000
     34 C13        5.0362    2.2899   14.8376 Du        2 SUP2    0.0000
     35 H14        5.7166    2.8775   15.1446 Du        2 SUP2    0.0000
     36 C14        4.1857    1.6788   15.7511 Du        2 SUP2    0.0000
     37 C15        3.1887    0.8173   15.3031 Du        2 SUP2    0.0000
     38 H15        2.6078    0.3976   15.9272 Du        2 SUP2    0.0000
     39 C16        3.0432    0.5714   13.9417 Du        2 SUP2    0.0000
     40 H16        2.3618   -0.0162   13.6372 Du        2 SUP2    0.0000
     41 C17        3.7185    0.9719   11.6290 Du        2 SUP2    0.0000
     42 H17        3.0105    0.3866   11.3849 Du        2 SUP2    0.0000
     43 C18        4.4019    1.4726   10.6375 Du        2 SUP2    0.0000
     44 H18        5.1202    2.0705   10.8061 Du        2 SUP2    0.0000
     45 C19        5.1745    2.3194   17.8323 Du        2 SUP2    0.0000
     46 H19        5.6110    3.0240   17.3038 Du        2 SUP2    0.0000
     47 H20        5.8129    1.5963   17.9958 Du        2 SUP2    0.0000
     48 H21        4.8774    2.6964   18.6854 Du        2 SUP2    0.0000
     49 C20        3.1252    0.9867   17.8725 Du        2 SUP2    0.0000
     50 H22        2.2174    1.3460   17.8046 Du        2 SUP2    0.0000
     51 H23        3.4060    0.9800   18.8112 Du        2 SUP2    0.0000
     52 H24        3.1396    0.0685   17.5227 Du        2 SUP2    0.0000
@<TRIPOS>BOND
     1    1    3 2
     2    2   10 1
     3    4    1 2
     4    5    6 ar
     5    6    7 1
     6    8    6 ar
     7    9    8 1
     8   10    8 ar
     9   11   10 ar
    10   12   11 1
    11   13    5 ar
    12   14   13 1
    13   15    5 1
    14   16   15 1
    15   17    1 1
    16   18   17 1
    17   19    2 1
    18   20   19 1
    19   21   19 1
    20   22   19 1
    21   23    2 1
    22   24   23 1
    23   25   23 1
    24   26   23 1
    25   11   13 ar
    26   15   17 2
@<TRIPOS>SUBSTRUCTURE
     1 RES1 1
     2 SUP2 27

@<TRIPOS>CRYSIN
  10.2466    7.3631   25.1655  90.0000  90.0000  90.0000  61 1

