# MOL2 file generated by ConQuest
# Please check atom types

@<TRIPOS>MOLECULE
PEMGAQ
    40    41     1
SMALL
NO_CHARGES
****
Generated from CSD

@<TRIPOS>ATOM
      1 N1         1.2158    6.3618    9.5259 N.2       1 RES1    0.0000
      2 N2        -3.5088    3.5368   12.8275 N.3       1 RES1    0.0000
      3 O1         2.4613    6.4540    8.7845 O.3       1 RES1    0.0000
      4 O2         2.1449    8.6897    8.7512 O.2       1 RES1    0.0000
      5 C1         2.7696    7.7256    8.3961 C.2       1 RES1    0.0000
      6 C2         3.9357    7.7051    7.5226 C.2       1 RES1    0.0000
      7 H1         4.2368    6.8903    7.1917 H         1 RES1    0.0000
      8 C3         4.5768    8.8115    7.1878 C.2       1 RES1    0.0000
      9 H2         4.2793    9.5988    7.5825 H         1 RES1    0.0000
     10 C4         5.7028    8.9332    6.2645 C.ar      1 RES1    0.0000
     11 C5         6.3931   10.1324    6.1812 C.ar      1 RES1    0.0000
     12 H3         6.1428   10.8434    6.7268 H         1 RES1    0.0000
     13 C6         7.4511   10.2887    5.2985 C.ar      1 RES1    0.0000
     14 H4         7.9086   11.0971    5.2662 H         1 RES1    0.0000
     15 C7         7.8258    9.2624    4.4746 C.ar      1 RES1    0.0000
     16 H5         8.5349    9.3726    3.8818 H         1 RES1    0.0000
     17 C8         7.1455    8.0620    4.5275 C.ar      1 RES1    0.0000
     18 H6         7.3888    7.3631    3.9641 H         1 RES1    0.0000
     19 C9         6.0994    7.8992    5.4188 C.ar      1 RES1    0.0000
     20 H7         5.6529    7.0844    5.4534 H         1 RES1    0.0000
     21 C10        1.0359    5.1568    9.8713 C.2       1 RES1    0.0000
     22 H8         1.6823    4.5226    9.6561 H         1 RES1    0.0000
     23 C11       -0.1431    4.7436   10.5892 C.ar      1 RES1    0.0000
     24 C12       -1.1677    5.6277   10.9150 C.ar      1 RES1    0.0000
     25 H9        -1.0938    6.5175   10.6538 H         1 RES1    0.0000
     26 C13       -2.2833    5.2331   11.6085 C.ar      1 RES1    0.0000
     27 H10       -2.9599    5.8500   11.7749 H         1 RES1    0.0000
     28 C14       -2.4244    3.9134   12.0736 C.ar      1 RES1    0.0000
     29 C15       -1.4094    3.0204   11.7319 C.ar      1 RES1    0.0000
     30 H11       -1.4759    2.1306   11.9950 H         1 RES1    0.0000
     31 C16       -0.3110    3.4343   11.0121 C.ar      1 RES1    0.0000
     32 H12        0.3440    2.8103   10.8019 H         1 RES1    0.0000
     33 C17       -4.6143    4.4406   13.0688 C.3       1 RES1    0.0000
     34 H13       -4.2935    5.2267   13.5173 H         1 RES1    0.0000
     35 H14       -5.2701    4.0050   13.6160 H         1 RES1    0.0000
     36 H15       -5.0116    4.6905   12.2316 H         1 RES1    0.0000
     37 C18       -3.7290    2.1716   13.2093 C.3       1 RES1    0.0000
     38 H16       -4.0100    1.6662   12.4435 H         1 RES1    0.0000
     39 H17       -4.4093    2.1338   13.8855 H         1 RES1    0.0000
     40 H18       -2.9144    1.8001   13.5543 H         1 RES1    0.0000
@<TRIPOS>BOND
     1    1    3 1
     2    2   28 1
     3    3    5 1
     4    4    5 2
     5    5    6 1
     6    6    7 1
     7    8    6 2
     8    9    8 1
     9   10    8 1
    10   11   10 ar
    11   12   11 1
    12   13   11 ar
    13   14   13 1
    14   15   13 ar
    15   16   15 1
    16   17   15 ar
    17   18   17 1
    18   19   10 ar
    19   20   19 1
    20   21    1 2
    21   22   21 1
    22   23   21 1
    23   24   23 ar
    24   25   24 1
    25   26   24 ar
    26   27   26 1
    27   28   26 ar
    28   29   28 ar
    29   30   29 1
    30   31   23 ar
    31   32   31 1
    32   33    2 1
    33   34   33 1
    34   35   33 1
    35   36   33 1
    36   37    2 1
    37   38   37 1
    38   39   37 1
    39   40   37 1
    40   17   19 ar
    41   29   31 ar
@<TRIPOS>SUBSTRUCTURE
     1 RES1 1

@<TRIPOS>CRYSIN
  23.8800    6.4060   21.4100  90.0000 106.0920  90.0000  15 1

