# MOL2 file generated by ConQuest
# Please check atom types

@<TRIPOS>MOLECULE
PEMLUP
    53    57     1
SMALL
NO_CHARGES
****
Generated from CSD

@<TRIPOS>ATOM
      1 O1         2.0228    9.1699    4.0558 O.3       1 RES1    0.0000
      2 N1        -0.9876    9.7463    8.5938 N.pl3     1 RES1    0.0000
      3 H1        -1.7582    9.4646    8.8507 H         1 RES1    0.0000
      4 C1         2.0489    7.9441    3.3404 C.3       1 RES1    0.0000
      5 H2         2.6554    8.0189    2.5986 H         1 RES1    0.0000
      6 H3         1.1689    7.7448    3.0155 H         1 RES1    0.0000
      7 H4         2.3424    7.2395    3.9231 H         1 RES1    0.0000
      8 O2         4.1871    7.1141   11.6640 O.3       1 RES1    0.0000
      9 N2         2.5949   12.2605   12.6763 N.pl3     1 RES1    0.0000
     10 H5         2.5657   12.7405   13.3887 H         1 RES1    0.0000
     11 C2         1.1957    9.2457    5.1643 C.ar      1 RES1    0.0000
     12 C3        -0.0307    8.5907    5.2123 C.ar      1 RES1    0.0000
     13 H6        -0.3074    8.0742    4.4896 H         1 RES1    0.0000
     14 N3         4.0591   15.3838    6.3469 N.pl3     1 RES1    0.0000
     15 O3         5.0600   14.7186    6.2138 O.2       1 RES1    0.0000
     16 C4        -0.8322    8.7011    6.3163 C.ar      1 RES1    0.0000
     17 H7        -1.6522    8.2632    6.3553 H         1 RES1    0.0000
     18 O4         3.9156   16.4786    5.8198 O.2       1 RES1    0.0000
     19 C5        -0.3947    9.4805    7.3768 C.ar      1 RES1    0.0000
     20 C6        -0.1350   10.5369    9.3215 C.2       1 RES1    0.0000
     21 H8        -0.3026   10.8391   10.1857 H         1 RES1    0.0000
     22 C7         0.9827   10.8167    8.6119 C.2       1 RES1    0.0000
     23 C8         0.8355   10.1449    7.3450 C.ar      1 RES1    0.0000
     24 C9         1.6455   10.0223    6.2104 C.ar      1 RES1    0.0000
     25 H9         2.4679   10.4555    6.1637 H         1 RES1    0.0000
     26 C10        3.9194    6.5536   10.3765 C.3       1 RES1    0.0000
     27 H10        4.2534    5.6544   10.3437 H         1 RES1    0.0000
     28 H11        4.3534    7.0814    9.7014 H         1 RES1    0.0000
     29 H12        2.9726    6.5490   10.2194 H         1 RES1    0.0000
     30 C11        3.7681    8.4148   11.8729 C.ar      1 RES1    0.0000
     31 C12        3.9301    8.8583   13.2017 C.ar      1 RES1    0.0000
     32 H13        4.2919    8.2791   13.8330 H         1 RES1    0.0000
     33 C13        3.5675   10.1168   13.5824 C.ar      1 RES1    0.0000
     34 H14        3.6693   10.4022   14.4626 H         1 RES1    0.0000
     35 C14        3.0396   10.9580   12.6089 C.ar      1 RES1    0.0000
     36 C15        2.2086   12.6675   11.4343 C.2       1 RES1    0.0000
     37 H15        1.8821   13.5143   11.2323 H         1 RES1    0.0000
     38 C16        2.3661   11.6607   10.5258 C.2       1 RES1    0.0000
     39 C17        2.8875   10.5453   11.2700 C.ar      1 RES1    0.0000
     40 C18        3.2530    9.2391   10.8975 C.ar      1 RES1    0.0000
     41 H16        3.1510    8.9425   10.0215 H         1 RES1    0.0000
     42 C19        2.1600   11.6654    9.0364 C.3       1 RES1    0.0000
     43 H17        2.9591   11.2602    8.6380 H         1 RES1    0.0000
     44 C20        2.0491   13.0792    8.4645 C.ar      1 RES1    0.0000
     45 C21        0.9387   13.8671    8.6807 C.ar      1 RES1    0.0000
     46 H18        0.2437   13.5312    9.1981 H         1 RES1    0.0000
     47 C22        0.8251   15.1443    8.1518 C.ar      1 RES1    0.0000
     48 H19        0.0624   15.6515    8.3116 H         1 RES1    0.0000
     49 C23        1.8534   15.6571    7.3880 C.ar      1 RES1    0.0000
     50 H20        1.7986   16.5114    7.0249 H         1 RES1    0.0000
     51 C24        2.9581   14.8730    7.1797 C.ar      1 RES1    0.0000
     52 C25        3.0846   13.5929    7.7036 C.ar      1 RES1    0.0000
     53 H21        3.8505   13.0904    7.5451 H         1 RES1    0.0000
@<TRIPOS>BOND
     1    1    4 1
     2    2    3 1
     3    4    5 1
     4    6    4 1
     5    7    4 1
     6    8   26 1
     7    9   10 1
     8   11    1 1
     9   12   11 ar
    10   13   12 1
    11   14   15 2
    12   16   12 ar
    13   17   16 1
    14   18   14 2
    15   19    2 1
    16   20    2 1
    17   21   20 1
    18   22   20 2
    19   23   19 ar
    20   24   11 ar
    21   25   24 1
    22   26   27 1
    23   28   26 1
    24   29   26 1
    25   30    8 1
    26   31   30 ar
    27   32   31 1
    28   33   31 ar
    29   34   33 1
    30   35    9 1
    31   36    9 1
    32   37   36 1
    33   38   36 2
    34   39   35 ar
    35   40   30 ar
    36   41   40 1
    37   42   22 1
    38   43   42 1
    39   44   42 1
    40   45   44 ar
    41   46   45 1
    42   47   45 ar
    43   48   47 1
    44   49   47 ar
    45   50   49 1
    46   51   14 1
    47   52   44 ar
    48   53   52 1
    49   16   19 ar
    50   22   23 1
    51   23   24 ar
    52   33   35 ar
    53   38   39 1
    54   38   42 1
    55   39   40 ar
    56   49   51 ar
    57   51   52 ar
@<TRIPOS>SUBSTRUCTURE
     1 RES1 1

@<TRIPOS>CRYSIN
  10.6310    9.3570   21.0720  90.0000  92.0900  90.0000  14 1

