# MOL2 file generated by ConQuest
# Please check atom types

@<TRIPOS>MOLECULE
PENGOG
    43    45     1
SMALL
NO_CHARGES
****
Generated from CSD

@<TRIPOS>ATOM
      1 O1         1.6425   -2.2235    9.7932 O.3       1 RES1    0.0000
      2 O2         3.5005   -1.3459   12.6311 O.2       1 RES1    0.0000
      3 O3         3.7753   -2.9186   11.0327 O.3       1 RES1    0.0000
      4 O4        -0.1903   -0.5312    6.3300 O.3       1 RES1    0.0000
      5 O5        -1.7258    0.9017    7.1286 O.3       1 RES1    0.0000
      6 N1         1.9342   -1.6304   11.0305 N.am      1 RES1    0.0000
      7 C1         2.1621   -1.3790    8.7417 C.3       1 RES1    0.0000
      8 H1         1.9427   -1.7785    7.8628 H         1 RES1    0.0000
      9 H2         3.1479   -1.3316    8.8175 H         1 RES1    0.0000
     10 C2         1.5901    0.0113    8.8121 C.3       1 RES1    0.0000
     11 H3         2.1331    0.6258    8.2401 H         1 RES1    0.0000
     12 C3         1.4064    0.6403   10.2207 C.3       1 RES1    0.0000
     13 H4         2.1317    1.2832   10.4655 H         1 RES1    0.0000
     14 C4         1.1624   -0.4245   11.2782 C.3       1 RES1    0.0000
     15 H5         1.4029   -0.0607   12.1671 H         1 RES1    0.0000
     16 H6         0.1990   -0.6523   11.2940 H         1 RES1    0.0000
     17 C5         3.1226   -1.9063   11.6314 C.2       1 RES1    0.0000
     18 C6         4.9454   -3.3801   11.7583 C.3       1 RES1    0.0000
     19 H7         4.6869   -3.6863   12.6642 H         1 RES1    0.0000
     20 H8         5.6017   -2.6448   11.8510 H         1 RES1    0.0000
     21 C7         5.5415   -4.5086   10.9829 C.3       1 RES1    0.0000
     22 H9         6.3040   -4.8776   11.4763 H         1 RES1    0.0000
     23 H10        5.8441   -4.1816   10.1099 H         1 RES1    0.0000
     24 H11        4.8674   -5.2087   10.8543 H         1 RES1    0.0000
     25 C8         0.0897    0.2597    8.5553 C.3       1 RES1    0.0000
     26 H12       -0.4302   -0.5309    8.8787 H         1 RES1    0.0000
     27 C9         0.1139    1.3398    9.6729 C.3       1 RES1    0.0000
     28 C10        0.4588    2.7368    9.1680 C.3       1 RES1    0.0000
     29 H13       -0.2811    3.0793    8.6250 H         1 RES1    0.0000
     30 H14        1.2726    2.6955    8.6238 H         1 RES1    0.0000
     31 H15        0.6074    3.3329    9.9315 H         1 RES1    0.0000
     32 C11       -1.1121    1.4244   10.5651 C.3       1 RES1    0.0000
     33 H16       -1.8495    1.8357   10.0679 H         1 RES1    0.0000
     34 H17       -0.9053    1.9686   11.3539 H         1 RES1    0.0000
     35 H18       -1.3717    0.5232   10.8492 H         1 RES1    0.0000
     36 C12       -0.3519    0.5957    7.1672 C.3       1 RES1    0.0000
     37 H19        0.1813    1.3648    6.8139 H         1 RES1    0.0000
     38 C13       -1.1427   -0.3920    5.2798 C.3       1 RES1    0.0000
     39 H20       -1.6001   -1.2519    5.1047 H         1 RES1    0.0000
     40 H21       -0.7039   -0.0878    4.4457 H         1 RES1    0.0000
     41 C14       -2.1295    0.6512    5.7818 C.3       1 RES1    0.0000
     42 H22       -2.0776    1.4774    5.2385 H         1 RES1    0.0000
     43 H23       -3.0566    0.3048    5.7496 H         1 RES1    0.0000
@<TRIPOS>BOND
     1    1    6 1
     2    2   17 2
     3    3   17 1
     4    4   36 1
     5    5   36 1
     6    6   14 1
     7    7    1 1
     8    8    7 1
     9    9    7 1
    10   10    7 1
    11   11   10 1
    12   12   10 1
    13   13   12 1
    14   14   12 1
    15   15   14 1
    16   16   14 1
    17   17    6 1
    18   18    3 1
    19   19   18 1
    20   20   18 1
    21   21   18 1
    22   22   21 1
    23   23   21 1
    24   24   21 1
    25   25   10 1
    26   26   25 1
    27   27   12 1
    28   28   27 1
    29   29   28 1
    30   30   28 1
    31   31   28 1
    32   32   27 1
    33   33   32 1
    34   34   32 1
    35   35   32 1
    36   36   25 1
    37   37   36 1
    38   38    4 1
    39   39   38 1
    40   40   38 1
    41   41    5 1
    42   42   41 1
    43   43   41 1
    44   25   27 1
    45   38   41 1
@<TRIPOS>SUBSTRUCTURE
     1 RES1 1

@<TRIPOS>CRYSIN
   6.2528    9.4257   13.6643 104.1870 101.9320 102.1610   2 1

