# MOL2 file generated by ConQuest
# Please check atom types

@<TRIPOS>MOLECULE
PENVUZ
    34    38     1
SMALL
NO_CHARGES
****
Generated from CSD

@<TRIPOS>ATOM
      1 O1         3.0131   -2.1482    1.3972 O.3       1 RES1    0.0000
      2 O2        -1.1644    8.6204    4.2384 O.3       1 RES1    0.0000
      3 O3         0.0076   10.5809    5.6605 O.3       1 RES1    0.0000
      4 O4         4.3944   -2.8380    2.8972 O.2       1 RES1    0.0000
      5 N1         1.1048   11.4722    5.8690 N.2       1 RES1    0.0000
      6 C1         3.1304    1.5784    1.8640 C.3       1 RES1    0.0000
      7 C2         3.3701    0.2125    1.1950 C.3       1 RES1    0.0000
      8 C3         2.8659   -0.8734    2.0819 C.3       1 RES1    0.0000
      9 C4         1.3547   -0.7050    2.3619 C.3       1 RES1    0.0000
     10 C5         1.0718    0.6595    2.9532 C.2       1 RES1    0.0000
     11 C6         0.3983    0.7768    4.0735 C.2       1 RES1    0.0000
     12 C7         0.0374    2.0613    4.7239 C.3       1 RES1    0.0000
     13 C8         0.2328    3.2561    3.8276 C.3       1 RES1    0.0000
     14 C9         1.5481    3.1374    3.0559 C.3       1 RES1    0.0000
     15 C10        1.6248    1.8543    2.1846 C.3       1 RES1    0.0000
     16 C11        1.8753    4.4206    2.2748 C.3       1 RES1    0.0000
     17 C12        1.8284    5.7133    3.1026 C.3       1 RES1    0.0000
     18 C13        0.4268    5.8458    3.7996 C.3       1 RES1    0.0000
     19 C14        0.2454    4.5599    4.6212 C.3       1 RES1    0.0000
     20 C15       -0.9367    4.8676    5.5361 C.3       1 RES1    0.0000
     21 C16       -0.7363    6.3577    5.8846 C.3       1 RES1    0.0000
     22 C17        0.3691    6.8971    4.9417 C.3       1 RES1    0.0000
     23 C18       -0.6881    6.0265    2.7789 C.3       1 RES1    0.0000
     24 C19        0.8460    2.0144    0.8682 C.3       1 RES1    0.0000
     25 C20        0.2201    8.3955    4.6243 C.3       1 RES1    0.0000
     26 C21        1.1282    8.9032    3.5382 C.3       1 RES1    0.0000
     27 C22        0.4313    9.1943    5.9064 C.3       1 RES1    0.0000
     28 C23        1.8639    9.3475    6.4198 C.3       1 RES1    0.0000
     29 C24        2.1005   10.8086    6.2643 C.2       1 RES1    0.0000
     30 C25        3.4234   11.4943    6.4883 C.3       1 RES1    0.0000
     31 C26        3.3194   13.0161    6.3483 C.3       1 RES1    0.0000
     32 C27        4.0056   11.0638    7.8358 C.3       1 RES1    0.0000
     33 C28        3.8160   -3.0312    1.8920 C.2       1 RES1    0.0000
     34 C29        3.8547   -4.2867    1.1047 C.3       1 RES1    0.0000
@<TRIPOS>BOND
     1    1    8 1
     2    2   25 1
     3    3    5 1
     4    4   33 2
     5    5   29 2
     6    6    7 1
     7    7    8 1
     8    8    9 1
     9    9   10 1
    10   10   11 2
    11   11   12 1
    12   12   13 1
    13   13   14 1
    14   14   15 1
    15   15    6 1
    16   16   14 1
    17   17   16 1
    18   18   17 1
    19   19   13 1
    20   20   19 1
    21   21   20 1
    22   22   18 1
    23   23   18 1
    24   24   15 1
    25   25   22 1
    26   26   25 1
    27   27    3 1
    28   28   27 1
    29   29   28 1
    30   30   29 1
    31   31   30 1
    32   32   30 1
    33   33    1 1
    34   34   33 1
    35   10   15 1
    36   18   19 1
    37   21   22 1
    38   25   27 1
@<TRIPOS>SUBSTRUCTURE
     1 RES1 1

@<TRIPOS>CRYSIN
   6.3420   13.7970   31.1190  90.0000  90.0000  90.0000  19 1

