# MOL2 file generated by ConQuest
# Please check atom types

@<TRIPOS>MOLECULE
PEPDEU
    80    74     3
SMALL
NO_CHARGES
****
Generated from CSD

@<TRIPOS>ATOM
      1 C1         0.0961    0.7752    5.6994 C.2       1 RES1    0.0000
      2 C2         0.1370   -0.6145    6.1954 C.2       1 RES1    0.0000
      3 C3         0.6112   -1.4315    5.2215 C.2       1 RES1    0.0000
      4 C4         0.9483   -0.6700    3.9794 C.3       1 RES1    0.0000
      5 H1         0.4538   -1.0173    3.2207 H         1 RES1    0.0000
      6 H2         1.8971   -0.7304    3.7865 H         1 RES1    0.0000
      7 C5         0.5482    0.7783    4.2644 C.3       1 RES1    0.0000
      8 H3         1.3041    1.3736    4.1428 H         1 RES1    0.0000
      9 H4        -0.1706    1.0585    3.6776 H         1 RES1    0.0000
     10 C6        -0.4278   -0.9026    7.5200 C.3       1 RES1    0.0000
     11 H5        -1.3219   -0.5278    7.5521 H         1 RES1    0.0000
     12 H6        -0.5156   -1.8645    7.6066 H         1 RES1    0.0000
     13 H7         0.1187   -0.4290    8.1669 Du        3 SUP3    0.0000
     14 H8        -1.3061   -0.4916    7.5452 Du        3 SUP3    0.0000
     15 O1         0.2830   -0.4277    8.6392 O.3       1 RES1    0.0000
     16 H9         0.5867    0.3151    8.4757 H         1 RES1    0.0000
     17 O2        -0.5792   -2.2169    8.0021 Du        3 SUP3    0.0000
     18 H10        0.1118   -2.6369    7.8707 Du        3 SUP3    0.0000
     19 C7         0.8630   -2.8974    5.2914 C.3       1 RES1    0.0000
     20 H11        1.1834   -3.2071    4.4405 H         1 RES1    0.0000
     21 H12        0.0471   -3.3530    5.5108 H         1 RES1    0.0000
     22 H13        1.5216   -3.0777    5.9663 H         1 RES1    0.0000
     23 N1        -0.2640    1.7531    6.4399 N.2       1 RES1    0.0000
     24 N2        -0.1958    2.9972    5.8098 N.pl3     1 RES1    0.0000
     25 H14        0.0643    3.0482    4.9910 H         1 RES1    0.0000
     26 C8        -0.5335    4.1162    6.4735 C.ar      1 RES1    0.0000
     27 C9        -0.4064    5.4279    5.9020 C.ar      1 RES1    0.0000
     28 C10       -0.8203    6.5663    6.5922 C.ar      1 RES1    0.0000
     29 H15       -0.7495    7.4072    6.2024 H         1 RES1    0.0000
     30 C11       -1.3324    6.4264    7.8511 C.ar      1 RES1    0.0000
     31 C12       -1.4360    5.1750    8.4673 C.ar      1 RES1    0.0000
     32 H16       -1.7684    5.1061    9.3336 H         1 RES1    0.0000
     33 C13       -1.0449    4.0539    7.7869 C.ar      1 RES1    0.0000
     34 H17       -1.1190    3.2254    8.2033 H         1 RES1    0.0000
     35 N3         0.1745    5.6264    4.5844 N.pl3     1 RES1    0.0000
     36 O3         0.3466    6.7664    4.1708 O.2       1 RES1    0.0000
     37 O4         0.4808    4.6311    3.9011 O.2       1 RES1    0.0000
     38 N4        -1.7779    7.6276    8.5721 N.pl3     1 RES1    0.0000
     39 O5        -2.1936    7.4832    9.7277 O.2       1 RES1    0.0000
     40 O6        -1.6999    8.7230    8.0202 O.2       1 RES1    0.0000
     41 C14        2.1612   10.4676   -0.0154 C.2       2 RES2    0.0000
     42 C15        2.4901   11.4424    1.0270 C.2       2 RES2    0.0000
     43 C16        2.9948   12.5454    0.4737 C.2       2 RES2    0.0000
     44 C17        3.1225   12.4292   -1.0242 C.3       2 RES2    0.0000
     45 H18        4.0542   12.4539   -1.2939 H         2 RES2    0.0000
     46 H19        2.6478   13.1491   -1.4685 H         2 RES2    0.0000
     47 C18        2.4896   11.0658   -1.3595 C.3       2 RES2    0.0000
     48 H20        1.6881   11.1780   -1.8947 H         2 RES2    0.0000
     49 H21        3.1145   10.5044   -1.8444 H         2 RES2    0.0000
     50 C19        2.1077   11.2052    2.4620 C.3       2 RES2    0.0000
     51 H22        1.3043   11.7089    2.6687 Du        3 SUP3    0.0000
     52 H23        1.9139   10.2634    2.5919 Du        3 SUP3    0.0000
     53 H24        1.9541   12.0527    2.9091 H         2 RES2    0.0000
     54 H25        1.2904   10.6843    2.5053 H         2 RES2    0.0000
     55 O7         3.1398   11.5943    3.3366 Du        3 SUP3    0.0000
     56 H26        3.2981   10.9877    3.8634 Du        3 SUP3    0.0000
     57 O8         3.1545   10.5104    3.0963 O.3       2 RES2    0.0000
     58 H27        2.8933    9.7650    3.3185 H         2 RES2    0.0000
     59 C20        3.5218   13.7663    1.1793 C.3       2 RES2    0.0000
     60 H28        3.8423   14.3969    0.5296 H         2 RES2    0.0000
     61 H29        4.2424   13.5129    1.7619 H         2 RES2    0.0000
     62 H30        2.8192   14.1661    1.6949 H         2 RES2    0.0000
     63 N5         1.6724    9.3015    0.2445 N.2       2 RES2    0.0000
     64 N6         1.4149    8.5202   -0.8649 N.pl3     2 RES2    0.0000
     65 H31        1.5738    8.8296   -1.6515 H         2 RES2    0.0000
     66 C21        0.9165    7.2779   -0.7224 C.ar      2 RES2    0.0000
     67 C22        0.6111    6.4232   -1.8192 C.ar      2 RES2    0.0000
     68 C23        0.0685    5.1596   -1.6390 C.ar      2 RES2    0.0000
     69 H32       -0.1302    4.6234   -2.3725 H         2 RES2    0.0000
     70 C24       -0.1690    4.7102   -0.3661 C.ar      2 RES2    0.0000
     71 C25        0.1381    5.5012    0.7364 C.ar      2 RES2    0.0000
     72 H33       -0.0300    5.1831    1.5943 H         2 RES2    0.0000
     73 C26        0.6861    6.7455    0.5701 C.ar      2 RES2    0.0000
     74 H34        0.9109    7.2493    1.3190 H         2 RES2    0.0000
     75 N7         0.8233    6.8373   -3.1955 N.pl3     2 RES2    0.0000
     76 O9         1.1703    7.9952   -3.4079 O.2       2 RES2    0.0000
     77 O10        0.6035    6.0652   -4.1065 O.2       2 RES2    0.0000
     78 N8        -0.7563    3.3916   -0.1551 N.pl3     2 RES2    0.0000
     79 O11       -0.9927    2.6817   -1.1304 O.2       2 RES2    0.0000
     80 O12       -0.9931    3.0429    1.0032 O.2       2 RES2    0.0000
@<TRIPOS>BOND
     1    1    2 1
     2    2    3 2
     3    3    4 1
     4    4    5 1
     5    6    4 1
     6    7    1 1
     7    8    7 1
     8    9    7 1
     9   10    2 1
    10   11   10 1
    11   12   10 1
    12   15   10 1
    13   16   15 1
    14   19    3 1
    15   20   19 1
    16   21   19 1
    17   22   19 1
    18   23    1 2
    19   24   23 1
    20   25   24 1
    21   26   24 1
    22   27   26 ar
    23   28   27 ar
    24   29   28 1
    25   30   28 ar
    26   31   30 ar
    27   32   31 1
    28   33   26 ar
    29   34   33 1
    30   35   27 1
    31   36   35 2
    32   37   35 2
    33   38   30 1
    34   39   38 2
    35   40   38 2
    36   41   42 1
    37   42   43 2
    38   43   44 1
    39   44   45 1
    40   46   44 1
    41   47   41 1
    42   48   47 1
    43   49   47 1
    44   50   42 1
    45   53   50 1
    46   54   50 1
    47   57   50 1
    48   58   57 1
    49   59   43 1
    50   60   59 1
    51   61   59 1
    52   62   59 1
    53   63   41 2
    54   64   63 1
    55   65   64 1
    56   66   64 1
    57   67   66 ar
    58   68   67 ar
    59   69   68 1
    60   70   68 ar
    61   71   70 ar
    62   72   71 1
    63   73   66 ar
    64   74   73 1
    65   75   67 1
    66   76   75 2
    67   77   75 2
    68   78   70 1
    69   79   78 2
    70   80   78 2
    71    4    7 1
    72   31   33 ar
    73   44   47 1
    74   71   73 ar
@<TRIPOS>SUBSTRUCTURE
     1 RES1 1
     2 RES2 41
     3 SUP3 13

@<TRIPOS>CRYSIN
   7.3291   14.1613   15.2631 108.1990 101.9260  98.2040   2 1

