# MOL2 file generated by ConQuest
# Please check atom types

@<TRIPOS>MOLECULE
PEPJOJ
    35    37     1
SMALL
USER_CHARGES
****
Generated from CSD

@<TRIPOS>ATOM
      1 N1         3.3952    0.6766    9.8317 N.pl3     1 RES1    1.0000
      2 O1         4.4139    0.7612    9.0000 O.2       1 RES1   -1.0000
      3 C1         3.3465    1.5995   10.8809 C.ar      1 RES1    0.0000
      4 N2         2.3853    1.5663   11.7908 N.ar      1 RES1    0.0000
      5 C2         1.4824    0.5899   11.6611 C.ar      1 RES1    0.0000
      6 C3         0.4560    0.4761   12.7466 C.3       1 RES1    0.0000
      7 N3         1.4242   -0.2823   10.6635 N.ar      1 RES1    0.0000
      8 C4         2.3834   -0.2237    9.7326 C.ar      1 RES1    0.0000
      9 N4         4.3408    2.4925   10.8752 N.3       1 RES1    0.0000
     10 C5         2.2810   -1.1809    8.6090 C.ar      1 RES1    0.0000
     11 C6         1.4429   -2.2880    8.7978 C.ar      1 RES1    0.0000
     12 C7         1.2323   -3.2063    7.7925 C.ar      1 RES1    0.0000
     13 C8         1.8459   -3.0317    6.5583 C.ar      1 RES1    0.0000
     14 C9         2.6671   -1.9347    6.3523 C.ar      1 RES1    0.0000
     15 C10        2.8948   -1.0158    7.3633 C.ar      1 RES1    0.0000
     16 C11        4.5612    3.5759   11.7603 C.ar      1 RES1    0.0000
     17 C12        5.6521    4.4007   11.4875 C.ar      1 RES1    0.0000
     18 C13        5.9139    5.5072   12.2773 C.ar      1 RES1    0.0000
     19 C14        5.1113    5.7985   13.3684 C.ar      1 RES1    0.0000
     20 C15        4.0401    4.9681   13.6450 C.ar      1 RES1    0.0000
     21 C16        3.7487    3.8661   12.8591 C.ar      1 RES1    0.0000
     22 H1        -0.4265    0.3437   12.3421 H         1 RES1    0.0000
     23 H2         0.4644    1.3015   13.2959 H         1 RES1    0.0000
     24 H3         0.6855   -0.3155   13.3150 H         1 RES1    0.0000
     25 H4         4.9352    2.3550   10.0912 H         1 RES1    0.0000
     26 H5         1.0082   -2.3719    9.5952 H         1 RES1    0.0000
     27 H6         0.6470   -3.9832    8.0119 H         1 RES1    0.0000
     28 H7         1.7742   -3.7410    5.8563 H         1 RES1    0.0000
     29 H8         3.0871   -1.7296    5.4366 H         1 RES1    0.0000
     30 H9         3.4192   -0.2366    7.2298 H         1 RES1    0.0000
     31 H10        6.2745    4.1072   10.7779 H         1 RES1    0.0000
     32 H11        6.6911    6.0115   12.0560 H         1 RES1    0.0000
     33 H12        5.2258    6.5918   13.9064 H         1 RES1    0.0000
     34 H13        3.4180    5.1720   14.4596 H         1 RES1    0.0000
     35 H14        3.0533    3.3184   13.0480 H         1 RES1    0.0000
@<TRIPOS>BOND
     1    1    2 1
     2    3    1 ar
     3    4    3 ar
     4    5    4 ar
     5    6    5 1
     6    7    5 ar
     7    8    1 ar
     8    9    3 1
     9   10    8 1
    10   11   10 ar
    11   12   11 ar
    12   13   12 ar
    13   14   13 ar
    14   15   10 ar
    15   16    9 1
    16   17   16 ar
    17   18   17 ar
    18   19   18 ar
    19   20   19 ar
    20   21   16 ar
    21   22    6 1
    22   23    6 1
    23   24    6 1
    24   25    9 1
    25   26   11 1
    26   27   12 1
    27   28   13 1
    28   29   14 1
    29   30   15 1
    30   31   17 1
    31   32   18 1
    32   33   19 1
    33   34   20 1
    34   35   21 1
    35    7    8 ar
    36   14   15 ar
    37   20   21 ar
@<TRIPOS>SUBSTRUCTURE
     1 RES1 1

@<TRIPOS>CRYSIN
  24.6080    5.6340   19.0800  90.0000  91.1800  90.0000  15 1

