# MOL2 file generated by ConQuest
# Please check atom types

@<TRIPOS>MOLECULE
PEPJAV
   108   115     3
SMALL
NO_CHARGES
****
Generated from CSD

@<TRIPOS>ATOM
      1 C1         3.2362    7.3682    1.6753 C.3       1 RES1    0.0000
      2 C2         2.8603    5.8543    1.6994 C.3       1 RES1    0.0000
      3 C3         2.2720    5.5003    3.0418 C.2       1 RES1    0.0000
      4 C4         1.8936    6.4769    3.9979 C.2       1 RES1    0.0000
      5 C5         2.0719    7.9349    3.8260 C.3       1 RES1    0.0000
      6 C6         1.0931    8.7968    4.5934 C.3       1 RES1    0.0000
      7 C7         1.4516   10.2715    4.4581 C.3       1 RES1    0.0000
      8 C8         1.5889   10.6857    2.9613 C.3       1 RES1    0.0000
      9 C9         2.6004    9.7720    2.2400 C.3       1 RES1    0.0000
     10 C10        2.1652    8.2777    2.3154 C.3       1 RES1    0.0000
     11 C11        2.9004   10.2337    0.7879 C.3       1 RES1    0.0000
     12 C12        3.2433   11.7365    0.6906 C.3       1 RES1    0.0000
     13 C13        2.1516   12.5662    1.3497 C.3       1 RES1    0.0000
     14 C14        2.0520   12.1129    2.8223 C.3       1 RES1    0.0000
     15 C15        1.2871   13.2420    3.5151 C.3       1 RES1    0.0000
     16 C16        1.8207   14.4677    2.7850 C.3       1 RES1    0.0000
     17 C17        2.3849   14.0690    1.4902 C.3       1 RES1    0.0000
     18 C18        0.8274   12.4067    0.5757 C.3       1 RES1    0.0000
     19 C19        0.8111    8.0202    1.6058 C.3       1 RES1    0.0000
     20 C20        2.5092   15.0050    0.3241 C.2       1 RES1    0.0000
     21 C21        2.6267   16.4644    0.5589 C.3       1 RES1    0.0000
     22 N1         1.4288    5.8543    5.0485 N.2       1 RES1    0.0000
     23 N2         2.0453    4.3095    3.4902 N.2       1 RES1    0.0000
     24 O1         1.5027    4.5166    4.7880 O.3       1 RES1    0.0000
     25 O2         2.5491   14.5573   -0.7952 O.2       1 RES1    0.0000
     26 O3         3.2333   14.4565    2.5970 O.3       1 RES1    0.0000
     27 C22        4.8123    1.5615    5.5342 C.3       2 RES2    0.0000
     28 C23        5.0834    0.0336    5.4852 C.3       2 RES2    0.0000
     29 C24        5.7593   -0.3246    4.2042 C.2       2 RES2    0.0000
     30 C25        6.2195    0.6380    3.2810 C.2       2 RES2    0.0000
     31 C26        6.0741    2.1072    3.4683 C.3       2 RES2    0.0000
     32 C27        7.1079    2.9439    2.7441 C.3       2 RES2    0.0000
     33 C28        6.8090    4.4215    2.9013 C.3       2 RES2    0.0000
     34 C29        6.6713    4.8230    4.3864 C.3       2 RES2    0.0000
     35 C30        5.6057    3.9373    5.0865 C.3       2 RES2    0.0000
     36 C31        5.9653    2.4332    4.9870 C.3       2 RES2    0.0000
     37 C32        5.3335    4.4005    6.5350 C.3       2 RES2    0.0000
     38 C33        5.0374    5.9200    6.6688 C.3       2 RES2    0.0000
     39 C34        6.1680    6.7204    6.0207 C.3       2 RES2    0.0000
     40 C35        6.2524    6.2726    4.5525 C.3       2 RES2    0.0000
     41 C36        7.0471    7.3780    3.8399 C.3       2 RES2    0.0000
     42 C37        6.5531    8.6121    4.5605 C.3       2 RES2    0.0000
     43 C38        5.9792    8.2273    5.8751 C.3       2 RES2    0.0000
     44 C39        7.4843    6.5245    6.7844 C.3       2 RES2    0.0000
     45 C40        7.2723    2.0918    5.7068 C.3       2 RES2    0.0000
     46 C41        5.8488    9.1620    7.0310 C.2       2 RES2    0.0000
     47 C42        5.8408   10.6325    6.8130 C.3       2 RES2    0.0000
     48 N3         6.7785    0.0210    2.2832 N.2       2 RES2    0.0000
     49 N4         6.0193   -1.5293    3.7675 N.2       2 RES2    0.0000
     50 O4         6.6650   -1.3236    2.5531 O.3       2 RES2    0.0000
     51 O5         5.7535    8.7114    8.1546 O.2       2 RES2    0.0000
     52 O6         5.1216    8.6443    4.7690 O.3       2 RES2    0.0000
     53 H1         3.3782    7.6732    0.6489 H         1 RES1    0.0000
     54 H2         4.1568    7.5053    2.2217 H         1 RES1    0.0000
     55 H3         3.7540    5.2666    1.5531 H         1 RES1    0.0000
     56 H4         2.1540    5.6388    0.9115 H         1 RES1    0.0000
     57 H5         3.0129    8.1811    4.2950 H         1 RES1    0.0000
     58 H6         0.1014    8.6373    4.1955 H         1 RES1    0.0000
     59 H7         1.1119    8.5169    5.6366 H         1 RES1    0.0000
     60 H8         0.6763   10.8620    4.9219 H         1 RES1    0.0000
     61 H9         2.3908   10.4548    4.9563 H         1 RES1    0.0000
     62 H10        0.6157   10.5794    2.5012 H         1 RES1    0.0000
     63 H11        3.5324    9.8252    2.7821 H         1 RES1    0.0000
     64 H12        2.0257   10.0519    0.1807 H         1 RES1    0.0000
     65 H13        3.7320    9.6643    0.4016 H         1 RES1    0.0000
     66 H14        4.1799   11.9156    1.1954 H         1 RES1    0.0000
     67 H15        3.3357   12.0135   -0.3497 H         1 RES1    0.0000
     68 H16        2.9926   11.9939    3.3395 H         1 RES1    0.0000
     69 H17        0.2231   13.1301    3.3644 H         1 RES1    0.0000
     70 H18        1.4996   13.2742    4.5737 H         1 RES1    0.0000
     71 H19        1.1295   15.2065    3.1596 H         1 RES1    0.0000
     72 H20        0.6604   11.3405    0.5509 H         1 RES1    0.0000
     73 H21        0.9360   12.7775   -0.4323 H         1 RES1    0.0000
     74 H22       -0.0131   12.8922    1.0490 H         1 RES1    0.0000
     75 H23        0.0488    8.7030    1.9489 H         1 RES1    0.0000
     76 H24        0.4629    7.0044    1.7177 H         1 RES1    0.0000
     77 H25        1.0279    8.2147    0.5655 H         1 RES1    0.0000
     78 H26        2.4068   16.7386    1.5802 H         1 RES1    0.0000
     79 H27        1.9102   16.9317   -0.1010 H         1 RES1    0.0000
     80 H28        3.6215   16.7974    0.3036 H         1 RES1    0.0000
     81 H29        3.7604    1.7882    5.4486 H         2 RES2    0.0000
     82 H30        5.2126    2.0386    6.4172 H         2 RES2    0.0000
     83 H31        4.1538   -0.5121    5.5664 H         2 RES2    0.0000
     84 H32        5.7285   -0.2281    6.3104 H         2 RES2    0.0000
     85 H33        6.1376   17.1710    3.3527 Du        3 SUP3    0.0000
     86 H34        6.3775    2.1925    2.4822 Du        3 SUP3    0.0000
     87 H35        8.0983    2.5759    2.5253 H         2 RES2    0.0000
     88 H36        7.5947    5.0035    2.4419 H         2 RES2    0.0000
     89 H37        5.8739    4.6202    2.3988 H         2 RES2    0.0000
     90 H38        7.6455    4.6943    4.8378 H         2 RES2    0.0000
     91 H39        4.6878    4.0759    4.5334 H         2 RES2    0.0000
     92 H40        6.1920    5.5548    7.1407 Du        3 SUP3    0.0000
     93 H41        4.4697    3.8632    6.9007 H         2 RES2    0.0000
     94 H42        4.9644    6.1803    7.7150 H         2 RES2    0.0000
     95 H43        4.1030    6.1481    6.1765 H         2 RES2    0.0000
     96 H44        5.3008    6.1733    4.0506 H         2 RES2    0.0000
     97 H45        8.1114    7.2409    3.9584 H         2 RES2    0.0000
     98 H46        6.8026    7.4144    2.7887 H         2 RES2    0.0000
     99 H47        7.2708    9.3313    4.1940 H         2 RES2    0.0000
    100 H48        7.7283    5.4765    6.8825 H         2 RES2    0.0000
    101 H49        7.4285    6.9736    7.7647 H         2 RES2    0.0000
    102 H50        8.2518    7.0184    6.2050 H         2 RES2    0.0000
    103 H51        7.5355    1.0718    5.4684 H         2 RES2    0.0000
    104 H52        7.2582    2.2177    6.7793 H         2 RES2    0.0000
    105 H53        8.0017    2.7620    5.2745 H         2 RES2    0.0000
    106 H54        5.9394   10.8102    5.7522 H         2 RES2    0.0000
    107 H55        6.6118   11.1740    7.3411 H         2 RES2    0.0000
    108 H56        4.8712   10.9697    7.1458 H         2 RES2    0.0000
@<TRIPOS>BOND
     1    1    2 1
     2    2    3 1
     3    3    4 1
     4    4    5 1
     5    5    6 1
     6    6    7 1
     7    7    8 1
     8    8    9 1
     9    9   10 1
    10   10    1 1
    11   11    9 1
    12   12   11 1
    13   13   12 1
    14   14    8 1
    15   15   14 1
    16   16   15 1
    17   17   13 1
    18   18   13 1
    19   19   10 1
    20   20   17 1
    21   21   20 1
    22   22    4 2
    23   23    3 2
    24   24   22 1
    25   25   20 2
    26   26   16 1
    27   27   28 1
    28   28   29 1
    29   29   30 1
    30   30   31 1
    31   31   32 1
    32   32   33 1
    33   33   34 1
    34   34   35 1
    35   35   36 1
    36   36   27 1
    37   37   35 1
    38   38   37 1
    39   39   38 1
    40   40   34 1
    41   41   40 1
    42   42   41 1
    43   43   39 1
    44   44   39 1
    45   45   36 1
    46   46   43 1
    47   47   46 1
    48   48   30 2
    49   49   29 2
    50   50   48 1
    51   51   46 2
    52   52   42 1
    53   53    1 1
    54   54    1 1
    55   55    2 1
    56   56    2 1
    57   57    5 1
    58   58    6 1
    59   59    6 1
    60   60    7 1
    61   61    7 1
    62   62    8 1
    63   63    9 1
    64   64   11 1
    65   65   11 1
    66   66   12 1
    67   67   12 1
    68   68   14 1
    69   69   15 1
    70   70   15 1
    71   71   16 1
    72   72   18 1
    73   73   18 1
    74   74   18 1
    75   75   19 1
    76   76   19 1
    77   77   19 1
    78   78   21 1
    79   79   21 1
    80   80   21 1
    81   81   27 1
    82   82   27 1
    83   83   28 1
    84   84   28 1
    85   87   32 1
    86   88   33 1
    87   89   33 1
    88   90   34 1
    89   91   35 1
    90   93   37 1
    91   94   38 1
    92   95   38 1
    93   96   40 1
    94   97   41 1
    95   98   41 1
    96   99   42 1
    97  100   44 1
    98  101   44 1
    99  102   44 1
   100  103   45 1
   101  104   45 1
   102  105   45 1
   103  106   47 1
   104  107   47 1
   105  108   47 1
   106    5   10 1
   107   13   14 1
   108   16   17 1
   109   17   26 1
   110   23   24 1
   111   31   36 1
   112   39   40 1
   113   42   43 1
   114   43   52 1
   115   49   50 1
@<TRIPOS>SUBSTRUCTURE
     1 RES1 1
     2 RES2 27
     3 SUP3 85

@<TRIPOS>CRYSIN
  18.2840   13.9920    7.3700  90.0000  96.9700  90.0000   4 1

