# MOL2 file generated by ConQuest
# Please check atom types

@<TRIPOS>MOLECULE
PEPNAC
   108   116     2
SMALL
USER_CHARGES
****
Generated from CSD

@<TRIPOS>ATOM
      1 O1         7.6227   13.9374   17.5614 O.3       1 RES1    0.0000
      2 H1         7.5277   13.1288   17.6596 H         1 RES1    0.0000
      3 O2         6.3348   14.9794   13.4644 O.3       1 RES1    0.0000
      4 O3         7.9340   19.1368   15.1013 O.2       1 RES1    0.0000
      5 O4         6.0233   18.9501   13.9271 O.3       1 RES1    0.0000
      6 O5         8.3238   11.5748   17.6998 O.co2     1 RES1   -1.0000
      7 O6        10.4858   11.0431   17.6758 O.co2     1 RES1    0.0000
      8 N1         8.9695   14.2167   17.2131 N.4       1 RES1    1.0000
      9 N2         9.2087   17.2344   19.4170 N.pl3     1 RES1    0.0000
     10 H2         9.0479   17.9571   18.9795 H         1 RES1    0.0000
     11 C1         9.4030   17.1357   20.7751 C.ar      1 RES1    0.0000
     12 C2         9.3171   15.9730   18.8847 C.2       1 RES1    0.0000
     13 C3         9.5794   15.0566   19.8565 C.2       1 RES1    0.0000
     14 C4         9.6337   15.7806   21.0989 C.ar      1 RES1    0.0000
     15 C5         9.7016   13.5961   19.5623 C.3       1 RES1    0.0000
     16 H3         8.9005   13.1405   19.8661 H         1 RES1    0.0000
     17 H4        10.4555   13.2330   20.0522 H         1 RES1    0.0000
     18 C6         7.2246   16.9832   14.3925 C.2       1 RES1    0.0000
     19 C7         7.1242   18.4502   14.5133 C.2       1 RES1    0.0000
     20 C8         6.3887   16.3196   13.5835 C.2       1 RES1    0.0000
     21 H5         5.8022   16.8217   13.0652 H         1 RES1    0.0000
     22 C9         8.3256   16.2894   15.1591 C.3       1 RES1    0.0000
     23 H6         9.1797   16.6736   14.8714 H         1 RES1    0.0000
     24 C10        8.1998   16.5057   16.6687 C.3       1 RES1    0.0000
     25 H7         8.3128   17.4478   16.8699 H         1 RES1    0.0000
     26 H8         7.3127   16.2411   16.9594 H         1 RES1    0.0000
     27 C11        6.9152   14.2675   14.5952 C.3       1 RES1    0.0000
     28 H9         6.3841   14.4434   15.3998 H         1 RES1    0.0000
     29 C12        9.3958   18.1460   21.7432 C.ar      1 RES1    0.0000
     30 H10        9.2466   19.0354   21.5158 H         1 RES1    0.0000
     31 C13        9.5695   11.8447   17.7702 C.2       1 RES1    0.0000
     32 C14        9.8961   13.3319   18.0631 C.3       1 RES1    0.0000
     33 H11       10.8285   13.5128   17.8208 H         1 RES1    0.0000
     34 C15        9.1941   13.9428   15.7440 C.3       1 RES1    0.0000
     35 H12        9.0117   13.0056   15.5726 H         1 RES1    0.0000
     36 H13       10.1289   14.1012   15.5392 H         1 RES1    0.0000
     37 C16        6.8338   12.7967   14.2479 C.3       1 RES1    0.0000
     38 H14        6.0021   12.6190   13.8022 H         1 RES1    0.0000
     39 H15        6.8835   12.2747   15.0521 H         1 RES1    0.0000
     40 H16        7.5631   12.5636   13.6692 H         1 RES1    0.0000
     41 C17        8.3383   14.7870   14.8001 C.3       1 RES1    0.0000
     42 H17        8.7715   14.7271   13.9233 H         1 RES1    0.0000
     43 C18        9.2402   15.6994   17.4248 C.3       1 RES1    0.0000
     44 H18       10.1165   15.9021   17.0357 H         1 RES1    0.0000
     45 C19        9.8554   15.4216   22.4353 C.ar      1 RES1    0.0000
     46 H19       10.0033   14.5342   22.6712 H         1 RES1    0.0000
     47 C20        9.6183   17.7645   23.0486 C.ar      1 RES1    0.0000
     48 H20        9.6171   18.4120   23.7161 H         1 RES1    0.0000
     49 C21        5.8287   20.3815   14.0666 C.3       1 RES1    0.0000
     50 H21        5.1480   20.6731   13.4558 H         1 RES1    0.0000
     51 H22        6.6511   20.8368   13.8701 H         1 RES1    0.0000
     52 H23        5.5594   20.5818   14.9658 H         1 RES1    0.0000
     53 C22        9.8472   16.4199   23.3983 C.ar      1 RES1    0.0000
     54 H24        9.9963   16.1976   24.2890 H         1 RES1    0.0000
     55 O7         5.6388    8.5330   16.6643 O.3       2 RES2    0.0000
     56 H25        5.9065    9.3040   16.5856 H         2 RES2    0.0000
     57 O8         4.3629    7.5803   12.6224 O.3       2 RES2    0.0000
     58 O9         2.3327    4.0252   14.9573 O.3       2 RES2    0.0000
     59 O10        5.4189   11.0165   16.8940 O.co2     2 RES2   -1.0000
     60 O11        2.7140    3.8019   12.7546 O.2       2 RES2    0.0000
     61 O12        4.4260   11.8087   18.7426 O.co2     2 RES2    0.0000
     62 N3         4.7141    5.4041   19.1505 N.pl3     2 RES2    0.0000
     63 H26        4.4780    4.7080   18.7040 H         2 RES2    0.0000
     64 N4         4.2956    8.5429   17.1282 N.4       2 RES2    1.0000
     65 C23        5.2669    5.4110   20.4113 C.ar      2 RES2    0.0000
     66 C24        5.0652    7.5644   19.6928 C.2       2 RES2    0.0000
     67 C25        4.6074    6.7080   18.7341 C.2       2 RES2    0.0000
     68 C26        5.5094    6.7583   20.7887 C.ar      2 RES2    0.0000
     69 C27        6.0703    7.0256   22.0476 C.ar      2 RES2    0.0000
     70 H27        6.2452    7.8997   22.3125 H         2 RES2    0.0000
     71 C28        3.3780    8.1217   14.7815 C.3       2 RES2    0.0000
     72 H28        2.5958    8.3823   14.2514 H         2 RES2    0.0000
     73 C29        3.3111    5.8326   13.8655 C.2       2 RES2    0.0000
     74 C30        3.9145    7.1057   17.4714 C.3       2 RES2    0.0000
     75 H29        2.9528    7.1013   17.6589 H         2 RES2    0.0000
     76 C31        6.1101    4.6338   22.4994 C.ar      2 RES2    0.0000
     77 H30        6.3144    3.9412   23.0855 H         2 RES2    0.0000
     78 C32        5.5673    4.3398   21.2611 C.ar      2 RES2    0.0000
     79 H31        5.4078    3.4610   21.0023 H         2 RES2    0.0000
     80 C33        6.3589    5.9634   22.8862 C.ar      2 RES2    0.0000
     81 H32        6.7248    6.1324   23.7243 H         2 RES2    0.0000
     82 C34        3.1781    6.6394   15.1331 C.3       2 RES2    0.0000
     83 H33        2.2619    6.5306   15.4626 H         2 RES2    0.0000
     84 C35        3.8349    6.3549   12.7509 C.2       2 RES2    0.0000
     85 H34        3.8326    5.8163   11.9926 H         2 RES2    0.0000
     86 C36        4.1361    6.2085   16.2576 C.3       2 RES2    0.0000
     87 H35        3.9692    5.2834   16.4965 H         2 RES2    0.0000
     88 H36        5.0547    6.2838   15.9552 H         2 RES2    0.0000
     89 C37        5.1095    9.0359   19.4930 C.3       2 RES2    0.0000
     90 H37        6.0240    9.3055   19.3163 H         2 RES2    0.0000
     91 H38        4.8217    9.4760   20.3082 H         2 RES2    0.0000
     92 C38        4.5911    8.3065   13.8653 C.3       2 RES2    0.0000
     93 H39        5.3902    7.9513   14.3077 H         2 RES2    0.0000
     94 C39        2.7674    4.4740   13.7634 C.2       2 RES2    0.0000
     95 C40        4.7133   10.9091   17.9414 C.2       2 RES2    0.0000
     96 C41        3.3572    9.0048   16.0282 C.3       2 RES2    0.0000
     97 H40        3.5962    9.9096   15.7736 H         2 RES2    0.0000
     98 H41        2.4528    9.0274   16.3790 H         2 RES2    0.0000
     99 C42        4.2157    9.4966   18.3306 C.3       2 RES2    0.0000
    100 H42        3.2867    9.5533   18.6383 H         2 RES2    0.0000
    101 C43        4.8463    9.7349   13.4384 C.3       2 RES2    0.0000
    102 H43        5.4830    9.7452   12.7198 H         2 RES2    0.0000
    103 H44        5.1944   10.2335   14.1813 H         2 RES2    0.0000
    104 H45        4.0241   10.1324   13.1431 H         2 RES2    0.0000
    105 C44        1.8491    2.6640   14.9592 C.3       2 RES2    0.0000
    106 H46        1.0873    2.5942   14.3793 H         2 RES2    0.0000
    107 H47        1.5960    2.4156   15.8513 H         2 RES2    0.0000
    108 H48        2.5428    2.0776   14.6484 H         2 RES2    0.0000
@<TRIPOS>BOND
     1    1    2 1
     2    3   20 1
     3    4   19 2
     4    5   19 1
     5    6   31 1
     6    7   31 2
     7    8    1 1
     8    9   10 1
     9   11    9 1
    10   12    9 1
    11   13   12 2
    12   14   11 ar
    13   15   13 1
    14   16   15 1
    15   17   15 1
    16   18   19 1
    17   20   18 2
    18   21   20 1
    19   22   18 1
    20   23   22 1
    21   24   22 1
    22   25   24 1
    23   26   24 1
    24   27    3 1
    25   28   27 1
    26   29   11 ar
    27   30   29 1
    28   31   32 1
    29   32    8 1
    30   33   32 1
    31   34    8 1
    32   35   34 1
    33   36   34 1
    34   37   27 1
    35   38   37 1
    36   39   37 1
    37   40   37 1
    38   41   22 1
    39   42   41 1
    40   43    8 1
    41   44   43 1
    42   45   14 ar
    43   46   45 1
    44   47   29 ar
    45   48   47 1
    46   49    5 1
    47   50   49 1
    48   51   49 1
    49   52   49 1
    50   53   45 ar
    51   54   53 1
    52   55   56 1
    53   57   84 1
    54   58   94 1
    55   59   95 1
    56   60   94 2
    57   61   95 2
    58   62   63 1
    59   64   55 1
    60   65   62 1
    61   66   67 2
    62   67   62 1
    63   68   65 ar
    64   69   68 ar
    65   70   69 1
    66   71   72 1
    67   73   82 1
    68   74   64 1
    69   75   74 1
    70   76   77 1
    71   78   65 ar
    72   79   78 1
    73   80   69 ar
    74   81   80 1
    75   82   71 1
    76   83   82 1
    77   84   73 2
    78   85   84 1
    79   86   74 1
    80   87   86 1
    81   88   86 1
    82   89   66 1
    83   90   89 1
    84   91   89 1
    85   92   57 1
    86   93   92 1
    87   94   73 1
    88   95   99 1
    89   96   64 1
    90   97   96 1
    91   98   96 1
    92   99   64 1
    93  100   99 1
    94  101   92 1
    95  102  101 1
    96  103  101 1
    97  104  101 1
    98  105   58 1
    99  106  105 1
   100  107  105 1
   101  108  105 1
   102   12   43 1
   103   13   14 1
   104   15   32 1
   105   24   43 1
   106   27   41 1
   107   34   41 1
   108   47   53 ar
   109   66   68 1
   110   67   74 1
   111   71   92 1
   112   71   96 1
   113   76   78 ar
   114   76   80 ar
   115   82   86 1
   116   89   99 1
@<TRIPOS>SUBSTRUCTURE
     1 RES1 1
     2 RES2 55

@<TRIPOS>CRYSIN
   9.0466   17.4039   24.2510  90.0000  90.0000  90.0000  19 1

