# MOL2 file generated by ConQuest
# Please check atom types

@<TRIPOS>MOLECULE
PEPNUV
    41    44     1
SMALL
NO_CHARGES
****
Generated from CSD

@<TRIPOS>ATOM
      1 O1        -0.3338    2.8085    0.7559 O.2       1 RES1    0.0000
      2 O2        -1.0303    1.6515    2.5145 O.3       1 RES1    0.0000
      3 O3         1.8265   -1.2199    2.0074 O.3       1 RES1    0.0000
      4 O4         3.7066    0.6288   -1.8974 O.2       1 RES1    0.0000
      5 O5         5.9471    5.5273    2.4288 O.2       1 RES1    0.0000
      6 O6         4.8344    6.7308    1.0280 O.2       1 RES1    0.0000
      7 N1         5.0748    5.6652    1.5784 N.pl3     1 RES1    0.0000
      8 C1         0.8821    0.8533    1.2786 C.2       1 RES1    0.0000
      9 C2        -0.1557    1.8307    1.4570 C.2       1 RES1    0.0000
     10 C3        -0.9728    0.5559    3.3412 C.2       1 RES1    0.0000
     11 C4        -2.0136    0.5857    4.3732 C.3       1 RES1    0.0000
     12 H1        -1.9887   -0.2476    4.8875 H         1 RES1    0.0000
     13 H2        -2.8925    0.6811    3.9482 H         1 RES1    0.0000
     14 H3        -1.8583    1.3441    4.9734 H         1 RES1    0.0000
     15 C5        -0.0288   -0.3920    3.1671 C.2       1 RES1    0.0000
     16 H4         0.0108   -1.1545    3.7329 H         1 RES1    0.0000
     17 C6         0.9025   -0.2141    2.1119 C.2       1 RES1    0.0000
     18 C7         2.6974   -1.1837    0.9431 C.2       1 RES1    0.0000
     19 C8         3.5298   -2.4151    0.8888 C.3       1 RES1    0.0000
     20 H5         3.0187   -3.1434    0.4559 H         1 RES1    0.0000
     21 H6         3.7565   -2.7026    1.8086 H         1 RES1    0.0000
     22 C9         4.8025   -2.1568    0.1100 C.3       1 RES1    0.0000
     23 H7         5.3985   -1.5650    0.6357 H         1 RES1    0.0000
     24 H8         5.2763   -3.0118   -0.0435 H         1 RES1    0.0000
     25 C10        4.4855   -1.5095   -1.2118 C.3       1 RES1    0.0000
     26 H9         5.3338   -1.2861   -1.6723 H         1 RES1    0.0000
     27 H10        3.9954   -2.1568   -1.7777 H         1 RES1    0.0000
     28 C11        3.6645   -0.2636   -1.0710 C.2       1 RES1    0.0000
     29 C12        2.7590   -0.1668    0.0716 C.2       1 RES1    0.0000
     30 C13        1.9150    1.0809    0.2111 C.3       1 RES1    0.0000
     31 H11        1.4448    1.2462   -0.6563 H         1 RES1    0.0000
     32 C14        2.7711    2.2998    0.5383 C.ar      1 RES1    0.0000
     33 C15        2.8437    3.3872   -0.3196 C.ar      1 RES1    0.0000
     34 H12        2.3685    3.3704   -1.1420 H         1 RES1    0.0000
     35 C16        3.6041    4.5008    0.0115 C.ar      1 RES1    0.0000
     36 H13        3.6537    5.2494   -0.5716 H         1 RES1    0.0000
     37 C17        4.2823    4.4901    1.2038 C.ar      1 RES1    0.0000
     38 C18        4.2360    3.4221    2.0695 C.ar      1 RES1    0.0000
     39 H14        4.7211    3.4392    2.8864 H         1 RES1    0.0000
     40 C19        3.4755    2.3313    1.7306 C.ar      1 RES1    0.0000
     41 H15        3.4317    1.5880    2.3206 H         1 RES1    0.0000
@<TRIPOS>BOND
     1    1    9 2
     2    2    9 1
     3    3   17 1
     4    4   28 2
     5    5    7 2
     6    6    7 2
     7    7   37 1
     8    8    9 1
     9   10    2 1
    10   11   10 1
    11   12   11 1
    12   13   11 1
    13   14   11 1
    14   15   10 2
    15   16   15 1
    16   17    8 2
    17   18    3 1
    18   19   18 1
    19   20   19 1
    20   21   19 1
    21   22   19 1
    22   23   22 1
    23   24   22 1
    24   25   22 1
    25   26   25 1
    26   27   25 1
    27   28   25 1
    28   29   18 2
    29   30    8 1
    30   31   30 1
    31   32   30 1
    32   33   32 ar
    33   34   33 1
    34   35   33 ar
    35   36   35 1
    36   37   35 ar
    37   38   37 ar
    38   39   38 1
    39   40   32 ar
    40   41   40 1
    41   15   17 1
    42   28   29 1
    43   29   30 1
    44   38   40 ar
@<TRIPOS>SUBSTRUCTURE
     1 RES1 1

@<TRIPOS>CRYSIN
  11.6700   12.0760   11.6130  90.0000  99.4900  90.0000  14 1

