# MOL2 file generated by ConQuest
# Please check atom types

@<TRIPOS>MOLECULE
PEPTIQ
    79    84     3
SMALL
NO_CHARGES
****
Generated from CSD

@<TRIPOS>ATOM
      1 O1         3.2042    0.3623    8.6418 O.3       1 RES1    0.0000
      2 N1         2.6919    2.2739   10.1820 N.3       1 RES1    0.0000
      3 H1         3.1253    2.9870   10.3894 H         1 RES1    0.0000
      4 O2         3.9224    2.7394   12.3418 O.3       1 RES1    0.0000
      5 H2         3.2494    2.7977   11.8808 H         1 RES1    0.0000
      6 C1         1.6970    0.8001    6.8505 C.ar      1 RES1    0.0000
      7 H3         1.9153    0.0462    6.3499 H         1 RES1    0.0000
      8 C2         0.9873    3.2645    8.7276 C.ar      1 RES1    0.0000
      9 C3         0.6550    4.4026    9.5717 C.ar      1 RES1    0.0000
     10 H4         1.0838    4.4784   10.3934 H         1 RES1    0.0000
     11 C4         4.9363   -1.5144    9.3538 C.ar      1 RES1    0.0000
     12 H5         4.2607   -1.3464    8.7356 H         1 RES1    0.0000
     13 C5         4.3672    0.7008   10.7857 C.ar      1 RES1    0.0000
     14 C6        -0.2430    5.3548    9.2349 C.ar      1 RES1    0.0000
     15 H6        -0.4673    6.0980    9.7487 H         1 RES1    0.0000
     16 C7         0.4418    2.9111    7.4199 C.ar      1 RES1    0.0000
     17 C8         1.9600    2.2605    9.0024 C.ar      1 RES1    0.0000
     18 N2         3.4073    1.1147    9.8637 N.3       1 RES1    0.0000
     19 C9         2.2502    1.1882    8.1239 C.ar      1 RES1    0.0000
     20 C10        6.0796   -0.7633   11.4475 C.ar      1 RES1    0.0000
     21 C11       -0.7652    5.0399    8.0090 C.ar      1 RES1    0.0000
     22 H7        -1.3899    5.6512    7.6880 H         1 RES1    0.0000
     23 C12        4.6175    1.6179   11.9917 C.ar      1 RES1    0.0000
     24 C13        6.8244   -2.0299   11.1582 C.ar      1 RES1    0.0000
     25 H8         7.5017   -2.2502   11.7566 H         1 RES1    0.0000
     26 C14        0.7974    1.7644    6.5335 C.ar      1 RES1    0.0000
     27 H9         0.3700    1.7067    5.7079 H         1 RES1    0.0000
     28 C15        5.7254   -2.6924    9.1939 C.ar      1 RES1    0.0000
     29 H10        5.5934   -3.2580    8.4674 H         1 RES1    0.0000
     30 C16       -0.5000    3.8485    7.0711 C.ar      1 RES1    0.0000
     31 H11       -0.9777    3.7612    6.2772 H         1 RES1    0.0000
     32 C17        5.5405    1.2610   12.8160 C.ar      1 RES1    0.0000
     33 H12        5.7415    1.7610   13.5756 H         1 RES1    0.0000
     34 C18        6.6193   -2.9496   10.0710 C.ar      1 RES1    0.0000
     35 H13        7.1309   -3.7235   10.0076 H         1 RES1    0.0000
     36 C19        5.1426   -0.5192   10.4885 C.ar      1 RES1    0.0000
     37 C20        6.2220    0.0911   12.5109 C.ar      1 RES1    0.0000
     38 H14        6.8791   -0.1530   13.1238 H         1 RES1    0.0000
     39 O3         6.3414    4.6719   13.2453 O.3       2 RES2    0.0000
     40 H15        5.5244    4.7245   13.3140 H         2 RES2    0.0000
     41 C21        3.1725    6.5903   18.7538 C.ar      2 RES2    0.0000
     42 H16        3.3321    7.3363   19.2874 H         2 RES2    0.0000
     43 N3         4.7334    5.1795   15.4632 N.3       2 RES2    0.0000
     44 H17        4.7987    4.6144   14.8186 H         2 RES2    0.0000
     45 C22        3.8017    5.2125   16.6429 C.ar      2 RES2    0.0000
     46 C23        6.5417    6.7444   14.8212 C.ar      2 RES2    0.0000
     47 C24        7.5977   10.1353   16.4579 C.ar      2 RES2    0.0000
     48 H18        7.4484   10.7154   17.1699 H         2 RES2    0.0000
     49 O4         5.0179    7.0602   16.9639 O.3       2 RES2    0.0000
     50 C25        9.0326    9.4458   14.4117 C.ar      2 RES2    0.0000
     51 H19        9.7663    9.6648   13.8873 H         2 RES2    0.0000
     52 C26        7.2471    8.0024   15.1409 C.ar      2 RES2    0.0000
     53 C27        8.6098   10.3486   15.4527 C.ar      2 RES2    0.0000
     54 H20        9.0427   11.1665   15.4817 H         2 RES2    0.0000
     55 C28        6.9341    5.8953   13.6654 C.ar      2 RES2    0.0000
     56 C29        8.3497    8.2532   14.1832 C.ar      2 RES2    0.0000
     57 C30        2.2575    5.7146   19.0549 C.ar      2 RES2    0.0000
     58 H21        1.7301    5.8193   19.8145 H         2 RES2    0.0000
     59 N4         5.4436    6.3081   15.7235 N.pl3     2 RES2    0.0000
     60 C31        8.7479    7.3414   13.0181 C.ar      2 RES2    0.0000
     61 H22        9.4555    7.5778   12.4594 H         2 RES2    0.0000
     62 C32        6.8491    8.9433   16.2426 C.ar      2 RES2    0.0000
     63 H23        6.1163    8.7491   16.7816 H         2 RES2    0.0000
     64 C33        3.9599    6.3386   17.5121 C.ar      2 RES2    0.0000
     65 C34        2.0589    4.4325   18.0708 C.ar      2 RES2    0.0000
     66 C35        2.8247    4.2280   16.9295 C.ar      2 RES2    0.0000
     67 C36        2.6136    3.1023   16.1422 C.ar      2 RES2    0.0000
     68 H24        3.1244    2.9650   15.3787 H         2 RES2    0.0000
     69 C37        1.6297    2.1825   16.4949 C.ar      2 RES2    0.0000
     70 H25        1.4885    1.4295   15.9678 H         2 RES2    0.0000
     71 C38        0.8639    2.3870   17.6362 C.ar      2 RES2    0.0000
     72 H26        0.2083    1.7724   17.8727 H         2 RES2    0.0000
     73 C39        1.0750    3.5127   18.4235 C.ar      2 RES2    0.0000
     74 H27        0.5642    3.6501   19.1870 H         2 RES2    0.0000
     75 C40        8.0494    6.1563   12.7975 C.ar      2 RES2    0.0000
     76 H28        8.2892    5.5637   12.1238 H         2 RES2    0.0000
     77 H29        0.1638    1.8083   17.8330 Du        3 SUP3    0.0000
     78 C41        1.2631    3.9404   18.8634 Du        3 SUP3    0.0000
     79 H30        0.9615    4.1804   19.7101 Du        3 SUP3    0.0000
@<TRIPOS>BOND
     1    1   18 1
     2    2    3 1
     3    4    5 1
     4    6    7 1
     5    8    9 ar
     6    9   10 1
     7   11   12 1
     8   13   18 1
     9   14    9 ar
    10   15   14 1
    11   16    8 ar
    12   17    2 1
    13   18    2 1
    14   19    1 1
    15   20   24 ar
    16   21   14 ar
    17   22   21 1
    18   23    4 1
    19   24   25 1
    20   26    6 ar
    21   27   26 1
    22   28   11 ar
    23   29   28 1
    24   30   16 ar
    25   31   30 1
    26   32   23 ar
    27   33   32 1
    28   34   24 ar
    29   35   34 1
    30   36   11 ar
    31   37   20 ar
    32   38   37 1
    33   39   40 1
    34   41   42 1
    35   43   44 1
    36   45   43 1
    37   46   52 ar
    38   47   48 1
    39   49   59 1
    40   50   51 1
    41   52   56 ar
    42   53   47 ar
    43   54   53 1
    44   55   39 1
    45   56   50 ar
    46   57   41 ar
    47   58   57 1
    48   59   43 1
    49   60   56 ar
    50   61   60 1
    51   62   47 ar
    52   63   62 1
    53   64   41 ar
    54   65   57 ar
    55   66   45 ar
    56   67   66 ar
    57   68   67 1
    58   69   67 ar
    59   70   69 1
    60   71   69 ar
    61   72   71 1
    62   73   65 ar
    63   74   73 1
    64   75   55 ar
    65   76   75 1
    66    6   19 ar
    67    8   17 ar
    68   13   23 ar
    69   13   36 ar
    70   16   26 ar
    71   17   19 ar
    72   20   36 ar
    73   21   30 ar
    74   28   34 ar
    75   32   37 ar
    76   45   64 ar
    77   46   55 ar
    78   46   59 1
    79   49   64 1
    80   50   53 ar
    81   52   62 ar
    82   60   75 ar
    83   65   66 ar
    84   71   73 ar
@<TRIPOS>SUBSTRUCTURE
     1 RES1 1
     2 RES2 39
     3 SUP3 77

@<TRIPOS>CRYSIN
   4.9750   11.5230   13.5310 101.6300  94.5500  90.0000   1 1

