# MOL2 file generated by ConQuest
# Please check atom types

@<TRIPOS>MOLECULE
PEQCIA
   103   109     2
SMALL
NO_CHARGES
****
Generated from CSD

@<TRIPOS>ATOM
      1 O1         1.2315   13.7041    5.2952 O.2       1 RES1    0.0000
      2 N1         1.3310   14.9000    5.3353 N.pl3     1 RES1    0.0000
      3 C1         2.6675   15.5060    5.4901 C.ar      1 RES1    0.0000
      4 O2         0.3922   15.6338    5.1109 O.2       1 RES1    0.0000
      5 C2         3.7631   14.6813    5.5456 C.ar      1 RES1    0.0000
      6 H1         3.6655   13.7360    5.5196 H         1 RES1    0.0000
      7 O3         7.5156   16.5937    5.8327 O.2       1 RES1    0.0000
      8 C3         5.0075   15.2611    5.6413 C.ar      1 RES1    0.0000
      9 H2         5.7853   14.7138    5.6709 H         1 RES1    0.0000
     10 O4         6.4653   18.5710    5.6756 O.3       1 RES1    0.0000
     11 C4         5.1311   16.6507    5.6945 C.ar      1 RES1    0.0000
     12 O5         8.7530   21.1761    6.5900 O.3       1 RES1    0.0000
     13 H3         8.8179   21.9991    6.4317 H         1 RES1    0.0000
     14 C5         4.0083   17.4517    5.6484 C.ar      1 RES1    0.0000
     15 H4         4.0949   18.3964    5.6945 H         1 RES1    0.0000
     16 C6         2.7597   16.8738    5.5362 C.ar      1 RES1    0.0000
     17 H5         1.9783   17.4131    5.4901 H         1 RES1    0.0000
     18 C7         6.5103   17.2377    5.7465 C.2       1 RES1    0.0000
     19 C8         7.7376   19.2946    5.6638 C.3       1 RES1    0.0000
     20 H6         8.4457   18.8261    6.1907 H         1 RES1    0.0000
     21 C9         8.1457   19.5221    4.2354 C.ar      1 RES1    0.0000
     22 C10        8.7935   18.6677    3.3517 C.ar      1 RES1    0.0000
     23 H7         9.0866   17.8097    3.6341 H         1 RES1    0.0000
     24 C11        8.9982   19.0878    2.0722 C.ar      1 RES1    0.0000
     25 H8         9.4221   18.5066    1.4532 H         1 RES1    0.0000
     26 C12        8.5971   20.3504    1.6564 C.ar      1 RES1    0.0000
     27 H9         8.7717   20.6302    0.7656 H         1 RES1    0.0000
     28 C13        7.9434   21.2028    2.5306 C.ar      1 RES1    0.0000
     29 H10        7.6570   22.0597    2.2424 H         1 RES1    0.0000
     30 C14        7.7174   20.7861    3.8278 C.ar      1 RES1    0.0000
     31 C15        6.9964   21.4879    4.9478 C.3       1 RES1    0.0000
     32 H11        6.0159   21.4317    4.8309 H         1 RES1    0.0000
     33 H12        7.2626   22.4398    5.0010 H         1 RES1    0.0000
     34 C16        7.4493   20.7178    6.2025 C.3       1 RES1    0.0000
     35 C17        6.4548   20.7602    7.3768 C.3       1 RES1    0.0000
     36 H13        5.5611   20.4842    7.0212 H         1 RES1    0.0000
     37 C18        5.1794   22.8337    7.9557 C.2       1 RES1    0.0000
     38 H14        4.3827   22.4371    7.6273 H         1 RES1    0.0000
     39 H15        5.1587   23.7151    8.3125 H         1 RES1    0.0000
     40 C19        6.3086   22.1641    7.9191 C.2       1 RES1    0.0000
     41 H16        7.0861   22.5913    8.2570 H         1 RES1    0.0000
     42 C20        6.8127   19.7998    8.4992 C.ar      1 RES1    0.0000
     43 C21        5.9220   18.8123    8.8962 C.ar      1 RES1    0.0000
     44 H17        5.0728   18.7297    8.4768 H         1 RES1    0.0000
     45 C22        6.3005   17.9254    9.9429 C.ar      1 RES1    0.0000
     46 H18        5.7074   17.2286   10.1969 H         1 RES1    0.0000
     47 C23        7.4980   18.0494   10.5927 C.ar      1 RES1    0.0000
     48 H19        7.7301   17.4599   11.3016 H         1 RES1    0.0000
     49 C24        8.3233   19.0051   10.2111 C.ar      1 RES1    0.0000
     50 H20        9.1550   19.0960   10.6553 H         1 RES1    0.0000
     51 C25        8.0161   19.8766    9.1892 C.ar      1 RES1    0.0000
     52 H21        8.6445   20.5476    8.9493 H         1 RES1    0.0000
     53 N2        15.4956   23.7157    6.1836 N.pl3     2 RES2    0.0000
     54 O6        15.8578   22.6387    6.4908 O.2       2 RES2    0.0000
     55 O7        16.2681   24.5745    5.8717 O.2       2 RES2    0.0000
     56 O8         9.7060   26.2031    6.0541 O.3       2 RES2    0.0000
     57 O9         9.0626   24.0575    6.1269 O.2       2 RES2    0.0000
     58 O10        6.9398   28.2460    4.8864 O.3       2 RES2    0.0000
     59 H22        6.8269   27.7062    4.2531 H         2 RES2    0.0000
     60 C26       14.0661   24.0294    6.1174 C.ar      2 RES2    0.0000
     61 C27       13.1811   22.9753    6.1635 C.ar      2 RES2    0.0000
     62 H23       13.4868   22.0763    6.2190 H         2 RES2    0.0000
     63 C28       11.8296   23.2763    6.1269 C.ar      2 RES2    0.0000
     64 H24       11.1889   22.5748    6.1423 H         2 RES2    0.0000
     65 C29       11.4028   24.5951    6.0690 C.ar      2 RES2    0.0000
     66 C30       12.3275   25.6305    6.0017 C.ar      2 RES2    0.0000
     67 H25       12.0365   26.5328    5.9461 H         2 RES2    0.0000
     68 C31       13.6698   25.3322    6.0170 C.ar      2 RES2    0.0000
     69 H26       14.3169   26.0260    5.9580 H         2 RES2    0.0000
     70 C32        9.9393   24.8929    6.0808 C.2       2 RES2    0.0000
     71 C33        8.3042   26.6276    6.0170 C.3       2 RES2    0.0000
     72 H27        7.7349   25.9957    5.4901 H         2 RES2    0.0000
     73 C34        8.2568   28.0648    5.4440 C.3       2 RES2    0.0000
     74 C35        8.4141   28.9762    6.6857 C.3       2 RES2    0.0000
     75 H28        9.3649   29.2156    6.8322 H         2 RES2    0.0000
     76 H29        7.8828   29.8050    6.5877 H         2 RES2    0.0000
     77 C36        9.2927   28.3617    4.3488 C.3       2 RES2    0.0000
     78 H30       10.1839   28.3810    4.8025 H         2 RES2    0.0000
     79 C37        9.0836   29.7480    3.7593 C.2       2 RES2    0.0000
     80 H31        8.2295   29.9207    3.3836 H         2 RES2    0.0000
     81 C38        9.9235   30.6994    3.7132 C.2       2 RES2    0.0000
     82 H32       10.7929   30.5817    4.0748 H         2 RES2    0.0000
     83 H33        9.6798   31.5292    3.3175 H         2 RES2    0.0000
     84 C39        9.3930   27.3186    3.2513 C.ar      2 RES2    0.0000
     85 C40       10.6657   26.9019    2.8614 C.ar      2 RES2    0.0000
     86 H34       11.4306   27.2738    3.2891 H         2 RES2    0.0000
     87 C41       10.8390   25.9682    1.8797 C.ar      2 RES2    0.0000
     88 H35       11.7137   25.6983    1.6292 H         2 RES2    0.0000
     89 C42        9.7259   25.4118    1.2393 C.ar      2 RES2    0.0000
     90 H36        9.8420   24.7535    0.5659 H         2 RES2    0.0000
     91 C43        8.4623   25.8305    1.5961 C.ar      2 RES2    0.0000
     92 H37        7.7015   25.4641    1.1602 H         2 RES2    0.0000
     93 C44        8.2974   26.7882    2.5956 C.ar      2 RES2    0.0000
     94 C45        7.8904   28.1282    7.8140 C.ar      2 RES2    0.0000
     95 C46        7.5495   28.5011    9.1088 C.ar      2 RES2    0.0000
     96 H38        7.6156   29.4084    9.3817 H         2 RES2    0.0000
     97 C47        7.1158   27.5340    9.9878 C.ar      2 RES2    0.0000
     98 H39        6.8905   27.7778   10.8786 H         2 RES2    0.0000
     99 C48        7.0023   26.2015    9.5908 C.ar      2 RES2    0.0000
    100 H40        6.6822   25.5495   10.2028 H         2 RES2    0.0000
    101 C49        7.3561   25.8277    8.3114 C.ar      2 RES2    0.0000
    102 H41        7.2944   24.9188    8.0408 H         2 RES2    0.0000
    103 C50        7.8033   26.7950    7.4265 C.ar      2 RES2    0.0000
@<TRIPOS>BOND
     1    1    2 2
     2    2    3 1
     3    3    5 ar
     4    4    2 2
     5    5    6 1
     6    7   18 2
     7    8    5 ar
     8    9    8 1
     9   10   18 1
    10   11    8 ar
    11   12   13 1
    12   14   11 ar
    13   15   14 1
    14   16    3 ar
    15   17   16 1
    16   18   11 1
    17   19   10 1
    18   20   19 1
    19   21   19 1
    20   22   21 ar
    21   23   22 1
    22   24   22 ar
    23   25   24 1
    24   26   24 ar
    25   27   26 1
    26   28   26 ar
    27   29   28 1
    28   30   21 ar
    29   31   30 1
    30   32   31 1
    31   33   31 1
    32   34   12 1
    33   35   34 1
    34   36   35 1
    35   37   38 1
    36   39   37 1
    37   40   35 1
    38   41   40 1
    39   42   35 1
    40   43   42 ar
    41   44   43 1
    42   45   43 ar
    43   46   45 1
    44   47   45 ar
    45   48   47 1
    46   49   47 ar
    47   50   49 1
    48   51   42 ar
    49   52   51 1
    50   53   54 2
    51   55   53 2
    52   56   70 1
    53   57   70 2
    54   58   59 1
    55   60   53 1
    56   61   60 ar
    57   62   61 1
    58   63   61 ar
    59   64   63 1
    60   65   63 ar
    61   66   65 ar
    62   67   66 1
    63   68   60 ar
    64   69   68 1
    65   70   65 1
    66   71   56 1
    67   72   71 1
    68   73   58 1
    69   74   73 1
    70   75   74 1
    71   76   74 1
    72   77   73 1
    73   78   77 1
    74   79   77 1
    75   80   79 1
    76   81   79 2
    77   82   81 1
    78   83   81 1
    79   84   77 1
    80   85   84 ar
    81   86   85 1
    82   87   85 ar
    83   88   87 1
    84   89   87 ar
    85   90   89 1
    86   91   89 ar
    87   92   91 1
    88   93   84 ar
    89   94   74 1
    90   95   94 ar
    91   96   95 1
    92   97   95 ar
    93   98   97 1
    94   99   97 ar
    95  100   99 1
    96  101   99 ar
    97  102  101 1
    98  103   71 1
    99   14   16 ar
   100   19   34 1
   101   28   30 ar
   102   31   34 1
   103   37   40 2
   104   49   51 ar
   105   66   68 ar
   106   71   73 1
   107   91   93 ar
   108   94  103 ar
   109  101  103 ar
@<TRIPOS>SUBSTRUCTURE
     1 RES1 1
     2 RES2 53

@<TRIPOS>CRYSIN
  31.8047   31.8047   11.8143  90.0000  90.0000 120.0000 232 1

