# MOL2 file generated by ConQuest
# Please check atom types

@<TRIPOS>MOLECULE
PEQWEN
   116   120     2
SMALL
NO_CHARGES
****
Generated from CSD

@<TRIPOS>ATOM
      1 O1         0.0362    7.2457    4.6492 O.2       1 RES1    0.0000
      2 O2         6.3219    3.5368    3.6481 O.2       1 RES1    0.0000
      3 O3         8.1341    2.4585    4.0636 O.2       1 RES1    0.0000
      4 O4         9.9654    2.0769    8.3615 O.2       1 RES1    0.0000
      5 O5         9.0827    3.0995   10.0388 O.2       1 RES1    0.0000
      6 N1         4.1316    5.6763    6.0759 N.2       1 RES1    0.0000
      7 N2         5.0417    4.7744    5.5458 N.3       1 RES1    0.0000
      8 N3         7.1834    3.1350    4.4301 N.pl3     1 RES1    0.0000
      9 N4         9.0874    2.7763    8.8652 N.pl3     1 RES1    0.0000
     10 C1         1.1961    6.9723    4.5459 C.2       1 RES1    0.0000
     11 C2         2.2369    7.1479    5.6516 C.3       1 RES1    0.0000
     12 C3         3.2951    6.1568    5.2360 C.2       1 RES1    0.0000
     13 C4         3.1483    5.8073    3.7627 C.3       1 RES1    0.0000
     14 C5         1.8564    6.4820    3.2980 C.3       1 RES1    0.0000
     15 C6         1.6433    6.9230    7.0430 C.3       1 RES1    0.0000
     16 C7         2.4812    7.4588    8.2091 C.3       1 RES1    0.0000
     17 C8         2.8621    8.9217    8.0051 C.3       1 RES1    0.0000
     18 C9         3.6333    9.0291    6.6904 C.3       1 RES1    0.0000
     19 C10        2.7740    8.6051    5.5118 C.3       1 RES1    0.0000
     20 C11        5.9966    4.2495    6.3441 C.ar      1 RES1    0.0000
     21 C12        7.0713    3.4596    5.8467 C.ar      1 RES1    0.0000
     22 C13        8.0619    2.9905    6.6728 C.ar      1 RES1    0.0000
     23 C14        8.0116    3.2586    8.0076 C.ar      1 RES1    0.0000
     24 C15        6.9575    3.9935    8.5516 C.ar      1 RES1    0.0000
     25 C16        5.9911    4.4743    7.7470 C.ar      1 RES1    0.0000
     26 C17        0.9511    5.7884    2.3888 C.3       1 RES1    0.0000
     27 C18        3.5760    9.5782    9.2165 C.3       1 RES1    0.0000
     28 C19        3.7014   11.0804    8.9659 C.3       1 RES1    0.0000
     29 C20        4.9634    8.9836    9.4470 C.3       1 RES1    0.0000
     30 C21        2.7269    9.3834   10.4783 C.3       1 RES1    0.0000
     31 H1         5.2092    4.5818    4.5434 H         1 RES1    0.0000
     32 H2         3.8763    6.1727    3.3056 H         1 RES1    0.0000
     33 H3         3.2321    4.8834    3.5990 H         1 RES1    0.0000
     34 H4         2.0066    7.1969    2.2503 H         1 RES1    0.0000
     35 H5         0.7438    7.3760    7.0569 H         1 RES1    0.0000
     36 H6         1.4698    5.9386    7.1652 H         1 RES1    0.0000
     37 H7         1.9311    7.3172    9.0641 H         1 RES1    0.0000
     38 H8         3.3092    6.8790    8.3036 H         1 RES1    0.0000
     39 H9         2.0104    9.4606    7.8502 H         1 RES1    0.0000
     40 H10        3.8896    9.9522    6.5318 H         1 RES1    0.0000
     41 H11        4.4614    8.4346    6.7345 H         1 RES1    0.0000
     42 H12        3.1926    8.6886    4.6177 H         1 RES1    0.0000
     43 H13        1.9332    9.1415    5.4287 H         1 RES1    0.0000
     44 H14        5.2112    5.0053    8.0781 H         1 RES1    0.0000
     45 H15        8.7786    2.4918    6.3013 H         1 RES1    0.0000
     46 H16        6.9665    4.1810    9.5225 H         1 RES1    0.0000
     47 H17       -0.0246    6.3581    2.1999 H         1 RES1    0.0000
     48 H18        1.4481    5.5727    1.4570 H         1 RES1    0.0000
     49 H19        1.0297    4.9447    2.9630 H         1 RES1    0.0000
     50 H20        4.0959   11.5114    9.7807 H         1 RES1    0.0000
     51 H21        4.3058   11.3250    8.2985 H         1 RES1    0.0000
     52 H22        2.8035   11.4985    8.7191 H         1 RES1    0.0000
     53 H23        4.8885    8.0636    9.6610 H         1 RES1    0.0000
     54 H24        5.5980    9.1387    8.7040 H         1 RES1    0.0000
     55 H25        5.4186    9.4735   10.2567 H         1 RES1    0.0000
     56 H26        3.0929    9.9209   11.2187 H         1 RES1    0.0000
     57 H27        1.7863    9.6722   10.2932 H         1 RES1    0.0000
     58 H28        2.6756    8.3980   10.7490 H         1 RES1    0.0000
     59 O6         8.8989    1.2665   13.8795 O.2       2 RES2    0.0000
     60 O7         9.3350   -1.3587    7.0607 O.2       2 RES2    0.0000
     61 O8         8.9927   -1.5814    4.9665 O.2       2 RES2    0.0000
     62 O9         5.1368   -0.0049    2.8081 O.2       2 RES2    0.0000
     63 O10        3.6774    1.1576    3.8647 O.2       2 RES2    0.0000
     64 N5         7.0324    0.2286    9.7794 N.2       2 RES2    0.0000
     65 N6         7.5803   -0.1986    8.5718 N.3       2 RES2    0.0000
     66 N7         8.6560   -1.1661    6.0608 N.pl3     2 RES2    0.0000
     67 N8         4.7038    0.5082    3.8206 N.pl3     2 RES2    0.0000
     68 C22        8.7170    0.6367   12.8835 C.2       2 RES2    0.0000
     69 C23        7.3746    0.4289   12.1896 C.3       2 RES2    0.0000
     70 C24        7.8053    0.0723   10.7856 C.2       2 RES2    0.0000
     71 C25        9.2185   -0.4473   10.7818 C.3       2 RES2    0.0000
     72 C26        9.8031   -0.1237   12.1456 C.3       2 RES2    0.0000
     73 C27        6.4430    1.6200   12.3470 C.3       2 RES2    0.0000
     74 C28        4.9988    1.3388   11.9277 C.3       2 RES2    0.0000
     75 C29        4.4034    0.0960   12.5699 C.3       2 RES2    0.0000
     76 C30        5.3320   -1.0806   12.3344 C.3       2 RES2    0.0000
     77 C31        6.7402   -0.8160   12.8558 C.3       2 RES2    0.0000
     78 C32        6.8884   -0.0263    7.4246 C.ar      2 RES2    0.0000
     79 C33        7.3851   -0.4727    6.1792 C.ar      2 RES2    0.0000
     80 C34        6.6772   -0.2868    5.0043 C.ar      2 RES2    0.0000
     81 C35        5.4736    0.3398    5.0559 C.ar      2 RES2    0.0000
     82 C36        4.9423    0.8058    6.2547 C.ar      2 RES2    0.0000
     83 C37        5.6363    0.6244    7.4120 C.ar      2 RES2    0.0000
     84 C38       11.1286    0.4965   12.1758 C.3       2 RES2    0.0000
     85 C39        2.9384   -0.1735   12.1355 C.3       2 RES2    0.0000
     86 C40        2.0693    0.9874   12.6140 C.3       2 RES2    0.0000
     87 C41        2.7960   -0.2306   10.6281 C.3       2 RES2    0.0000
     88 C42        2.4056   -1.4815   12.7097 C.3       2 RES2    0.0000
     89 H29        8.5519   -0.6759    8.5453 H         2 RES2    0.0000
     90 H30        9.2030   -1.4391   10.6483 H         2 RES2    0.0000
     91 H31        9.6748   -0.0401   10.0766 H         2 RES2    0.0000
     92 H32       10.0876   -0.9754   12.7412 H         2 RES2    0.0000
     93 H33        6.4097    1.8747   13.2487 H         2 RES2    0.0000
     94 H34        6.7992    2.3816   11.8333 H         2 RES2    0.0000
     95 H35        4.4656    2.1778   12.1065 H         2 RES2    0.0000
     96 H36        4.9534    1.2485   10.8674 H         2 RES2    0.0000
     97 H37        4.3708    0.2896   13.5685 H         2 RES2    0.0000
     98 H38        5.0766   -1.9176   12.7324 H         2 RES2    0.0000
     99 H39        5.3945   -1.3200   11.3258 H         2 RES2    0.0000
    100 H40        7.3230   -1.6123   12.7147 H         2 RES2    0.0000
    101 H41        6.7214   -0.6853   13.8544 H         2 RES2    0.0000
    102 H42        5.2640    0.9403    8.2217 H         2 RES2    0.0000
    103 H43        7.0164   -0.6246    4.1933 H         2 RES2    0.0000
    104 H44        4.0657    1.2537    6.2837 H         2 RES2    0.0000
    105 H45       11.7935   -0.0911   11.8559 H         2 RES2    0.0000
    106 H46       10.6682    1.2799   11.7778 H         2 RES2    0.0000
    107 H47       11.4384    0.6604   13.1366 H         2 RES2    0.0000
    108 H48        2.1229    0.6629   13.6541 H         2 RES2    0.0000
    109 H49        2.3649    1.7896   12.8142 H         2 RES2    0.0000
    110 H50        1.1495    0.7772   12.3898 H         2 RES2    0.0000
    111 H51        1.7851   -0.4889   10.3977 H         2 RES2    0.0000
    112 H52        2.9650    0.6474   10.2491 H         2 RES2    0.0000
    113 H53        3.3700   -1.1988   10.4481 H         2 RES2    0.0000
    114 H54        1.4531   -1.5459   12.4780 H         2 RES2    0.0000
    115 H55        2.9286   -2.2163   12.5636 H         2 RES2    0.0000
    116 H56        2.6202   -1.2372   13.7196 H         2 RES2    0.0000
@<TRIPOS>BOND
     1    1   10 2
     2    2    8 2
     3    3    8 2
     4    4    9 2
     5    5    9 2
     6    6    7 1
     7    7   20 1
     8    8   21 1
     9    9   23 1
    10   10   11 1
    11   11   12 1
    12   12    6 2
    13   13   12 1
    14   14   10 1
    15   15   11 1
    16   16   15 1
    17   17   16 1
    18   18   17 1
    19   19   11 1
    20   20   21 ar
    21   21   22 ar
    22   22   23 ar
    23   23   24 ar
    24   24   25 ar
    25   25   20 ar
    26   26   14 1
    27   27   17 1
    28   28   27 1
    29   29   27 1
    30   30   27 1
    31   31    7 1
    32   32   13 1
    33   33   13 1
    34   34   14 1
    35   35   15 1
    36   36   15 1
    37   37   16 1
    38   38   16 1
    39   39   17 1
    40   40   18 1
    41   41   18 1
    42   42   19 1
    43   43   19 1
    44   44   25 1
    45   45   22 1
    46   46   24 1
    47   47   26 1
    48   48   26 1
    49   49   26 1
    50   50   28 1
    51   51   28 1
    52   52   28 1
    53   53   29 1
    54   54   29 1
    55   55   29 1
    56   56   30 1
    57   57   30 1
    58   58   30 1
    59   59   68 2
    60   60   66 2
    61   61   66 2
    62   62   67 2
    63   63   67 2
    64   64   65 1
    65   65   78 1
    66   66   79 1
    67   67   81 1
    68   68   69 1
    69   69   70 1
    70   70   64 2
    71   71   70 1
    72   72   68 1
    73   73   69 1
    74   74   73 1
    75   75   74 1
    76   76   75 1
    77   77   69 1
    78   78   79 ar
    79   79   80 ar
    80   80   81 ar
    81   81   82 ar
    82   82   83 ar
    83   83   78 ar
    84   84   72 1
    85   85   75 1
    86   86   85 1
    87   87   85 1
    88   88   85 1
    89   89   65 1
    90   90   71 1
    91   91   71 1
    92   92   72 1
    93   93   73 1
    94   94   73 1
    95   95   74 1
    96   96   74 1
    97   97   75 1
    98   98   76 1
    99   99   76 1
   100  100   77 1
   101  101   77 1
   102  102   83 1
   103  103   80 1
   104  104   82 1
   105  105   84 1
   106  106   84 1
   107  107   84 1
   108  108   86 1
   109  109   86 1
   110  110   86 1
   111  111   87 1
   112  112   87 1
   113  113   87 1
   114  114   88 1
   115  115   88 1
   116  116   88 1
   117   13   14 1
   118   18   19 1
   119   71   72 1
   120   76   77 1
@<TRIPOS>SUBSTRUCTURE
     1 RES1 1
     2 RES2 59

@<TRIPOS>CRYSIN
  13.0580   13.7380   13.0500 105.1800  95.5500  72.2000   2 1

