# MOL2 file generated by ConQuest
# Please check atom types

@<TRIPOS>MOLECULE
PEQWOX
    61    62     2
SMALL
NO_CHARGES
****
Generated from CSD

@<TRIPOS>ATOM
      1 O1        -0.2688   -5.6382    4.2916 O.2       1 RES1    0.0000
      2 O2         2.8264    1.9331   -0.3794 O.2       1 RES1    0.0000
      3 O3         1.3272    0.6643    0.5356 O.2       1 RES1    0.0000
      4 O4         7.2343    2.5071    3.7716 O.2       1 RES1    0.0000
      5 O5         6.6605    3.3971    1.8858 O.2       1 RES1    0.0000
      6 N1         1.6554   -1.4382    3.7917 N.2       1 RES1    0.0000
      7 N2         1.8474   -0.5337    2.7495 N.pl3     1 RES1    0.0000
      8 N3         2.4173    1.2544    0.5691 N.pl3     1 RES1    0.0000
      9 N4         6.4680    2.6393    2.8320 N.pl3     1 RES1    0.0000
     10 C1        -0.0489   -4.5306    3.8742 C.2       1 RES1    0.0000
     11 C2         2.9285    0.2757    2.8097 C.ar      1 RES1    0.0000
     12 C3         0.4746   -3.3649    4.6955 C.3       1 RES1    0.0000
     13 C4         3.2452    1.1528    1.7452 C.ar      1 RES1    0.0000
     14 C5         0.7941   -2.3604    3.6243 C.2       1 RES1    0.0000
     15 C6         4.4006    1.9299    1.7564 C.ar      1 RES1    0.0000
     16 C7         0.0005   -2.6216    2.3790 C.3       1 RES1    0.0000
     17 C8         5.2262    1.8558    2.8320 C.ar      1 RES1    0.0000
     18 C9        -0.3165   -4.1275    2.4281 C.3       1 RES1    0.0000
     19 C10        4.9377    1.0609    3.9300 C.ar      1 RES1    0.0000
     20 C11        1.5912   -3.7792    5.6440 C.3       1 RES1    0.0000
     21 C12        3.8154    0.2870    3.9144 C.ar      1 RES1    0.0000
     22 C13        1.9430   -2.7474    6.7130 C.3       1 RES1    0.0000
     23 C14        0.7238   -2.2717    7.5142 C.3       1 RES1    0.0000
     24 C15       -0.3438   -1.7719    6.5344 C.3       1 RES1    0.0000
     25 C16       -0.7394   -2.8473    5.5302 C.3       1 RES1    0.0000
     26 C17        0.6521   -4.9127    1.5310 C.3       1 RES1    0.0000
     27 C18       -1.7475   -4.4451    2.0175 C.3       1 RES1    0.0000
     28 C19        1.0663   -1.2947    8.6568 C.3       1 RES1    0.0000
     29 C20        1.8051   -0.0500    8.1413 C.3       1 RES1    0.0000
     30 C21        1.9613   -1.9993    9.6879 C.3       1 RES1    0.0000
     31 C22       -0.2074   -0.8384    9.3799 C.3       1 RES1    0.0000
     32 H1         2.1151   -1.3479    4.6129 Du        2 SUP2    0.0000
     33 H2         4.5692    2.4958    0.9708 H         1 RES1    0.0000
     34 H3         0.4555   -2.3185    1.4886 H         1 RES1    0.0000
     35 H4        -0.8702   -2.1041    2.3812 H         1 RES1    0.0000
     36 H5         5.5573    0.9916    4.6933 H         1 RES1    0.0000
     37 H6         1.3558   -4.6531    6.1104 H         1 RES1    0.0000
     38 H7         2.4132   -4.0727    5.0883 H         1 RES1    0.0000
     39 H8         3.6414   -0.2483    4.6732 H         1 RES1    0.0000
     40 H9         2.6403   -3.1940    7.4048 H         1 RES1    0.0000
     41 H10        2.4246   -2.0009    6.3381 H         1 RES1    0.0000
     42 H11        0.3456   -3.0763    7.8824 H         1 RES1    0.0000
     43 H12       -1.2074   -1.4640    6.9629 H         1 RES1    0.0000
     44 H13        0.0244   -0.8916    6.0814 H         1 RES1    0.0000
     45 H14       -1.1290   -3.6470    6.0345 H         1 RES1    0.0000
     46 H15       -1.4789   -2.4910    4.9053 H         1 RES1    0.0000
     47 H16        1.6300   -4.5628    1.8456 H         1 RES1    0.0000
     48 H17        0.4464   -4.5838    0.5535 H         1 RES1    0.0000
     49 H18        0.6909   -5.8494    1.8099 H         1 RES1    0.0000
     50 H19       -1.7650   -4.2613    0.9552 H         1 RES1    0.0000
     51 H20       -1.9667   -5.2819    2.3991 H         1 RES1    0.0000
     52 H21       -2.3537   -4.0033    2.6870 H         1 RES1    0.0000
     53 H22        2.8051   -0.2902    7.7864 H         1 RES1    0.0000
     54 H23        1.3141    0.4579    7.4048 H         1 RES1    0.0000
     55 H24        1.9068    0.5272    8.8309 H         1 RES1    0.0000
     56 H25        1.5430   -2.7119   10.0315 H         1 RES1    0.0000
     57 H26        2.9355   -2.0734    9.2638 H         1 RES1    0.0000
     58 H27        2.2137   -1.3511   10.5515 H         1 RES1    0.0000
     59 H28        0.0327   -0.2209   10.2324 H         1 RES1    0.0000
     60 H29       -0.7871   -0.2386    8.7371 H         1 RES1    0.0000
     61 H30       -0.7399   -1.4914    9.6321 H         1 RES1    0.0000
@<TRIPOS>BOND
     1    1   10 2
     2    2    8 2
     3    3    8 2
     4    4    9 2
     5    5    9 2
     6    6    7 1
     7    7   11 1
     8    8   13 1
     9    9   17 1
    10   10   12 1
    11   11   13 ar
    12   12   14 1
    13   13   15 ar
    14   14    6 2
    15   15   17 ar
    16   16   14 1
    17   17   19 ar
    18   18   10 1
    19   19   21 ar
    20   20   12 1
    21   21   11 ar
    22   22   20 1
    23   23   22 1
    24   24   23 1
    25   25   12 1
    26   26   18 1
    27   27   18 1
    28   28   23 1
    29   29   28 1
    30   30   28 1
    31   31   28 1
    32   33   15 1
    33   34   16 1
    34   35   16 1
    35   36   19 1
    36   37   20 1
    37   38   20 1
    38   39   21 1
    39   40   22 1
    40   41   22 1
    41   42   23 1
    42   43   24 1
    43   44   24 1
    44   45   25 1
    45   46   25 1
    46   47   26 1
    47   48   26 1
    48   49   26 1
    49   50   27 1
    50   51   27 1
    51   52   27 1
    52   53   29 1
    53   54   29 1
    54   55   29 1
    55   56   30 1
    56   57   30 1
    57   58   30 1
    58   59   31 1
    59   60   31 1
    60   61   31 1
    61   16   18 1
    62   24   25 1
@<TRIPOS>SUBSTRUCTURE
     1 RES1 1
     2 SUP2 32

@<TRIPOS>CRYSIN
   6.2530   16.1230   22.4920  90.0000  97.1500  90.0000  14 1

