# MOL2 file generated by ConQuest
# Please check atom types

@<TRIPOS>MOLECULE
PERCEV
    55    58     1
SMALL
NO_CHARGES
****
Generated from CSD

@<TRIPOS>ATOM
      1 O1         6.1087    8.2985    9.2306 O.3       1 RES1    0.0000
      2 O2         3.0640    7.8075   11.7138 O.3       1 RES1    0.0000
      3 O3         1.9802    7.9870    7.7862 O.3       1 RES1    0.0000
      4 O4         1.8653   10.2362    7.6294 O.3       1 RES1    0.0000
      5 N1         4.8117    8.4076    8.5645 N.3       1 RES1    0.0000
      6 C1         6.8883    7.5185    5.7221 C.ar      1 RES1    0.0000
      7 H1         7.0033    6.5976    5.9264 H         1 RES1    0.0000
      8 C2         7.7108    8.1159    4.7781 C.ar      1 RES1    0.0000
      9 C3         7.5562    9.4558    4.4747 C.ar      1 RES1    0.0000
     10 H2         8.1256    9.8718    3.8387 H         1 RES1    0.0000
     11 C4         6.5653   10.1843    5.1027 C.ar      1 RES1    0.0000
     12 H3         6.4502   11.1032    4.8907 H         1 RES1    0.0000
     13 C5         5.7318    9.5839    6.0471 C.ar      1 RES1    0.0000
     14 H4         5.0485   10.0927    6.4681 H         1 RES1    0.0000
     15 C6         5.8987    8.2417    6.3739 C.ar      1 RES1    0.0000
     16 C7         4.9899    7.5801    7.3696 C.3       1 RES1    0.0000
     17 H5         4.1084    7.4159    6.9500 H         1 RES1    0.0000
     18 H6         5.3719    6.7051    7.6307 H         1 RES1    0.0000
     19 C8         6.1483    9.3414   10.2229 C.3       1 RES1    0.0000
     20 H7         5.9818   10.2287    9.7925 H         1 RES1    0.0000
     21 C9         5.0724    9.0530   11.2389 C.2       1 RES1    0.0000
     22 H8         5.1315    9.4065   12.1186 H         1 RES1    0.0000
     23 C10        4.0406    8.2965   10.8828 C.2       1 RES1    0.0000
     24 C11        3.7695    7.8686    9.4608 C.3       1 RES1    0.0000
     25 H9         3.7485    6.8707    9.4009 H         1 RES1    0.0000
     26 C12        2.3944    8.4521    9.0716 C.3       1 RES1    0.0000
     27 H10        1.7175    8.1741    9.7529 H         1 RES1    0.0000
     28 C13        2.3732    9.9977    8.9378 C.3       1 RES1    0.0000
     29 H11        1.7846   10.4022    9.6231 H         1 RES1    0.0000
     30 H12        3.2848   10.3727    9.0357 H         1 RES1    0.0000
     31 C14        1.1950    9.0423    7.2172 C.3       1 RES1    0.0000
     32 C15        1.2728    8.9392    5.7124 C.3       1 RES1    0.0000
     33 H13        2.2050    9.0299    5.4263 H         1 RES1    0.0000
     34 H14        0.7359    9.6520    5.3076 H         1 RES1    0.0000
     35 H15        0.9263    8.0676    5.4263 H         1 RES1    0.0000
     36 C16       -0.2310    9.0082    7.7372 C.3       1 RES1    0.0000
     37 H16       -0.7362    9.7565    7.3558 H         1 RES1    0.0000
     38 H17       -0.2246    9.0821    8.7141 H         1 RES1    0.0000
     39 H18       -0.6535    8.1633    7.4765 H         1 RES1    0.0000
     40 C17        3.2686    8.0400   13.1108 C.3       1 RES1    0.0000
     41 H19        3.3130    9.0042   13.2781 H         1 RES1    0.0000
     42 H20        4.1080    7.6200   13.3927 H         1 RES1    0.0000
     43 H21        2.5246    7.6545   13.6190 H         1 RES1    0.0000
     44 C18        7.5194    9.3232   10.8511 C.ar      1 RES1    0.0000
     45 C19        8.0232    8.1717   11.4543 C.ar      1 RES1    0.0000
     46 H22        7.5085    7.3726   11.4551 H         1 RES1    0.0000
     47 C20        9.2759    8.1903   12.0546 C.ar      1 RES1    0.0000
     48 H23        9.6218    7.4002   12.4524 H         1 RES1    0.0000
     49 C21       10.0257    9.3611   12.0761 C.ar      1 RES1    0.0000
     50 H24       10.8817    9.3700   12.4879 H         1 RES1    0.0000
     51 H25        8.3835    7.6082    4.3429 H         1 RES1    0.0000
     52 C22        9.5250   10.5127   11.4988 C.ar      1 RES1    0.0000
     53 H26       10.0292   11.3171   11.5262 H         1 RES1    0.0000
     54 C23        8.2774   10.4893   10.8752 C.ar      1 RES1    0.0000
     55 H27        7.9420   11.2767   10.4630 H         1 RES1    0.0000
@<TRIPOS>BOND
     1    1    5 1
     2    2   23 1
     3    3   26 1
     4    4   28 1
     5    5   16 1
     6    6    7 1
     7    8    6 ar
     8    9    8 ar
     9   10    9 1
    10   11    9 ar
    11   12   11 1
    12   13   11 ar
    13   14   13 1
    14   15    6 ar
    15   16   15 1
    16   17   16 1
    17   18   16 1
    18   19    1 1
    19   20   19 1
    20   21   19 1
    21   22   21 1
    22   23   21 2
    23   24    5 1
    24   25   24 1
    25   26   24 1
    26   27   26 1
    27   28   26 1
    28   29   28 1
    29   30   28 1
    30   31    3 1
    31   32   31 1
    32   33   32 1
    33   34   32 1
    34   35   32 1
    35   36   31 1
    36   37   36 1
    37   38   36 1
    38   39   36 1
    39   40    2 1
    40   41   40 1
    41   42   40 1
    42   43   40 1
    43   44   19 1
    44   45   44 ar
    45   46   45 1
    46   47   45 ar
    47   48   47 1
    48   49   47 ar
    49   50   49 1
    50   51    8 1
    51   52   49 ar
    52   53   52 1
    53   54   44 ar
    54   55   54 1
    55    4   31 1
    56   13   15 ar
    57   23   24 1
    58   52   54 ar
@<TRIPOS>SUBSTRUCTURE
     1 RES1 1

@<TRIPOS>CRYSIN
  10.0530    9.8590   10.2020  90.0000  96.0870  90.0000   4 1

