# MOL2 file generated by ConQuest
# Please check atom types

@<TRIPOS>MOLECULE
PERNUX
    41    44     1
SMALL
NO_CHARGES
****
Generated from CSD

@<TRIPOS>ATOM
      1 O1        -0.4354    3.4836    1.7039 O.2       1 RES1    0.0000
      2 O2         2.8742    3.0843   -1.2782 O.3       1 RES1    0.0000
      3 N1         1.5894    2.8783   -0.6230 N.3       1 RES1    0.0000
      4 C1         0.6614    7.7270    2.2656 C.ar      1 RES1    0.0000
      5 H1         0.1476    8.4230    2.6585 H         1 RES1    0.0000
      6 C2         0.1324    6.4607    2.1606 C.ar      1 RES1    0.0000
      7 H2        -0.7417    6.2692    2.4798 H         1 RES1    0.0000
      8 C3         0.9188    5.4610    1.5694 C.ar      1 RES1    0.0000
      9 C4         0.5969    4.0352    1.3842 C.2       1 RES1    0.0000
     10 C5         1.8478    3.3334    0.7842 C.3       1 RES1    0.0000
     11 C6         1.1799    1.5324   -0.8786 C.ar      1 RES1    0.0000
     12 C7        -0.0385    1.0990   -0.3600 C.ar      1 RES1    0.0000
     13 H3        -0.5323    1.6610    0.2252 H         1 RES1    0.0000
     14 C8        -0.5312   -0.1559   -0.6984 C.ar      1 RES1    0.0000
     15 H4        -1.3611   -0.4457   -0.3397 H         1 RES1    0.0000
     16 C9         0.1710   -0.9884   -1.5512 C.ar      1 RES1    0.0000
     17 H5        -0.1779   -1.8396   -1.7891 H         1 RES1    0.0000
     18 C10        1.9513    7.9934    1.7963 C.ar      1 RES1    0.0000
     19 H6         2.2970    8.8754    1.8646 H         1 RES1    0.0000
     20 C11        2.7366    7.0024    1.2343 C.ar      1 RES1    0.0000
     21 H7         3.6177    7.1924    0.9348 H         1 RES1    0.0000
     22 C12        2.2075    5.7222    1.1171 C.ar      1 RES1    0.0000
     23 C13        2.3381    2.2408    1.7233 C.3       1 RES1    0.0000
     24 H8         1.6146    1.6004    1.8860 H         1 RES1    0.0000
     25 H9         2.6174    2.6418    2.5729 H         1 RES1    0.0000
     26 H10        3.0993    1.7762    1.3148 H         1 RES1    0.0000
     27 C14        3.2006    4.4529   -0.9368 C.3       1 RES1    0.0000
     28 C15        4.6899    4.5957   -1.2179 C.3       1 RES1    0.0000
     29 H11        5.1882    3.9473   -0.6769 H         1 RES1    0.0000
     30 H12        4.9800    5.5036   -0.9889 H         1 RES1    0.0000
     31 H13        4.8602    4.4276   -2.1678 H         1 RES1    0.0000
     32 C16        2.3776    5.4147   -1.7734 C.3       1 RES1    0.0000
     33 H14        2.5518    5.2528   -2.7239 H         1 RES1    0.0000
     34 H15        2.6237    6.3364   -1.5488 H         1 RES1    0.0000
     35 H16        1.4254    5.2769   -1.5878 H         1 RES1    0.0000
     36 C17        2.8740    4.4806    0.5774 C.3       1 RES1    0.0000
     37 H17        3.7022    4.2883    1.1034 H         1 RES1    0.0000
     38 C18        1.9038    0.6831   -1.7150 C.ar      1 RES1    0.0000
     39 H18        2.7486    0.9568   -2.0533 H         1 RES1    0.0000
     40 C19        1.3891   -0.5643   -2.0528 C.ar      1 RES1    0.0000
     41 H19        1.8795   -1.1326   -2.6346 H         1 RES1    0.0000
@<TRIPOS>BOND
     1    1    9 2
     2    2    3 1
     3    3   10 1
     4    4    5 1
     5    6    4 ar
     6    7    6 1
     7    8    6 ar
     8    9    8 1
     9   10    9 1
    10   11    3 1
    11   12   11 ar
    12   13   12 1
    13   14   12 ar
    14   15   14 1
    15   16   14 ar
    16   17   16 1
    17   18    4 ar
    18   19   18 1
    19   20   18 ar
    20   21   20 1
    21   22    8 ar
    22   23   10 1
    23   24   23 1
    24   25   23 1
    25   26   23 1
    26   27    2 1
    27   28   27 1
    28   29   28 1
    29   30   28 1
    30   31   28 1
    31   32   27 1
    32   33   32 1
    33   34   32 1
    34   35   32 1
    35   36   10 1
    36   37   36 1
    37   38   11 ar
    38   39   38 1
    39   40   16 ar
    40   41   40 1
    41   20   22 ar
    42   22   36 1
    43   27   36 1
    44   38   40 ar
@<TRIPOS>SUBSTRUCTURE
     1 RES1 1

@<TRIPOS>CRYSIN
  12.6141    9.6065   12.5816  90.0000  90.0000  90.0000  29 1

