# MOL2 file generated by ConQuest
# Please check atom types

@<TRIPOS>MOLECULE
PERPEJ
    43    47     1
SMALL
NO_CHARGES
****
Generated from CSD

@<TRIPOS>ATOM
      1 O1        -0.3904    1.4631   11.8601 O.3       1 RES1    0.0000
      2 O2         1.3614   -0.1711    7.9122 O.2       1 RES1    0.0000
      3 O3         0.8408   -2.3238    9.4321 O.3       1 RES1    0.0000
      4 O4         2.6462    0.6633   12.1889 O.2       1 RES1    0.0000
      5 O5         3.8485   -2.4686    9.1343 O.2       1 RES1    0.0000
      6 N1         0.7885    0.0105    8.9838 N.pl3     1 RES1    0.0000
      7 N2         0.0813   -1.1713    9.6121 N.3       1 RES1    0.0000
      8 N3         3.5280   -0.7714   10.6641 N.am      1 RES1    0.0000
      9 C1         0.0143    0.7305   10.9667 C.2       1 RES1    0.0000
     10 C2         0.6047    1.1073    9.7020 C.2       1 RES1    0.0000
     11 C3         0.0453   -0.8029   11.0306 C.3       1 RES1    0.0000
     12 C4         1.4347   -1.3529   11.5377 C.3       1 RES1    0.0000
     13 C5         2.5602   -0.3611   11.5492 C.2       1 RES1    0.0000
     14 C6         3.1872   -1.9333    9.9818 C.2       1 RES1    0.0000
     15 C7         1.8117   -2.3899   10.4955 C.3       1 RES1    0.0000
     16 C8         0.9982    2.4739    9.2750 C.ar      1 RES1    0.0000
     17 C9         0.1672    3.5455    9.6628 C.ar      1 RES1    0.0000
     18 C10        0.5510    4.8145    9.3127 C.ar      1 RES1    0.0000
     19 C11        1.6744    5.0538    8.5699 C.ar      1 RES1    0.0000
     20 C12        2.4951    3.9916    8.2246 C.ar      1 RES1    0.0000
     21 C13        2.1492    2.7037    8.5731 C.ar      1 RES1    0.0000
     22 C14       -1.1358   -1.4201   11.7815 C.ar      1 RES1    0.0000
     23 C15       -1.2432   -1.1965   13.1444 C.ar      1 RES1    0.0000
     24 C16       -2.3164   -1.7371   13.8430 C.ar      1 RES1    0.0000
     25 C17       -3.2919   -2.4812   13.2115 C.ar      1 RES1    0.0000
     26 C18       -3.1566   -2.6880   11.8699 C.ar      1 RES1    0.0000
     27 C19       -2.0818   -2.1527   11.1369 C.ar      1 RES1    0.0000
     28 C20        4.7472   -0.0262   10.4023 C.3       1 RES1    0.0000
     29 H1         1.3392   -1.7581   12.4245 H         1 RES1    0.0000
     30 H2         1.8565   -3.2884   10.8817 H         1 RES1    0.0000
     31 H3        -0.5935    3.3849   10.1749 H         1 RES1    0.0000
     32 H4        -0.0012    5.5313    9.5286 H         1 RES1    0.0000
     33 H5         1.9128    5.9176    8.3245 H         1 RES1    0.0000
     34 H6         3.2877    4.1522    7.7649 H         1 RES1    0.0000
     35 H7         2.7070    1.9974    8.3359 H         1 RES1    0.0000
     36 H8        -0.5807   -0.7032   13.5714 H         1 RES1    0.0000
     37 H9        -2.3855   -1.5985   14.7592 H         1 RES1    0.0000
     38 H10       -4.0160   -2.8402   13.6696 H         1 RES1    0.0000
     39 H11       -3.8244   -3.1782   11.4461 H         1 RES1    0.0000
     40 H12       -2.0038   -2.3143   10.2240 H         1 RES1    0.0000
     41 H13        5.4082   -0.6361   10.0113 H         1 RES1    0.0000
     42 H14        4.5558    0.6959    9.7675 H         1 RES1    0.0000
     43 H15        5.1045    0.3548   11.2318 H         1 RES1    0.0000
@<TRIPOS>BOND
     1    1    9 1
     2    2    6 1
     3    3    7 1
     4    4   13 2
     5    5   14 2
     6    6    7 1
     7    7   11 1
     8    8   13 1
     9    9   10 2
    10   10    6 1
    11   11    9 1
    12   12   11 1
    13   13   12 1
    14   14    8 1
    15   15    3 1
    16   16   10 1
    17   17   16 ar
    18   18   17 ar
    19   19   18 ar
    20   20   19 ar
    21   21   16 ar
    22   22   11 1
    23   23   22 ar
    24   24   23 ar
    25   25   24 ar
    26   26   25 ar
    27   27   22 ar
    28   28    8 1
    29   29   12 1
    30   30   15 1
    31   31   17 1
    32   32   18 1
    33   33   19 1
    34   34   20 1
    35   35   21 1
    36   36   23 1
    37   37   24 1
    38   38   25 1
    39   39   26 1
    40   40   27 1
    41   41   28 1
    42   42   28 1
    43   43   28 1
    44   12   15 1
    45   14   15 1
    46   20   21 ar
    47   26   27 ar
@<TRIPOS>SUBSTRUCTURE
     1 RES1 1

@<TRIPOS>CRYSIN
  10.1933   10.4959   16.4060  90.0000  94.2470  90.0000 231 1

