# MOL2 file generated by ConQuest
# Please check atom types

@<TRIPOS>MOLECULE
PERQAH
    28    30     1
SMALL
NO_CHARGES
****
Generated from CSD

@<TRIPOS>ATOM
      1 C1         0.0562    6.6423    4.6229 C.ar      1 RES1    0.0000
      2 C2         0.9516    8.2265    6.2804 C.ar      1 RES1    0.0000
      3 C3        -0.8564    5.0973    2.9887 C.ar      1 RES1    0.0000
      4 H1        -1.0421    4.8752    2.1051 H         1 RES1    0.0000
      5 C4         0.6092    7.3253    7.3463 C.ar      1 RES1    0.0000
      6 C5        -0.2647    5.7171    5.6710 C.ar      1 RES1    0.0000
      7 N1        -0.1816    5.0952    8.0493 N.pl3     1 RES1    0.0000
      8 C6         1.0110    8.7907    3.8947 C.1       1 RES1    0.0000
      9 C7         1.8277    9.8061    7.9029 C.ar      1 RES1    0.0000
     10 H2         2.2317   10.6199    8.0995 H         1 RES1    0.0000
     11 C8         0.0483    6.0915    6.9880 C.ar      1 RES1    0.0000
     12 C9         0.6752    7.8698    4.9419 C.ar      1 RES1    0.0000
     13 C10        1.4767    8.9245    8.9528 C.ar      1 RES1    0.0000
     14 H3         1.6491    9.1691    9.8329 H         1 RES1    0.0000
     15 C11       -1.2116    4.2003    4.0323 C.ar      1 RES1    0.0000
     16 H4        -1.6460    3.4034    3.8268 H         1 RES1    0.0000
     17 C12       -0.2468    6.2795    3.2738 C.ar      1 RES1    0.0000
     18 H5        -0.0242    6.8586    2.5822 H         1 RES1    0.0000
     19 C13       -0.9223    4.4954    5.3333 C.ar      1 RES1    0.0000
     20 H6        -1.1551    3.8956    6.0052 H         1 RES1    0.0000
     21 C14        1.5786    9.4713    6.6101 C.ar      1 RES1    0.0000
     22 H7         1.8180   10.0580    5.9301 H         1 RES1    0.0000
     23 C15        0.8902    7.7223    8.6955 C.ar      1 RES1    0.0000
     24 H8         0.6711    7.1549    9.3986 H         1 RES1    0.0000
     25 O1        -0.9137    5.3873    8.9844 O.2       1 RES1    0.0000
     26 O2         0.4046    4.0226    7.9523 O.2       1 RES1    0.0000
     27 C16        1.2935    9.5741    3.0459 C.1       1 RES1    0.0000
     28 H9         1.5143   10.1876    2.3820 H         1 RES1    0.0000
@<TRIPOS>BOND
     1    1    6 ar
     2    2    5 ar
     3    3    4 1
     4    5   11 ar
     5    6   11 ar
     6    7   11 1
     7    8   12 1
     8    9   10 1
     9   12    1 ar
    10   13    9 ar
    11   14   13 1
    12   15    3 ar
    13   16   15 1
    14   17    1 ar
    15   18   17 1
    16   19    6 ar
    17   20   19 1
    18   21    2 ar
    19   22   21 1
    20   23    5 ar
    21   24   23 1
    22   25    7 2
    23   26    7 2
    24   27    8 3
    25   28   27 1
    26    2   12 ar
    27    3   17 ar
    28    9   21 ar
    29   13   23 ar
    30   15   19 ar
@<TRIPOS>SUBSTRUCTURE
     1 RES1 1

@<TRIPOS>CRYSIN
   3.8659   16.1913    9.0929  90.0000 100.6960  90.0000   4 1

