# MOL2 file generated by ConQuest
# Please check atom types

@<TRIPOS>MOLECULE
PERSEN
    35    34     2
SMALL
NO_CHARGES
****
Generated from CSD

@<TRIPOS>ATOM
      1 O1        11.7556    5.3310   11.8463 O.2       1 RES1    0.0000
      2 O2        10.0895    6.3186   10.8930 O.2       1 RES1    0.0000
      3 N1        10.5920    5.5033   11.6103 N.pl3     1 RES1    0.0000
      4 C1         9.5745    4.5787   12.3428 C.3       1 RES1    0.0000
      5 N2        10.2504    3.2260   12.7197 N.pl3     1 RES1    0.0000
      6 O3        11.1155    3.3518   13.5333 O.2       1 RES1    0.0000
      7 O4         9.8410    2.2678   12.1923 O.2       1 RES1    0.0000
      8 N3         9.2243    5.2633   13.6824 N.pl3     1 RES1    0.0000
      9 O5         9.5323    6.4157   13.7841 O.2       1 RES1    0.0000
     10 O6         8.6750    4.5527   14.4777 O.2       1 RES1    0.0000
     11 N4         8.3935    4.4235   11.5767 N.pl3     1 RES1    0.0000
     12 N5         7.2850    5.1094   12.0080 N.2       1 RES1    0.0000
     13 C2         6.4237    4.9261   11.0563 C.2       1 RES1    0.0000
     14 N6         5.0811    5.4999   11.1868 N.pl3     1 RES1    0.0000
     15 O7         4.7725    6.2645   10.3329 O.2       1 RES1    0.0000
     16 O8         4.4819    5.1942   12.1823 O.2       1 RES1    0.0000
     17 C3         6.9280    4.1615   10.0072 C.2       1 RES1    0.0000
     18 N7         6.2604    3.8305    8.7812 N.pl3     1 RES1    0.0000
     19 O9         6.8539    3.2766    7.9256 O.2       1 RES1    0.0000
     20 O10        5.1073    4.1369    8.7023 O.2       1 RES1    0.0000
     21 C4         8.2197    3.8442   10.3471 C.2       1 RES1    0.0000
     22 C5         9.2417    3.1138    9.5926 C.2       1 RES1    0.0000
     23 C6         9.1880    1.8246    9.0386 C.2       1 RES1    0.0000
     24 N8         8.1123    0.8850    9.1891 N.pl3     1 RES1    0.0000
     25 O11        7.3733    1.0573   10.1335 O.2       1 RES1    0.0000
     26 O12        8.0260   -0.0260    8.4210 O.2       1 RES1    0.0000
     27 C7        10.3680    1.7015    8.3488 C.2       1 RES1    0.0000
     28 N9        10.9240    0.6463    7.5288 N.pl3     1 RES1    0.0000
     29 O13       11.6187    0.9923    6.6088 O.2       1 RES1    0.0000
     30 O14       10.6546   -0.4863    7.7923 O.2       1 RES1    0.0000
     31 N10       11.0463    2.8334    8.5221 N.pl3     1 RES1    0.0000
     32 H1        11.8240    2.9818    8.1836 H         1 RES1    0.0000
     33 N11       10.3832    3.7143    9.2810 N.2       1 RES1    0.0000
     34 O15        4.1594    4.7162   11.1965 Du        2 SUP2    0.0000
     35 O16        4.9226    6.6660   11.1327 Du        2 SUP2    0.0000
@<TRIPOS>BOND
     1    1    3 2
     2    2    3 2
     3    3    4 1
     4    4    5 1
     5    5    6 2
     6    7    5 2
     7    8    4 1
     8    9    8 2
     9   10    8 2
    10   11    4 1
    11   12   11 1
    12   13   12 2
    13   14   13 1
    14   15   14 2
    15   16   14 2
    16   17   13 1
    17   18   17 1
    18   19   18 2
    19   20   18 2
    20   21   11 1
    21   22   21 1
    22   23   22 1
    23   24   23 1
    24   25   24 2
    25   26   24 2
    26   27   23 2
    27   28   27 1
    28   29   28 2
    29   30   28 2
    30   31   27 1
    31   32   31 1
    32   33   22 2
    33   17   21 2
    34   31   33 1
@<TRIPOS>SUBSTRUCTURE
     1 RES1 1
     2 SUP2 34

@<TRIPOS>CRYSIN
  17.1300    6.8390   27.8320  90.0000  93.8500  90.0000  15 1

