# MOL2 file generated by ConQuest
# Please check atom types

@<TRIPOS>MOLECULE
PERYTN10
    21    20     1
SMALL
NO_CHARGES
****
Generated from CSD

@<TRIPOS>ATOM
      1 C1         1.1322    0.5966    0.8509 C.3       1 RES1    0.0000
      2 C2         0.0000    0.0000    0.0000 C.3       1 RES1    0.0000
      3 N1         2.6921   -0.1548    2.4897 N.pl3     1 RES1    0.0000
      4 O1         1.5083   -0.4531    1.7963 O.3       1 RES1    0.0000
      5 O2         2.9622   -0.9849    3.3172 O.2       1 RES1    0.0000
      6 O3         3.2830    0.8695    2.1708 O.2       1 RES1    0.0000
      7 C1A       -0.5966    1.1322   -0.8509 C.3       1 RES1    0.0000
      8 C1B       -1.1322   -0.5966    0.8509 C.3       1 RES1    0.0000
      9 C1C        0.5966   -1.1322   -0.8509 C.3       1 RES1    0.0000
     10 O1A        0.4531    1.5083   -1.7963 O.3       1 RES1    0.0000
     11 O1B       -1.5083    0.4531    1.7963 O.3       1 RES1    0.0000
     12 O1C       -0.4531   -1.5083   -1.7963 O.3       1 RES1    0.0000
     13 N1A        0.1548    2.6921   -2.4897 N.pl3     1 RES1    0.0000
     14 N1B       -2.6921    0.1548    2.4897 N.pl3     1 RES1    0.0000
     15 N1C       -0.1548   -2.6921   -2.4897 N.pl3     1 RES1    0.0000
     16 O2A        0.9849    2.9622   -3.3172 O.2       1 RES1    0.0000
     17 O3A       -0.8695    3.2830   -2.1708 O.2       1 RES1    0.0000
     18 O2B       -2.9622    0.9849    3.3172 O.2       1 RES1    0.0000
     19 O3B       -3.2830   -0.8695    2.1708 O.2       1 RES1    0.0000
     20 O2C       -0.9849   -2.9622   -3.3172 O.2       1 RES1    0.0000
     21 O3C        0.8695   -3.2830   -2.1708 O.2       1 RES1    0.0000
@<TRIPOS>BOND
     1    1    2 1
     2    2    7 1
     3    3    4 1
     4    4    1 1
     5    5    3 2
     6    6    3 2
     7    7   10 1
     8    8    2 1
     9    9    2 1
    10   10   13 1
    11   11    8 1
    12   12    9 1
    13   13   16 2
    14   14   11 1
    15   15   12 1
    16   17   13 2
    17   18   14 2
    18   19   14 2
    19   20   15 2
    20   21   15 2
@<TRIPOS>SUBSTRUCTURE
     1 RES1 1

@<TRIPOS>CRYSIN
   9.3800    9.3800    6.7000  90.0000  90.0000  90.0000 114 1

