# MOL2 file generated by ConQuest
# Please check atom types

@<TRIPOS>MOLECULE
PERYTN13
    21    20     1
SMALL
NO_CHARGES
****
Generated from CSD

@<TRIPOS>ATOM
      1 C1         0.0000    0.0000    0.0000 C.3       1 RES1    0.0000
      2 C2         1.1162    0.5534    0.8308 C.3       1 RES1    0.0000
      3 O1         1.5196   -0.4127    1.7152 O.3       1 RES1    0.0000
      4 N1         2.6639   -0.1407    2.4053 N.pl3     1 RES1    0.0000
      5 O2         2.9828   -0.9755    3.3098 O.2       1 RES1    0.0000
      6 O3         3.3393    0.9286    2.1775 O.2       1 RES1    0.0000
      7 C2A        0.5534   -1.1162   -0.8308 C.3       1 RES1    0.0000
      8 C2C       -1.1162   -0.5534    0.8308 C.3       1 RES1    0.0000
      9 C2E       -0.5534    1.1162   -0.8308 C.3       1 RES1    0.0000
     10 O1A       -0.4127   -1.5196   -1.7152 O.3       1 RES1    0.0000
     11 O1C       -1.5196    0.4127    1.7152 O.3       1 RES1    0.0000
     12 O1E        0.4127    1.5196   -1.7152 O.3       1 RES1    0.0000
     13 N1A       -0.1407   -2.6639   -2.4053 N.pl3     1 RES1    0.0000
     14 N1C       -2.6639    0.1407    2.4053 N.pl3     1 RES1    0.0000
     15 N1E        0.1407    2.6639   -2.4053 N.pl3     1 RES1    0.0000
     16 O2A       -0.9755   -2.9828   -3.3098 O.2       1 RES1    0.0000
     17 O2C       -2.9828    0.9755    3.3098 O.2       1 RES1    0.0000
     18 O2E        0.9755    2.9828   -3.3098 O.2       1 RES1    0.0000
     19 O3A        0.9286   -3.3393   -2.1775 O.2       1 RES1    0.0000
     20 O3C       -3.3393   -0.9286    2.1775 O.2       1 RES1    0.0000
     21 O3E       -0.9286    3.3393   -2.1775 O.2       1 RES1    0.0000
@<TRIPOS>BOND
     1    1    2 1
     2    2    3 1
     3    3    4 1
     4    4    5 2
     5    6    4 2
     6    7    1 1
     7    8    1 1
     8    9    1 1
     9   10    7 1
    10   11    8 1
    11   12    9 1
    12   13   10 1
    13   14   11 1
    14   15   12 1
    15   16   13 2
    16   17   14 2
    17   18   15 2
    18   19   13 2
    19   20   14 2
    20   21   15 2
@<TRIPOS>SUBSTRUCTURE
     1 RES1 1

@<TRIPOS>CRYSIN
   9.3800    9.3800    6.7000  90.0000  90.0000  90.0000 114 1

