# MOL2 file generated by ConQuest
# Please check atom types

@<TRIPOS>MOLECULE
PESCAT
    81    80     1
SMALL
NO_CHARGES
****
Generated from CSD

@<TRIPOS>ATOM
      1 O1         2.9713    9.3166   10.0990 O.3       1 RES1    0.0000
      2 O2         3.2070   10.7467    8.3358 O.2       1 RES1    0.0000
      3 O3        -1.1970    5.9931    6.5123 O.2       1 RES1    0.0000
      4 O4        -0.6927    7.1871    4.8009 O.2       1 RES1    0.0000
      5 O5         0.5023   10.9549    4.3458 O.2       1 RES1    0.0000
      6 O6         6.8717   13.0832    5.1650 O.2       1 RES1    0.0000
      7 O7         6.5888   11.3139    3.9466 O.2       1 RES1    0.0000
      8 O8         2.1375   11.3455    1.3291 O.2       1 RES1    0.0000
      9 O9         3.0605   13.2925    1.9061 O.3       1 RES1    0.0000
     10 N1         2.8822    8.4956    8.0585 N.am      1 RES1    0.0000
     11 H1         2.7728    7.7519    8.4758 H         1 RES1    0.0000
     12 N2        -0.4632    6.7685    5.8989 N.pl3     1 RES1    0.0000
     13 N3         1.9984   11.6285    5.9017 N.am      1 RES1    0.0000
     14 H2         2.3542   11.4566    6.6664 H         1 RES1    0.0000
     15 N4         6.2235   12.1219    4.8149 N.pl3     1 RES1    0.0000
     16 C1         3.1813   10.3234   11.1354 C.3       1 RES1    0.0000
     17 C2         3.0078    9.5458   12.4434 C.3       1 RES1    0.0000
     18 H3         2.0984    9.2499   12.5205 H         1 RES1    0.0000
     19 H4         3.2238   10.1141   13.1857 H         1 RES1    0.0000
     20 H5         3.5918    8.7845   12.4420 H         1 RES1    0.0000
     21 C3         2.1713   11.4484   11.0345 C.3       1 RES1    0.0000
     22 H6         2.4157   12.0354   10.3147 H         1 RES1    0.0000
     23 H7         2.1558   11.9407   11.8580 H         1 RES1    0.0000
     24 H8         1.2997   11.0823   10.8651 H         1 RES1    0.0000
     25 C4         4.5998   10.8765   11.0415 C.3       1 RES1    0.0000
     26 H9         5.2277   10.1492   11.0387 H         1 RES1    0.0000
     27 H10        4.7740   11.4449   11.7950 H         1 RES1    0.0000
     28 H11        4.6930   11.3817   10.2307 H         1 RES1    0.0000
     29 C5         3.0280    9.6276    8.8049 C.2       1 RES1    0.0000
     30 C6         2.8977    8.4594    6.6160 C.3       1 RES1    0.0000
     31 H12        3.2704    9.3131    6.3121 H         1 RES1    0.0000
     32 C7         3.8720    7.3520    6.1552 C.3       1 RES1    0.0000
     33 H13        3.6721    6.5381    6.6622 H         1 RES1    0.0000
     34 C8         5.3033    7.7776    6.4787 C.3       1 RES1    0.0000
     35 H14        5.9055    7.0620    6.2658 H         1 RES1    0.0000
     36 H15        5.3701    7.9870    7.4128 H         1 RES1    0.0000
     37 H16        5.5308    8.5529    5.9605 H         1 RES1    0.0000
     38 C9         3.7552    7.0257    4.6525 C.3       1 RES1    0.0000
     39 H17        3.7835    7.8396    4.1455 H         1 RES1    0.0000
     40 H18        2.9241    6.5732    4.4872 H         1 RES1    0.0000
     41 H19        4.4843    6.4597    4.3906 H         1 RES1    0.0000
     42 C10        1.4732    8.3775    6.0740 C.3       1 RES1    0.0000
     43 H20        1.5515    8.2746    5.1034 H         1 RES1    0.0000
     44 C11        0.7906    7.1485    6.5725 C.3       1 RES1    0.0000
     45 H21        1.4117    6.4071    6.4969 H         1 RES1    0.0000
     46 H22        0.6009    7.2713    7.5165 H         1 RES1    0.0000
     47 C12        0.6508    9.6498    6.3079 C.3       1 RES1    0.0000
     48 H23       -0.2829    9.4475    6.1454 H         1 RES1    0.0000
     49 H24        0.7359    9.9048    7.2406 H         1 RES1    0.0000
     50 C13        1.0323   10.8087    5.4690 C.2       1 RES1    0.0000
     51 C14        2.4879   12.7826    5.1804 C.3       1 RES1    0.0000
     52 H25        1.8202   12.9686    4.4872 H         1 RES1    0.0000
     53 C15        2.5264   14.0000    6.0460 C.3       1 RES1    0.0000
     54 H26        3.4325   14.3485    6.0670 H         1 RES1    0.0000
     55 H27        2.2800   13.7556    6.9521 H         1 RES1    0.0000
     56 C16        1.5110   15.1717    5.5068 C.3       1 RES1    0.0000
     57 H28        0.7076   14.9051    5.0110 H         1 RES1    0.0000
     58 C17        2.7006   15.7868    4.7197 C.3       1 RES1    0.0000
     59 H29        2.5143   16.7013    4.5096 H         1 RES1    0.0000
     60 H30        2.8363   15.2922    3.9018 H         1 RES1    0.0000
     61 H31        3.5013   15.7354    5.2519 H         1 RES1    0.0000
     62 C18        1.3503   16.0207    6.7854 C.3       1 RES1    0.0000
     63 H32        1.1849   15.4395    7.5347 H         1 RES1    0.0000
     64 H33        0.6016   16.6183    6.6790 H         1 RES1    0.0000
     65 H34        2.1456   16.5259    6.9395 H         1 RES1    0.0000
     66 C19        3.7943   12.4236    4.4256 C.3       1 RES1    0.0000
     67 H35        4.1252   13.2586    4.0320 H         1 RES1    0.0000
     68 C20        4.8935   11.9465    5.4395 C.3       1 RES1    0.0000
     69 H36        4.8395   12.4681    6.2546 H         1 RES1    0.0000
     70 H37        4.7531   11.0134    5.6636 H         1 RES1    0.0000
     71 C21        3.5911   11.4519    3.2688 C.3       1 RES1    0.0000
     72 H38        4.4614   11.1724    2.9453 H         1 RES1    0.0000
     73 H39        3.1394   10.6625    3.6063 H         1 RES1    0.0000
     74 C22        2.8147   11.9828    2.1246 C.2       1 RES1    0.0000
     75 C23        2.4731   13.9193    0.7969 C.3       1 RES1    0.0000
     76 H40        1.5069   13.9064    0.8907 H         1 RES1    0.0000
     77 H41        2.7040   13.4328   -0.0098 H         1 RES1    0.0000
     78 C24        2.9356   15.3074    0.6820 C.3       1 RES1    0.0000
     79 H42        2.6581   15.8020    1.4565 H         1 RES1    0.0000
     80 H43        2.5568   15.7061   -0.1050 H         1 RES1    0.0000
     81 H44        3.8936   15.3202    0.6190 H         1 RES1    0.0000
@<TRIPOS>BOND
     1    1   16 1
     2    2   29 2
     3    3   12 2
     4    4   12 2
     5    5   50 2
     6    6   15 2
     7    7   15 2
     8    8   74 2
     9    9   74 1
    10   10   11 1
    11   12   44 1
    12   13   14 1
    13   15   68 1
    14   16   17 1
    15   17   18 1
    16   19   17 1
    17   20   17 1
    18   21   16 1
    19   22   21 1
    20   23   21 1
    21   24   21 1
    22   25   16 1
    23   26   25 1
    24   27   25 1
    25   28   25 1
    26   29    1 1
    27   30   10 1
    28   31   30 1
    29   32   30 1
    30   33   32 1
    31   34   32 1
    32   35   34 1
    33   36   34 1
    34   37   34 1
    35   38   32 1
    36   39   38 1
    37   40   38 1
    38   41   38 1
    39   42   30 1
    40   43   42 1
    41   44   42 1
    42   45   44 1
    43   46   44 1
    44   47   42 1
    45   48   47 1
    46   49   47 1
    47   50   13 1
    48   51   13 1
    49   52   51 1
    50   53   51 1
    51   54   53 1
    52   55   53 1
    53   56   53 1
    54   57   56 1
    55   58   56 1
    56   59   58 1
    57   60   58 1
    58   61   58 1
    59   62   56 1
    60   63   62 1
    61   64   62 1
    62   65   62 1
    63   66   51 1
    64   67   66 1
    65   68   66 1
    66   69   68 1
    67   70   68 1
    68   71   66 1
    69   72   71 1
    70   73   71 1
    71   74   71 1
    72   75    9 1
    73   76   75 1
    74   77   75 1
    75   78   75 1
    76   79   78 1
    77   80   78 1
    78   81   78 1
    79   10   29 1
    80   47   50 1
@<TRIPOS>SUBSTRUCTURE
     1 RES1 1

@<TRIPOS>CRYSIN
  13.5030   13.5030   14.0050  90.0000  90.0000 120.0000 145 1

