# MOL2 file generated by ConQuest
# Please check atom types

@<TRIPOS>MOLECULE
PESCEX
    48    47     1
SMALL
NO_CHARGES
****
Generated from CSD

@<TRIPOS>ATOM
      1 O1         0.5931    3.2669    7.9454 O.3       1 RES1    0.0000
      2 O2         1.1010    1.1064    8.4628 O.2       1 RES1    0.0000
      3 O3         0.8809    6.0536    9.8798 O.3       1 RES1    0.0000
      4 H1         0.8677    6.7378    9.4279 H         1 RES1    0.0000
      5 O4        -1.2868    6.5032   10.1085 O.2       1 RES1    0.0000
      6 O5        -3.2161    3.7876   13.3481 O.2       1 RES1    0.0000
      7 O6        -1.3164    3.1178   13.9969 O.2       1 RES1    0.0000
      8 N1        -0.7833    2.0793    9.2374 N.am      1 RES1    0.0000
      9 H2        -0.9540    1.3524    9.6647 H         1 RES1    0.0000
     10 N2        -2.1817    3.2127   13.1638 N.pl3     1 RES1    0.0000
     11 C1         1.7278    3.4246    6.9986 C.3       1 RES1    0.0000
     12 C2         1.5572    4.8690    6.5445 C.3       1 RES1    0.0000
     13 H3         0.6776    4.9881    6.1798 H         1 RES1    0.0000
     14 H4         2.2116    5.0730    5.8733 H         1 RES1    0.0000
     15 H5         1.6740    5.4567    7.2954 H         1 RES1    0.0000
     16 C3         1.5543    2.4566    5.8515 C.3       1 RES1    0.0000
     17 H6         1.6716    1.5586    6.1697 H         1 RES1    0.0000
     18 H7         2.2088    2.6435    5.1741 H         1 RES1    0.0000
     19 H8         0.6743    2.5536    5.4816 H         1 RES1    0.0000
     20 C4         3.0418    3.2434    7.7275 C.3       1 RES1    0.0000
     21 H9         3.0399    3.7726    8.5277 H         1 RES1    0.0000
     22 H10        3.7635    3.5258    7.1596 H         1 RES1    0.0000
     23 H11        3.1569    2.3182    7.9553 H         1 RES1    0.0000
     24 C5         0.3562    2.0950    8.5295 C.2       1 RES1    0.0000
     25 C6        -1.7737    3.1528    9.3700 C.3       1 RES1    0.0000
     26 H12       -1.5199    3.8682    8.7500 H         1 RES1    0.0000
     27 C7        -3.1452    2.6093    8.9192 C.3       1 RES1    0.0000
     28 H13       -3.3252    1.8061    9.4515 H         1 RES1    0.0000
     29 C8        -2.8535    3.2862    6.4480 C.3       1 RES1    0.0000
     30 H14       -3.4970    3.9881    6.5658 H         1 RES1    0.0000
     31 H15       -2.9236    2.9338    5.5580 H         1 RES1    0.0000
     32 H16       -1.9697    3.6364    6.5849 H         1 RES1    0.0000
     33 C9        -3.1205    2.1798    7.4532 C.3       1 RES1    0.0000
     34 H17       -2.4395    1.4979    7.3459 H         1 RES1    0.0000
     35 H18       -3.9748    1.7726    7.2393 H         1 RES1    0.0000
     36 C10       -4.2724    3.6022    9.2113 C.3       1 RES1    0.0000
     37 H19       -4.0214    4.4731    8.8948 H         1 RES1    0.0000
     38 H20       -4.4296    3.6385   10.1574 H         1 RES1    0.0000
     39 H21       -5.0724    3.3176    8.7634 H         1 RES1    0.0000
     40 C11       -1.7369    3.7348   10.7923 C.3       1 RES1    0.0000
     41 H22       -2.4712    4.3789   10.8802 H         1 RES1    0.0000
     42 C12       -1.9481    2.6207   11.8245 C.3       1 RES1    0.0000
     43 H23       -2.7114    2.0793   11.5694 H         1 RES1    0.0000
     44 H24       -1.1661    2.0479   11.8522 H         1 RES1    0.0000
     45 C13       -0.4204    4.4710   11.0476 C.3       1 RES1    0.0000
     46 H25       -0.3340    4.6464   11.9981 H         1 RES1    0.0000
     47 H26        0.3181    3.9018   10.7815 H         1 RES1    0.0000
     48 C14       -0.3350    5.7784   10.2926 C.2       1 RES1    0.0000
@<TRIPOS>BOND
     1    1   11 1
     2    2   24 2
     3    3    4 1
     4    5   48 2
     5    6   10 2
     6    7   10 2
     7    8    9 1
     8   10   42 1
     9   11   12 1
    10   12   13 1
    11   14   12 1
    12   15   12 1
    13   16   11 1
    14   17   16 1
    15   18   16 1
    16   19   16 1
    17   20   11 1
    18   21   20 1
    19   22   20 1
    20   23   20 1
    21   24    1 1
    22   25    8 1
    23   26   25 1
    24   27   25 1
    25   28   27 1
    26   29   30 1
    27   31   29 1
    28   32   29 1
    29   33   27 1
    30   34   33 1
    31   35   33 1
    32   36   27 1
    33   37   36 1
    34   38   36 1
    35   39   36 1
    36   40   25 1
    37   41   40 1
    38   42   40 1
    39   43   42 1
    40   44   42 1
    41   45   40 1
    42   46   45 1
    43   47   45 1
    44   48    3 1
    45    8   24 1
    46   29   33 1
    47   45   48 1
@<TRIPOS>SUBSTRUCTURE
     1 RES1 1

@<TRIPOS>CRYSIN
  11.2260    7.1330   12.0180  90.0000 110.9480  90.0000   4 1

