# MOL2 file generated by ConQuest
# Please check atom types

@<TRIPOS>MOLECULE
PESHOK
    42    46     1
SMALL
NO_CHARGES
****
Generated from CSD

@<TRIPOS>ATOM
      1 O1         2.6922    0.7504    9.4699 O.3       1 RES1    0.0000
      2 O2         3.0169    0.2017   12.4934 O.3       1 RES1    0.0000
      3 O3         1.1972    1.4825   12.2310 O.3       1 RES1    0.0000
      4 O4         1.0550    3.1070    8.4133 O.3       1 RES1    0.0000
      5 O5         1.5741    3.6603    5.6847 O.3       1 RES1    0.0000
      6 O6         1.7701    5.5126    4.4517 O.2       1 RES1    0.0000
      7 O7         2.7712   -1.6001    9.4467 O.3       1 RES1    0.0000
      8 O8         0.3618    5.1397   -0.2438 O.2       1 RES1    0.0000
      9 O9        -1.0264    3.6190   -0.8221 O.2       1 RES1    0.0000
     10 O10       -2.0275    0.0229    2.2456 O.2       1 RES1    0.0000
     11 O11       -0.8918   -0.1146    4.0964 O.2       1 RES1    0.0000
     12 N1        -0.2860    4.1432   -0.0186 N.pl3     1 RES1    0.0000
     13 N2        -1.2283    0.4493    3.0537 N.pl3     1 RES1    0.0000
     14 C1         3.0792   -0.4035   10.1619 C.3       1 RES1    0.0000
     15 C2         2.3136   -0.4371   11.4508 C.3       1 RES1    0.0000
     16 C3         1.1021    0.5089   11.1953 C.3       1 RES1    0.0000
     17 C4         1.3293    1.0897    9.8113 C.3       1 RES1    0.0000
     18 C5         1.2283    2.6348    9.7463 C.3       1 RES1    0.0000
     19 C6         2.4339    3.3898   10.3013 C.3       1 RES1    0.0000
     20 C7         3.2222    3.7780    9.0403 C.3       1 RES1    0.0000
     21 C8         2.3809    3.3103    7.8676 C.3       1 RES1    0.0000
     22 C9         2.2883    4.3098    6.7831 C.3       1 RES1    0.0000
     23 C10        1.3966    4.3908    4.5678 C.2       1 RES1    0.0000
     24 C11        0.6815    3.6251    3.5483 C.ar      1 RES1    0.0000
     25 C12        0.5468    4.1921    2.2804 C.ar      1 RES1    0.0000
     26 C13       -0.1683    3.5350    1.3190 C.ar      1 RES1    0.0000
     27 C14       -0.7403    2.3215    1.5489 C.ar      1 RES1    0.0000
     28 C15       -0.6057    1.7851    2.7866 C.ar      1 RES1    0.0000
     29 C16        0.1010    2.3811    3.7782 C.ar      1 RES1    0.0000
     30 C17        2.0191    4.5971   11.1001 C.3       1 RES1    0.0000
     31 C18        0.3702    0.4233    8.7872 C.3       1 RES1    0.0000
     32 C19       -1.0853    0.7794    8.9660 C.3       1 RES1    0.0000
     33 C20        2.0612    0.9674   13.2342 C.3       1 RES1    0.0000
     34 C21        2.7511    2.1152   13.8914 C.3       1 RES1    0.0000
     35 C22        1.3040    0.0932   14.2026 C.3       1 RES1    0.0000
     36 C23        3.4662   -1.6521    8.1788 C.3       1 RES1    0.0000
     37 C24        3.0876   -2.8686    7.4009 C.ar      1 RES1    0.0000
     38 C25        3.6933   -4.0393    7.6981 C.ar      1 RES1    0.0000
     39 C26        3.4662   -5.1733    6.9178 C.ar      1 RES1    0.0000
     40 C27        2.6249   -5.0831    5.8612 C.ar      1 RES1    0.0000
     41 C28        2.0023   -3.9124    5.5593 C.ar      1 RES1    0.0000
     42 C29        2.2463   -2.8121    6.3117 C.ar      1 RES1    0.0000
@<TRIPOS>BOND
     1    1   14 1
     2    2   15 1
     3    3   16 1
     4    4   18 1
     5    5   22 1
     6    6   23 2
     7    7   14 1
     8    8   12 2
     9    9   12 2
    10   10   13 2
    11   11   13 2
    12   12   26 1
    13   13   28 1
    14   14   15 1
    15   15   16 1
    16   16   17 1
    17   17    1 1
    18   18   17 1
    19   19   18 1
    20   20   19 1
    21   21    4 1
    22   22   21 1
    23   23    5 1
    24   24   23 1
    25   25   24 ar
    26   26   25 ar
    27   27   26 ar
    28   28   27 ar
    29   29   24 ar
    30   30   19 1
    31   31   17 1
    32   32   31 1
    33   33    2 1
    34   34   33 1
    35   35   33 1
    36   36    7 1
    37   37   36 1
    38   38   37 ar
    39   39   38 ar
    40   40   39 ar
    41   41   40 ar
    42   42   37 ar
    43    3   33 1
    44   20   21 1
    45   28   29 ar
    46   41   42 ar
@<TRIPOS>SUBSTRUCTURE
     1 RES1 1

@<TRIPOS>CRYSIN
   8.4130   15.2830   23.2220  90.0000  90.0000  90.0000  19 1

