# MOL2 file generated by ConQuest
# Please check atom types

@<TRIPOS>MOLECULE
PESJIH
    22    22     1
SMALL
NO_CHARGES
****
Generated from CSD

@<TRIPOS>ATOM
      1 C1         2.3628   15.3513    7.4721 C.ar      1 RES1    0.0000
      2 C2         2.6283   13.9978    7.5097 C.ar      1 RES1    0.0000
      3 H1         2.2253   13.4719    8.1628 H         1 RES1    0.0000
      4 C3         3.4577   13.4237    6.6222 C.ar      1 RES1    0.0000
      5 H2         3.6340   12.5118    6.6643 H         1 RES1    0.0000
      6 C4         4.0413   14.1989    5.6539 C.ar      1 RES1    0.0000
      7 C5         3.7872   15.5113    5.5879 C.ar      1 RES1    0.0000
      8 H3         4.1872   16.0216    4.9200 H         1 RES1    0.0000
      9 C6         2.9481   16.1158    6.4868 C.ar      1 RES1    0.0000
     10 H4         2.7763   17.0279    6.4333 H         1 RES1    0.0000
     11 C7         0.3960   17.5734    9.3052 C.2       1 RES1    0.0000
     12 H5        -0.0167   16.9230    9.8252 H         1 RES1    0.0000
     13 C8         0.0530   18.9618    9.4702 C.3       1 RES1    0.0000
     14 H6         0.5235   19.4869    8.8193 H         1 RES1    0.0000
     15 H7         0.2992   19.2486   10.3531 H         1 RES1    0.0000
     16 H8        -0.8926   19.0744    9.3496 H         1 RES1    0.0000
     17 N1         1.5285   15.8900    8.3995 N.pl3     1 RES1    0.0000
     18 H9         1.1479   15.3797    8.9775 H         1 RES1    0.0000
     19 N2         1.2894   17.2370    8.4200 N.2       1 RES1    0.0000
     20 N3         4.9228   13.5992    4.7197 N.pl3     1 RES1    0.0000
     21 O1         5.1289   12.3781    4.8069 O.2       1 RES1    0.0000
     22 O2         5.4503   14.2756    3.8699 O.2       1 RES1    0.0000
@<TRIPOS>BOND
     1    1    2 ar
     2    2    3 1
     3    4    2 ar
     4    5    4 1
     5    6    4 ar
     6    7    6 ar
     7    8    7 1
     8    9    1 ar
     9   10    9 1
    10   11   12 1
    11   13   11 1
    12   14   13 1
    13   15   13 1
    14   16   13 1
    15   17    1 1
    16   18   17 1
    17   19   11 2
    18   20    6 1
    19   21   20 2
    20   22   20 2
    21    7    9 ar
    22   17   19 1
@<TRIPOS>SUBSTRUCTURE
     1 RES1 1

@<TRIPOS>CRYSIN
   4.3720   17.7800   11.4650  90.0000  97.0500  90.0000  14 1

