# MOL2 file generated by ConQuest
# Please check atom types

@<TRIPOS>MOLECULE
PESNAF
    54    58     2
SMALL
NO_CHARGES
****
Generated from CSD

@<TRIPOS>ATOM
      1 C1         5.2355    4.2168    9.7555 C.2       1 RES1    0.0000
      2 H1         4.7629    4.4524   10.5221 H         1 RES1    0.0000
      3 C2         7.9875    4.0775    7.6035 C.ar      1 RES1    0.0000
      4 H2         8.7242    4.5289    7.9458 H         1 RES1    0.0000
      5 C3         8.0478    3.4425    6.3909 C.ar      1 RES1    0.0000
      6 H3         8.8294    3.4847    5.8882 H         1 RES1    0.0000
      7 C4         6.9500    2.7319    5.8998 C.ar      1 RES1    0.0000
      8 H4         7.0292    2.2926    5.0849 H         1 RES1    0.0000
      9 C5         5.7574    2.6569    6.5767 C.ar      1 RES1    0.0000
     10 H5         5.0348    2.1769    6.2428 H         1 RES1    0.0000
     11 C6         5.6867    3.3368    7.7878 C.ar      1 RES1    0.0000
     12 C7         6.7817    4.0268    8.3101 C.ar      1 RES1    0.0000
     13 C8         3.3240    3.0540    8.6943 C.ar      1 RES1    0.0000
     14 C9         2.6302    3.0476    7.4979 C.ar      1 RES1    0.0000
     15 H6         3.0628    3.2833    6.7084 H         1 RES1    0.0000
     16 C10        1.3007    2.6926    7.4745 C.ar      1 RES1    0.0000
     17 H7         0.8303    2.6755    6.6722 H         1 RES1    0.0000
     18 C11        0.6775    2.3648    8.6521 C.ar      1 RES1    0.0000
     19 C12        1.3541    2.3734    9.8500 C.ar      1 RES1    0.0000
     20 H8         0.9154    2.1555   10.6403 H         1 RES1    0.0000
     21 C13        2.6830    2.7083    9.8652 C.ar      1 RES1    0.0000
     22 H9         3.1539    2.7019   10.6668 H         1 RES1    0.0000
     23 N1         4.6830    3.4690    8.7457 N.pl3     1 RES1    0.0000
     24 N2         6.4669    4.5674    9.5579 N.2       1 RES1    0.0000
     25 N3        -0.7391    2.0070    8.6405 N.pl3     1 RES1    0.0000
     26 O1        -1.3354    2.0391    7.5772 O.2       1 RES1    0.0000
     27 O2        -1.2744    1.6877    9.6804 O.2       1 RES1    0.0000
     28 C14       11.5326    2.1791    7.8042 C.2       2 RES2    0.0000
     29 H10       11.0139    2.1862    7.0316 H         2 RES2    0.0000
     30 C15       14.4105    2.5869    9.7364 C.ar      2 RES2    0.0000
     31 H11       15.1374    2.8719    9.2315 H         2 RES2    0.0000
     32 C16       14.5284    2.3784   11.0793 C.ar      2 RES2    0.0000
     33 H12       15.3476    2.5348   11.4894 H         2 RES2    0.0000
     34 C17       13.4512    1.9363   11.8555 C.ar      2 RES2    0.0000
     35 H13       13.5701    1.7905   12.7654 H         2 RES2    0.0000
     36 C18       12.2149    1.7141   11.2826 C.ar      2 RES2    0.0000
     37 H14       11.4917    1.4177   11.7885 H         2 RES2    0.0000
     38 C19       12.0977    1.9505    9.9267 C.ar      2 RES2    0.0000
     39 C20       13.1750    2.3619    9.1478 C.ar      2 RES2    0.0000
     40 C21        9.6773    1.5070    9.3157 C.ar      2 RES2    0.0000
     41 C22        9.0604    2.0091   10.4499 C.ar      2 RES2    0.0000
     42 H15        9.5333    2.5619   11.0310 H         2 RES2    0.0000
     43 C23        7.7486    1.6891   10.7179 C.ar      2 RES2    0.0000
     44 H16        7.3317    2.0012   11.4870 H         2 RES2    0.0000
     45 C24        7.0666    0.8935    9.8182 C.ar      2 RES2    0.0000
     46 C25        7.6501    0.4307    8.6673 C.ar      2 RES2    0.0000
     47 H17        7.1590   -0.0721    8.0592 H         2 RES2    0.0000
     48 C26        8.9706    0.7192    8.4261 C.ar      2 RES2    0.0000
     49 H18        9.3885    0.3857    7.6660 H         2 RES2    0.0000
     50 N4        11.0351    1.8320    9.0337 N.pl3     2 RES2    0.0000
     51 N5        12.7920    2.4969    7.8134 N.2       2 RES2    0.0000
     52 N6         5.6759    0.5364   10.0884 N.pl3     2 RES2    0.0000
     53 O3         5.2804    0.5714   11.2416 O.2       2 RES2    0.0000
     54 O4         4.9723    0.2200    9.1543 O.2       2 RES2    0.0000
@<TRIPOS>BOND
     1    1    2 1
     2    3    4 1
     3    5    3 ar
     4    6    5 1
     5    7    5 ar
     6    8    7 1
     7    9    7 ar
     8   10    9 1
     9   11    9 ar
    10   12    3 ar
    11   13   14 ar
    12   14   15 1
    13   16   14 ar
    14   17   16 1
    15   18   16 ar
    16   19   18 ar
    17   20   19 1
    18   21   13 ar
    19   22   21 1
    20   23    1 1
    21   24    1 2
    22   25   18 1
    23   26   25 2
    24   27   25 2
    25   28   29 1
    26   30   31 1
    27   32   30 ar
    28   33   32 1
    29   34   32 ar
    30   35   34 1
    31   36   34 ar
    32   37   36 1
    33   38   36 ar
    34   39   30 ar
    35   40   41 ar
    36   41   42 1
    37   43   41 ar
    38   44   43 1
    39   45   43 ar
    40   46   45 ar
    41   47   46 1
    42   48   40 ar
    43   49   48 1
    44   50   28 1
    45   51   28 2
    46   52   45 1
    47   53   52 2
    48   54   52 2
    49   11   12 ar
    50   11   23 1
    51   12   24 1
    52   13   23 1
    53   19   21 ar
    54   38   39 ar
    55   38   50 1
    56   39   51 1
    57   40   50 1
    58   46   48 ar
@<TRIPOS>SUBSTRUCTURE
     1 RES1 1
     2 RES2 28

@<TRIPOS>CRYSIN
  25.0740    7.1422   24.2830  90.0000  96.5990  90.0000  15 1

