# MOL2 file generated by ConQuest
# Please check atom types

@<TRIPOS>MOLECULE
PESNEJ
   148   160     4
SMALL
NO_CHARGES
****
Generated from CSD

@<TRIPOS>ATOM
      1 C1         0.8181   16.0094    7.0199 C.2       1 RES1    0.0000
      2 C2        -2.5890   15.3523    7.5754 C.ar      1 RES1    0.0000
      3 H1        -3.1477   16.0601    7.2754 H         1 RES1    0.0000
      4 C3        -3.1262   14.2211    8.1525 C.ar      1 RES1    0.0000
      5 H2        -4.0683   14.1517    8.2504 H         1 RES1    0.0000
      6 C4        -2.3145   13.1735    8.5986 C.ar      1 RES1    0.0000
      7 H3        -2.7143   12.4198    9.0164 H         1 RES1    0.0000
      8 C5        -0.9416   13.2143    8.4440 C.ar      1 RES1    0.0000
      9 H4        -0.3868   12.4947    8.7224 H         1 RES1    0.0000
     10 C6        -0.4134   14.3500    7.8644 C.ar      1 RES1    0.0000
     11 C7        -1.2105   15.4270    7.4468 C.ar      1 RES1    0.0000
     12 C8         2.0042   13.8199    7.5340 C.ar      1 RES1    0.0000
     13 C9         2.3361   13.1280    8.6916 C.ar      1 RES1    0.0000
     14 H5         1.8271   13.2460    9.4845 H         1 RES1    0.0000
     15 C10        3.4143   12.2687    8.6783 C.ar      1 RES1    0.0000
     16 H6         3.6544   11.7828    9.4575 H         1 RES1    0.0000
     17 C11        4.1394   12.1270    7.5141 C.ar      1 RES1    0.0000
     18 C12        3.7997   12.7836    6.3426 C.ar      1 RES1    0.0000
     19 H7         4.2999   12.6504    5.5460 H         1 RES1    0.0000
     20 C13        2.7127   13.6374    6.3620 C.ar      1 RES1    0.0000
     21 H8         2.4543   14.0970    5.5712 H         1 RES1    0.0000
     22 C14        1.9886   16.8210    6.6560 C.ar      1 RES1    0.0000
     23 C15        3.2204   16.7092    7.2971 C.ar      1 RES1    0.0000
     24 H9         3.3366   16.0638    7.9834 H         1 RES1    0.0000
     25 C16        4.2779   17.5289    6.9444 C.ar      1 RES1    0.0000
     26 H10        5.1134   17.4432    7.3895 H         1 RES1    0.0000
     27 C17        4.1195   18.4743    5.9447 C.ar      1 RES1    0.0000
     28 H11        4.8500   19.0274    5.6950 H         1 RES1    0.0000
     29 C18        2.9013   18.6117    5.3122 C.ar      1 RES1    0.0000
     30 H12        2.7902   19.2701    4.6349 H         1 RES1    0.0000
     31 C19        1.8434   17.7966    5.6586 C.ar      1 RES1    0.0000
     32 H13        1.0085   17.8971    5.2172 H         1 RES1    0.0000
     33 N1         0.8941   14.7271    7.5578 N.pl3     1 RES1    0.0000
     34 N2        -0.4136   16.4521    6.9450 N.2       1 RES1    0.0000
     35 N3         5.3391   11.2863    7.5337 N.pl3     1 RES1    0.0000
     36 O1         5.6804   10.7846    8.6055 O.2       1 RES1    0.0000
     37 O2         5.9655   11.1370    6.4918 O.2       1 RES1    0.0000
     38 C20        2.3332    8.4410    6.9963 C.2       2 RES2    0.0000
     39 C21        5.7417    7.7943    7.5578 C.ar      2 RES2    0.0000
     40 H14        6.2961    8.5053    7.2580 H         2 RES2    0.0000
     41 C22        6.2863    6.6631    8.1397 C.ar      2 RES2    0.0000
     42 H15        7.2286    6.5952    8.2368 H         2 RES2    0.0000
     43 C23        5.4714    5.6177    8.5873 C.ar      2 RES2    0.0000
     44 H16        5.8736    4.8648    9.0048 H         2 RES2    0.0000
     45 C24        4.1039    5.6512    8.4403 C.ar      2 RES2    0.0000
     46 H17        3.5514    4.9344    8.7320 H         2 RES2    0.0000
     47 C25        3.5730    6.7870    7.8439 C.ar      2 RES2    0.0000
     48 C26        4.3633    7.8592    7.4269 C.ar      2 RES2    0.0000
     49 C27        1.1530    6.2619    7.5248 C.ar      2 RES2    0.0000
     50 C28        0.8200    5.5649    8.6777 C.ar      2 RES2    0.0000
     51 H18        1.3328    5.6820    9.4691 H         2 RES2    0.0000
     52 C29       -0.2572    4.7022    8.6757 C.ar      2 RES2    0.0000
     53 H19       -0.4959    4.2198    9.4575 H         2 RES2    0.0000
     54 C30       -0.9794    4.5586    7.5050 C.ar      2 RES2    0.0000
     55 C31       -0.6424    5.2128    6.3333 C.ar      2 RES2    0.0000
     56 H20       -1.1498    5.0831    5.5402 H         2 RES2    0.0000
     57 C32        0.4475    6.0576    6.3430 C.ar      2 RES2    0.0000
     58 H21        0.7166    6.4986    5.5460 H         2 RES2    0.0000
     59 C33        1.1566    9.2512    6.6295 C.ar      2 RES2    0.0000
     60 C34       -0.0645    9.1354    7.2882 C.ar      2 RES2    0.0000
     61 H22       -0.1717    8.4948    7.9815 H         2 RES2    0.0000
     62 C35       -1.1240    9.9541    6.9324 C.ar      2 RES2    0.0000
     63 H23       -1.9582    9.8655    7.3779 H         2 RES2    0.0000
     64 C36       -0.9781   10.9047    5.9296 C.ar      2 RES2    0.0000
     65 H24       -1.7103   11.4572    5.6834 H         2 RES2    0.0000
     66 C37        0.2374   11.0414    5.2951 C.ar      2 RES2    0.0000
     67 H25        0.3472   11.6987    4.6175 H         2 RES2    0.0000
     68 C38        1.2981   10.2255    5.6397 C.ar      2 RES2    0.0000
     69 H26        2.1330   10.3288    5.1978 H         2 RES2    0.0000
     70 N4         2.2609    7.1602    7.5397 N.pl3     2 RES2    0.0000
     71 N5         3.5646    8.8839    6.9143 N.2       2 RES2    0.0000
     72 N6        -2.1786    3.7091    7.5292 N.pl3     2 RES2    0.0000
     73 O3        -2.7978    3.5504    6.4836 O.2       2 RES2    0.0000
     74 O4        -2.5216    3.2245    8.6044 O.2       2 RES2    0.0000
     75 C39        5.9396    4.7818    2.5788 C.2       3 RES3    0.0000
     76 C40        2.6420    3.9106    1.7002 C.ar      3 RES3    0.0000
     77 H27        2.0158    4.5855    1.9306 H         3 RES3    0.0000
     78 C41        2.2406    2.7411    1.0891 C.ar      3 RES3    0.0000
     79 H28        1.3205    2.6156    0.8879 H         3 RES3    0.0000
     80 C42        3.1528    1.7394    0.7589 C.ar      3 RES3    0.0000
     81 H29        2.8372    0.9472    0.3385 H         3 RES3    0.0000
     82 C43        4.4998    1.8661    1.0245 C.ar      3 RES3    0.0000
     83 H30        5.1176    1.1784    0.8067 H         3 RES3    0.0000
     84 C44        4.9062    3.0487    1.6263 C.ar      3 RES3    0.0000
     85 C45        4.0064    4.0650    1.9665 C.ar      3 RES3    0.0000
     86 C46        7.2987    2.6738    2.2178 C.ar      3 RES3    0.0000
     87 C47        7.8337    1.9876    1.1369 C.ar      3 RES3    0.0000
     88 H31        7.4594    2.0926    0.2708 H         3 RES3    0.0000
     89 C48        8.9165    1.1505    1.3338 C.ar      3 RES3    0.0000
     90 H32        9.3006    0.6778    0.6055 H         3 RES3    0.0000
     91 C49        9.4283    1.0141    2.6111 C.ar      3 RES3    0.0000
     92 C50        8.9071    1.6817    3.6973 C.ar      3 RES3    0.0000
     93 H33        9.2772    1.5665    4.5653 H         3 RES3    0.0000
     94 C51        7.8255    2.5287    3.4891 C.ar      3 RES3    0.0000
     95 H34        7.4493    3.0073    4.2190 H         3 RES3    0.0000
     96 C52        7.0252    5.6643    3.0398 C.ar      3 RES3    0.0000
     97 C53        8.2983    5.6398    2.4591 C.ar      3 RES3    0.0000
     98 H35        8.5041    4.9929    1.7932 H         3 RES3    0.0000
     99 C54        9.2583    6.5534    2.8504 C.ar      3 RES3    0.0000
    100 H36       10.1224    6.5318    2.4567 H         3 RES3    0.0000
    101 C55        8.9633    7.5013    3.8161 C.ar      3 RES3    0.0000
    102 H37        9.6202    8.1390    4.0720 H         3 RES3    0.0000
    103 C56        7.7149    7.5198    4.4066 C.ar      3 RES3    0.0000
    104 H38        7.5180    8.1646    5.0760 H         3 RES3    0.0000
    105 C57        6.7536    6.6073    4.0279 C.ar      3 RES3    0.0000
    106 H39        5.8996    6.6216    4.4434 H         3 RES3    0.0000
    107 N7         6.1552    3.5160    2.0296 N.pl3     3 RES3    0.0000
    108 N8         4.6814    5.1378    2.5413 N.2       3 RES3    0.0000
    109 N9        10.5843    0.1311    2.8142 N.pl3     3 RES3    0.0000
    110 O5        11.1596   -0.3041    1.8211 O.2       3 RES3    0.0000
    111 O6        10.9217   -0.1211    3.9646 O.2       3 RES3    0.0000
    112 C58        0.8085    2.1327   16.7398 C.2       4 RES4    0.0000
    113 C59       -2.5044    2.8676   17.6484 C.ar      4 RES4    0.0000
    114 H40       -3.0998    2.1550   17.4467 H         4 RES4    0.0000
    115 C60       -2.9575    4.0356   18.2303 C.ar      4 RES4    0.0000
    116 H41       -3.8815    4.1284   18.4313 H         4 RES4    0.0000
    117 C61       -2.0831    5.0844   18.5303 C.ar      4 RES4    0.0000
    118 H42       -2.4273    5.8710   18.9362 H         4 RES4    0.0000
    119 C62       -0.7377    5.0107   18.2539 C.ar      4 RES4    0.0000
    120 H43       -0.1473    5.7265   18.4545 H         4 RES4    0.0000
    121 C63       -0.2860    3.8346   17.6655 C.ar      4 RES4    0.0000
    122 C64       -1.1453    2.7714   17.3683 C.ar      4 RES4    0.0000
    123 C65        2.1129    4.2686   17.1122 C.ar      4 RES4    0.0000
    124 C66        2.6183    4.9478   18.2220 C.ar      4 RES4    0.0000
    125 H44        2.2077    4.8445   19.0716 H         4 RES4    0.0000
    126 C67        3.7174    5.7686   18.0783 C.ar      4 RES4    0.0000
    127 H45        4.0836    6.2197   18.8298 H         4 RES4    0.0000
    128 C68        4.2740    5.9224   16.8271 C.ar      4 RES4    0.0000
    129 C69        3.7831    5.2669   15.7154 C.ar      4 RES4    0.0000
    130 H46        4.1846    5.3903   14.8642 H         4 RES4    0.0000
    131 C70        2.6946    4.4266   15.8660 C.ar      4 RES4    0.0000
    132 H47        2.3478    3.9587   15.1157 H         4 RES4    0.0000
    133 C71        1.9112    1.2723   16.2777 C.ar      4 RES4    0.0000
    134 C72        3.1848    1.3210   16.8567 C.ar      4 RES4    0.0000
    135 H48        3.3850    1.9818   17.5086 H         4 RES4    0.0000
    136 C73        4.1540    0.4070   16.4783 C.ar      4 RES4    0.0000
    137 H49        5.0192    0.4481   16.8702 H         4 RES4    0.0000
    138 C74        3.8730   -0.5662   15.5335 C.ar      4 RES4    0.0000
    139 H50        4.5342   -1.2042   15.2917 H         4 RES4    0.0000
    140 C75        2.6188   -0.6009   14.9445 C.ar      4 RES4    0.0000
    141 H51        2.4267   -1.2554   14.2839 H         4 RES4    0.0000
    142 C76        1.6499    0.3081   15.3099 C.ar      4 RES4    0.0000
    143 H52        0.7950    0.2761   14.8971 H         4 RES4    0.0000
    144 N10        0.9733    3.4170   17.2480 N.pl3     4 RES4    0.0000
    145 N11       -0.4351    1.7223   16.7965 N.2       4 RES4    0.0000
    146 N12        5.4371    6.8127   16.6725 N.pl3     4 RES4    0.0000
    147 O7         5.9306    7.2894   17.6898 O.2       4 RES4    0.0000
    148 O8         5.8518    7.0272   15.5428 O.2       4 RES4    0.0000
@<TRIPOS>BOND
     1    1   22 1
     2    2    3 1
     3    4    2 ar
     4    5    4 1
     5    6    4 ar
     6    7    6 1
     7    8    6 ar
     8    9    8 1
     9   10    8 ar
    10   11    2 ar
    11   12   13 ar
    12   13   14 1
    13   15   13 ar
    14   16   15 1
    15   17   15 ar
    16   18   17 ar
    17   19   18 1
    18   20   12 ar
    19   21   20 1
    20   22   23 ar
    21   23   24 1
    22   25   23 ar
    23   26   25 1
    24   27   25 ar
    25   28   27 1
    26   29   27 ar
    27   30   29 1
    28   31   22 ar
    29   32   31 1
    30   33    1 1
    31   34    1 2
    32   35   17 1
    33   36   35 2
    34   37   35 2
    35   38   59 1
    36   39   40 1
    37   41   39 ar
    38   42   41 1
    39   43   41 ar
    40   44   43 1
    41   45   43 ar
    42   46   45 1
    43   47   45 ar
    44   48   39 ar
    45   49   50 ar
    46   50   51 1
    47   52   50 ar
    48   53   52 1
    49   54   52 ar
    50   55   54 ar
    51   56   55 1
    52   57   49 ar
    53   58   57 1
    54   59   60 ar
    55   60   61 1
    56   62   60 ar
    57   63   62 1
    58   64   62 ar
    59   65   64 1
    60   66   64 ar
    61   67   66 1
    62   68   59 ar
    63   69   68 1
    64   70   38 1
    65   71   38 2
    66   72   54 1
    67   73   72 2
    68   74   72 2
    69   75   96 1
    70   76   77 1
    71   78   76 ar
    72   79   78 1
    73   80   78 ar
    74   81   80 1
    75   82   80 ar
    76   83   82 1
    77   84   82 ar
    78   85   76 ar
    79   86   87 ar
    80   87   88 1
    81   89   87 ar
    82   90   89 1
    83   91   89 ar
    84   92   91 ar
    85   93   92 1
    86   94   86 ar
    87   95   94 1
    88   96   97 ar
    89   97   98 1
    90   99   97 ar
    91  100   99 1
    92  101   99 ar
    93  102  101 1
    94  103  101 ar
    95  104  103 1
    96  105   96 ar
    97  106  105 1
    98  107   75 1
    99  108   75 2
   100  109   91 1
   101  110  109 2
   102  111  109 2
   103  112  133 1
   104  113  114 1
   105  115  113 ar
   106  116  115 1
   107  117  115 ar
   108  118  117 1
   109  119  117 ar
   110  120  119 1
   111  121  119 ar
   112  122  113 ar
   113  123  124 ar
   114  124  125 1
   115  126  124 ar
   116  127  126 1
   117  128  126 ar
   118  129  128 ar
   119  130  129 1
   120  131  123 ar
   121  132  131 1
   122  133  134 ar
   123  134  135 1
   124  136  134 ar
   125  137  136 1
   126  138  136 ar
   127  139  138 1
   128  140  138 ar
   129  141  140 1
   130  142  133 ar
   131  143  142 1
   132  144  112 1
   133  145  112 2
   134  146  128 1
   135  147  146 2
   136  148  146 2
   137   10   11 ar
   138   10   33 1
   139   11   34 1
   140   12   33 1
   141   18   20 ar
   142   29   31 ar
   143   47   48 ar
   144   47   70 1
   145   48   71 1
   146   49   70 1
   147   55   57 ar
   148   66   68 ar
   149   84   85 ar
   150   84  107 1
   151   85  108 1
   152   86  107 1
   153   92   94 ar
   154  103  105 ar
   155  121  122 ar
   156  121  144 1
   157  122  145 1
   158  123  144 1
   159  129  131 ar
   160  140  142 ar
@<TRIPOS>SUBSTRUCTURE
     1 RES1 1
     2 RES2 38
     3 RES3 75
     4 RES4 112

@<TRIPOS>CRYSIN
  10.2685   15.1411   19.4521  91.8860  95.7250  90.1180   2 1

