# MOL2 file generated by ConQuest
# Please check atom types

@<TRIPOS>MOLECULE
PESNOQ
    30    31     1
SMALL
USER_CHARGES
****
Generated from CSD

@<TRIPOS>ATOM
      1 O1         7.3846    3.1471    0.3288 O.2       1 RES1   -1.0000
      2 O2         7.3855    2.5324    3.7218 O.3       1 RES1    0.0000
      3 N1         8.6061    3.3319    0.9698 N.4       1 RES1    1.0000
      4 N2        10.5341    1.4180   -0.6101 N.ar      1 RES1    0.0000
      5 C1         9.5068    4.1804    0.1234 C.3       1 RES1    0.0000
      6 C2         8.9335    5.5908    0.2861 C.3       1 RES1    0.0000
      7 C3         8.2909    5.6059    1.6790 C.3       1 RES1    0.0000
      8 C4         8.4091    4.1804    2.2351 C.3       1 RES1    0.0000
      9 C5         7.2157    3.7712    3.0553 C.3       1 RES1    0.0000
     10 C6         9.2225    1.9931    1.3158 C.3       1 RES1    0.0000
     11 C7         9.4496    1.1257    0.1205 C.ar      1 RES1    0.0000
     12 C8         8.6014    0.0509   -0.1650 C.ar      1 RES1    0.0000
     13 C9         8.8566   -0.7410   -1.2689 C.ar      1 RES1    0.0000
     14 C10        9.9881   -0.4488   -2.0268 C.ar      1 RES1    0.0000
     15 C11       10.7977    0.6260   -1.6820 C.ar      1 RES1    0.0000
     16 H1         9.3679    4.0163    2.7271 H         1 RES1    0.0000
     17 H2        10.3333   -0.9126   -2.8565 H         1 RES1    0.0000
     18 H3        10.4853    4.0936    0.4321 H         1 RES1    0.0000
     19 H4         6.4229    3.4752    2.4031 H         1 RES1    0.0000
     20 H5         9.4749    3.8598   -0.8867 H         1 RES1    0.0000
     21 H6         7.1162    4.5443    3.6637 H         1 RES1    0.0000
     22 H7         8.7131    6.2979    2.3325 H         1 RES1    0.0000
     23 H8         7.8312    0.1565    0.6339 H         1 RES1    0.0000
     24 H9        11.5886    1.2049   -2.3538 H         1 RES1    0.0000
     25 H10        9.9215    2.2948    1.7971 H         1 RES1    0.0000
     26 H11        8.6099    1.6480    1.9134 H         1 RES1    0.0000
     27 H12        9.7094    6.1735    0.2160 H         1 RES1    0.0000
     28 H13        7.3771    5.7624    1.7520 H         1 RES1    0.0000
     29 H14        8.4025    5.9811   -0.4950 H         1 RES1    0.0000
     30 H15        8.0920   -1.3840   -1.5953 H         1 RES1    0.0000
@<TRIPOS>BOND
     1    1    3 1
     2    2    9 1
     3    3    5 1
     4    4   11 ar
     5    5    6 1
     6    6    7 1
     7    7    8 1
     8    8    3 1
     9    9    8 1
    10   10    3 1
    11   11   10 1
    12   12   11 ar
    13   13   12 ar
    14   14   13 ar
    15   15    4 ar
    16   16    8 1
    17   17   14 1
    18   18    5 1
    19   19    9 1
    20   20    5 1
    21   21    9 1
    22   22    7 1
    23   23   12 1
    24   24   15 1
    25   25   10 1
    26   26   10 1
    27   27    6 1
    28   28    7 1
    29   29    6 1
    30   30   13 1
    31   14   15 ar
@<TRIPOS>SUBSTRUCTURE
     1 RES1 1

@<TRIPOS>CRYSIN
   9.3820   18.8560    5.9350  90.0000  90.0000  90.0000  19 1

