# MOL2 file generated by ConQuest
# Please check atom types

@<TRIPOS>MOLECULE
PESPUY
    51    54     1
SMALL
USER_CHARGES
****
Generated from CSD

@<TRIPOS>ATOM
      1 O1         3.0972   17.0751    1.2002 O.2       1 RES1   -1.0000
      2 O2         0.7625   17.8466    0.9459 O.3       1 RES1    0.0000
      3 N1         3.1683   17.4065    2.5596 N.4       1 RES1    1.0000
      4 N2         5.7394   13.7988    1.5385 N.ar      1 RES1    0.0000
      5 C1         1.8901   18.1418    3.0530 C.3       1 RES1    0.0000
      6 C2         2.1736   19.6215    2.8228 C.3       1 RES1    0.0000
      7 C3         3.6192   19.7120    2.2723 C.3       1 RES1    0.0000
      8 C4         4.2468   18.4334    2.7377 C.3       1 RES1    0.0000
      9 C5         3.4696   16.1496    3.3634 C.3       1 RES1    0.0000
     10 C6         4.7279   15.4686    2.9329 C.ar      1 RES1    0.0000
     11 C7         5.9308   15.7656    3.5135 C.ar      1 RES1    0.0000
     12 C8         7.0605   15.0557    3.0530 C.ar      1 RES1    0.0000
     13 C9         6.9141   14.1193    2.1221 C.ar      1 RES1    0.0000
     14 C10        4.6652   14.4942    1.9620 C.ar      1 RES1    0.0000
     15 C11        0.6067   17.6311    2.3513 C.3       1 RES1    0.0000
     16 C12       -0.6035   18.4624    2.7798 C.ar      1 RES1    0.0000
     17 C13       -0.7217   19.0093    4.0741 C.ar      1 RES1    0.0000
     18 C14       -1.8723   19.7066    4.4444 C.ar      1 RES1    0.0000
     19 C15       -2.9183   19.8967    3.5235 C.ar      1 RES1    0.0000
     20 C16       -2.7709   19.4222    2.2523 C.ar      1 RES1    0.0000
     21 C17       -1.6495   18.6598    1.8819 C.ar      1 RES1    0.0000
     22 C18        0.3389   16.1677    2.6797 C.ar      1 RES1    0.0000
     23 C19        0.1088   15.7638    3.9940 C.ar      1 RES1    0.0000
     24 C20        0.0303   14.4308    4.3343 C.ar      1 RES1    0.0000
     25 C21        0.1464   13.4855    3.3634 C.ar      1 RES1    0.0000
     26 C22        0.2929   13.8368    2.0721 C.ar      1 RES1    0.0000
     27 C23        0.4079   15.1897    1.7117 C.ar      1 RES1    0.0000
     28 H1         1.7133   17.7941    4.0761 H         1 RES1    0.0000
     29 H2         2.1046   20.1847    3.7117 H         1 RES1    0.0000
     30 H3         1.7981   20.3513    2.1021 H         1 RES1    0.0000
     31 H4         4.0742   20.4926    2.5385 H         1 RES1    0.0000
     32 H5         3.5857   19.7663    1.2583 H         1 RES1    0.0000
     33 H6         4.9424   18.1979    2.0430 H         1 RES1    0.0000
     34 H7         4.5491   18.5602    3.6827 H         1 RES1    0.0000
     35 H8         2.6893   15.5302    3.3223 H         1 RES1    0.0000
     36 H9         3.5292   16.4231    4.2543 H         1 RES1    0.0000
     37 H10        5.9319   16.3470    4.2633 H         1 RES1    0.0000
     38 H11        8.0919   15.3400    3.3574 H         1 RES1    0.0000
     39 H12        7.5532   13.3442    1.4474 H         1 RES1    0.0000
     40 H13        3.8189   14.2878    1.5716 H         1 RES1    0.0000
     41 H14       -0.0858   19.1252    4.6757 H         1 RES1    0.0000
     42 H15       -1.8964   20.1738    5.5005 H         1 RES1    0.0000
     43 H16       -3.9319   20.4509    3.6356 H         1 RES1    0.0000
     44 H17       -3.5805   18.7684    1.6597 H         1 RES1    0.0000
     45 H18       -1.5659   18.3410    0.9830 H         1 RES1    0.0000
     46 H19        0.0785   16.5046    4.5766 H         1 RES1    0.0000
     47 H20       -0.1098   14.1700    5.2352 H         1 RES1    0.0000
     48 H21        0.1391   12.5654    3.5956 H         1 RES1    0.0000
     49 H22        0.3096   13.1667    1.3994 H         1 RES1    0.0000
     50 H23        0.6171   15.5592    0.7457 H         1 RES1    0.0000
     51 H24        1.9152   17.3974    0.9710 H         1 RES1    0.0000
@<TRIPOS>BOND
     1    1    3 1
     2    2   15 1
     3    3    5 1
     4    4   13 ar
     5    5    6 1
     6    6    7 1
     7    7    8 1
     8    8    3 1
     9    9    3 1
    10   10    9 1
    11   11   10 ar
    12   12   11 ar
    13   13   12 ar
    14   14    4 ar
    15   15    5 1
    16   16   15 1
    17   17   16 ar
    18   18   17 ar
    19   19   18 ar
    20   20   19 ar
    21   21   16 ar
    22   22   15 1
    23   23   22 ar
    24   24   23 ar
    25   25   24 ar
    26   26   25 ar
    27   27   22 ar
    28   28    5 1
    29   29    6 1
    30   30    6 1
    31   31    7 1
    32   32    7 1
    33   33    8 1
    34   34    8 1
    35   35    9 1
    36   36    9 1
    37   37   11 1
    38   38   12 1
    39   39   13 1
    40   40   14 1
    41   41   17 1
    42   42   18 1
    43   43   19 1
    44   44   20 1
    45   45   21 1
    46   46   23 1
    47   47   24 1
    48   48   25 1
    49   49   26 1
    50   50   27 1
    51   51    2 1
    52   10   14 ar
    53   20   21 ar
    54   26   27 ar
@<TRIPOS>SUBSTRUCTURE
     1 RES1 1

@<TRIPOS>CRYSIN
  10.4600   18.1110   10.0100  90.0000  90.0000  90.0000  19 1

