# MOL2 file generated by ConQuest
# Please check atom types

@<TRIPOS>MOLECULE
PESQOW
    40    43     1
SMALL
NO_CHARGES
****
Generated from CSD

@<TRIPOS>ATOM
      1 C1         7.0131    3.7813    9.3809 C.2       1 RES1    0.0000
      2 C2         8.3664    3.9926   12.6191 C.ar      1 RES1    0.0000
      3 H1         9.2103    4.3830   12.6288 H         1 RES1    0.0000
      4 C3         7.7788    3.5498   13.7734 C.ar      1 RES1    0.0000
      5 H2         8.2334    3.6468   14.5791 H         1 RES1    0.0000
      6 C4         6.5180    2.9573   13.7746 C.ar      1 RES1    0.0000
      7 H3         6.1523    2.6724   14.5801 H         1 RES1    0.0000
      8 C5         5.8024    2.7829   12.6131 C.ar      1 RES1    0.0000
      9 H4         4.9628    2.3806   12.6105 H         1 RES1    0.0000
     10 C6         6.3964    3.2371   11.4518 C.ar      1 RES1    0.0000
     11 C7         7.6579    3.8387   11.4278 C.ar      1 RES1    0.0000
     12 C8         4.8555    2.4811    9.6512 C.ar      1 RES1    0.0000
     13 C9         3.5911    2.9494    9.9500 C.ar      1 RES1    0.0000
     14 H5         3.4836    3.7196   10.4605 H         1 RES1    0.0000
     15 C10        2.4894    2.2618    9.4834 C.ar      1 RES1    0.0000
     16 H6         1.6288    2.5549    9.6800 H         1 RES1    0.0000
     17 C11        2.6898    1.1384    8.7235 C.ar      1 RES1    0.0000
     18 C12        3.9425    0.6367    8.4484 C.ar      1 RES1    0.0000
     19 H7         4.0460   -0.1426    7.9518 H         1 RES1    0.0000
     20 C13        5.0393    1.3202    8.9283 C.ar      1 RES1    0.0000
     21 H8         5.8974    1.0013    8.7660 H         1 RES1    0.0000
     22 C14        7.0014    3.9513    7.9260 C.ar      1 RES1    0.0000
     23 C15        5.8476    4.1228    7.1733 C.ar      1 RES1    0.0000
     24 H9         5.0143    4.1091    7.5871 H         1 RES1    0.0000
     25 C16        5.9397    4.3128    5.8149 C.ar      1 RES1    0.0000
     26 H10        5.1655    4.4372    5.3148 H         1 RES1    0.0000
     27 C17        7.1616    4.3220    5.1857 C.ar      1 RES1    0.0000
     28 H11        7.2039    4.4318    4.2633 H         1 RES1    0.0000
     29 C18        8.3305    4.1692    5.9129 C.ar      1 RES1    0.0000
     30 C19        8.2302    3.9925    7.2704 C.ar      1 RES1    0.0000
     31 H12        9.0088    3.8974    7.7695 H         1 RES1    0.0000
     32 C20        9.6773    4.1600    5.2384 C.3       1 RES1    0.0000
     33 H13       10.3573    3.9521    5.8834 H         1 RES1    0.0000
     34 H14        9.8499    5.0253    4.8583 H         1 RES1    0.0000
     35 H15        9.6821    3.4987    4.5425 H         1 RES1    0.0000
     36 N1         5.9957    3.2056   10.1211 N.pl3     1 RES1    0.0000
     37 N2         8.0083    4.1774   10.1380 N.2       1 RES1    0.0000
     38 N3         1.5166    0.4558    8.1607 N.pl3     1 RES1    0.0000
     39 O1         0.4097    0.8302    8.5118 O.2       1 RES1    0.0000
     40 O2         1.7000   -0.4500    7.3699 O.2       1 RES1    0.0000
@<TRIPOS>BOND
     1    1   22 1
     2    2    3 1
     3    4    2 ar
     4    5    4 1
     5    6    4 ar
     6    7    6 1
     7    8    6 ar
     8    9    8 1
     9   10    8 ar
    10   11    2 ar
    11   12   13 ar
    12   13   14 1
    13   15   13 ar
    14   16   15 1
    15   17   15 ar
    16   18   17 ar
    17   19   18 1
    18   20   12 ar
    19   21   20 1
    20   22   23 ar
    21   23   24 1
    22   25   23 ar
    23   26   25 1
    24   27   25 ar
    25   28   27 1
    26   29   27 ar
    27   30   22 ar
    28   31   30 1
    29   32   29 1
    30   33   32 1
    31   34   32 1
    32   35   32 1
    33   36    1 1
    34   37    1 2
    35   38   17 1
    36   39   38 2
    37   40   38 2
    38   10   11 ar
    39   10   36 1
    40   11   37 1
    41   12   36 1
    42   18   20 ar
    43   29   30 ar
@<TRIPOS>SUBSTRUCTURE
     1 RES1 1

@<TRIPOS>CRYSIN
   8.1860    9.8060   11.2640 112.8250  98.4680  94.2760   2 1

