# MOL2 file generated by ConQuest
# Please check atom types

@<TRIPOS>MOLECULE
PEVNIN
    37    40     1
SMALL
NO_CHARGES
****
Generated from CSD

@<TRIPOS>ATOM
      1 O1         0.2503    9.3356    5.4545 O.2       1 RES1    0.0000
      2 O2         1.6950    7.6917    5.5442 O.2       1 RES1    0.0000
      3 O3         5.5837    9.3999    2.3665 O.2       1 RES1    0.0000
      4 O4         5.2789   11.5327    1.9952 O.2       1 RES1    0.0000
      5 O5         5.6097    9.2846    5.6871 O.2       1 RES1    0.0000
      6 O6         6.5746   11.1469    5.0398 O.2       1 RES1    0.0000
      7 O7         3.5311   11.9913    5.6268 O.3       1 RES1    0.0000
      8 O8         3.1076   12.4450    3.4691 O.3       1 RES1    0.0000
      9 N1         1.4048    8.8903    5.4769 N.pl3     1 RES1    0.0000
     10 N2         5.1775   10.5245    2.6663 N.pl3     1 RES1    0.0000
     11 N3         5.6764   10.3146    5.0187 N.pl3     1 RES1    0.0000
     12 N4         4.1521   12.0289    4.3252 N.3       1 RES1    0.0000
     13 C1         1.8076   11.8590    3.9511 C.2       1 RES1    0.0000
     14 C2         2.1895   11.3653    5.4096 C.2       1 RES1    0.0000
     15 C3         2.5818    9.8633    5.4475 C.3       1 RES1    0.0000
     16 C4         3.3882    9.5479    4.1459 C.3       1 RES1    0.0000
     17 C5         2.3168    8.6174    2.0204 C.ar      1 RES1    0.0000
     18 C6         1.3425    8.7108    1.0298 C.ar      1 RES1    0.0000
     19 C7         0.4590    9.7917    1.0130 C.ar      1 RES1    0.0000
     20 C8         0.5301   10.8035    1.9798 C.ar      1 RES1    0.0000
     21 C9         1.5235   10.7392    2.9577 C.ar      1 RES1    0.0000
     22 C10        2.4138    9.6328    2.9773 C.ar      1 RES1    0.0000
     23 C11        0.8237   13.0079    3.9217 C.3       1 RES1    0.0000
     24 C12        1.3468   11.8493    6.5740 C.3       1 RES1    0.0000
     25 C13        4.4994   10.6022    4.0478 C.3       1 RES1    0.0000
     26 H1         3.1535    9.6995    6.2265 H         1 RES1    0.0000
     27 H2         3.7771    8.6489    4.1977 H         1 RES1    0.0000
     28 H3         2.8962    7.8907    2.0456 H         1 RES1    0.0000
     29 H4         1.2784    8.0520    0.3769 H         1 RES1    0.0000
     30 H5        -0.1897    9.8415    0.3475 H         1 RES1    0.0000
     31 H6        -0.0754   11.5096    1.9685 H         1 RES1    0.0000
     32 H7         0.0260   12.7932    4.1501 H         1 RES1    0.0000
     33 H8         0.8193   13.3695    3.0880 H         1 RES1    0.0000
     34 H9         1.1320   13.6194    4.6110 H         1 RES1    0.0000
     35 H10        1.3953   12.8733    6.7099 H         1 RES1    0.0000
     36 H11        1.4611   11.4065    7.5603 H         1 RES1    0.0000
     37 H12        0.2668   11.6334    6.4871 H         1 RES1    0.0000
@<TRIPOS>BOND
     1    1    9 2
     2    2    9 2
     3    3   10 2
     4    4   10 2
     5    5   11 2
     6    6   11 2
     7    7   12 1
     8    8   12 1
     9    9   15 1
    10   10   25 1
    11   11   25 1
    12   12   25 1
    13   13    8 1
    14   14    7 1
    15   15   14 1
    16   16   15 1
    17   17   18 ar
    18   18   19 ar
    19   19   20 ar
    20   20   21 ar
    21   21   13 1
    22   22   16 1
    23   23   13 1
    24   24   14 1
    25   25   16 1
    26   26   15 1
    27   27   16 1
    28   28   17 1
    29   29   18 1
    30   30   19 1
    31   31   20 1
    32   32   23 1
    33   33   23 1
    34   34   23 1
    35   35   24 1
    36   36   24 1
    37   37   24 1
    38   13   14 2
    39   17   22 ar
    40   21   22 ar
@<TRIPOS>SUBSTRUCTURE
     1 RES1 1

@<TRIPOS>CRYSIN
   8.6610   12.1320   14.0110  90.0000  90.0000  90.0000  19 1

