# MOL2 file generated by ConQuest
# Please check atom types

@<TRIPOS>MOLECULE
PEVNOU
    35    37     1
SMALL
NO_CHARGES
****
Generated from CSD

@<TRIPOS>ATOM
      1 O1         3.4527    5.2167    5.2771 O.3       1 RES1    0.0000
      2 O2         2.1339    3.4496    5.9111 O.3       1 RES1    0.0000
      3 O3         0.3321    1.9006    4.3665 O.3       1 RES1    0.0000
      4 H1         0.9844    1.4181    4.2464 H         1 RES1    0.0000
      5 O4         2.5284    3.4747    1.5306 O.3       1 RES1    0.0000
      6 N1         1.3604    2.6270    1.7233 N.3       1 RES1    0.0000
      7 C1         4.0949    3.9760    7.1941 C.3       1 RES1    0.0000
      8 H2         4.6141    3.4067    6.6215 H         1 RES1    0.0000
      9 H3         3.7741    3.4705    7.9435 H         1 RES1    0.0000
     10 H4         4.6427    4.7003    7.5060 H         1 RES1    0.0000
     11 C2         2.0460    5.4423    7.2509 C.3       1 RES1    0.0000
     12 H5         1.3212    5.7573    6.7062 H         1 RES1    0.0000
     13 H6         2.5604    6.1896    7.5628 H         1 RES1    0.0000
     14 H7         1.6943    4.9598    8.0022 H         1 RES1    0.0000
     15 C3         2.9341    4.5234    6.4297 C.3       1 RES1    0.0000
     16 C4         2.4642    5.0394    4.2548 C.3       1 RES1    0.0000
     17 H8         1.6955    5.6192    4.4364 H         1 RES1    0.0000
     18 C5         2.0709    3.5888    4.4764 C.3       1 RES1    0.0000
     19 H9         2.7226    2.9933    4.0509 H         1 RES1    0.0000
     20 C6         0.6606    3.2329    4.0220 C.3       1 RES1    0.0000
     21 H10        0.0416    3.8211    4.5025 H         1 RES1    0.0000
     22 C7         0.4366    3.4590    2.5203 C.3       1 RES1    0.0000
     23 H11       -0.4848    3.2120    2.2969 H         1 RES1    0.0000
     24 C8         0.7010    4.8939    2.0278 C.3       1 RES1    0.0000
     25 H12        0.1984    5.0865    1.2206 H         1 RES1    0.0000
     26 H13        0.4729    5.5470    2.7074 H         1 RES1    0.0000
     27 C9         2.1945    4.8803    1.7559 C.3       1 RES1    0.0000
     28 H14        2.3876    5.3994    0.9478 H         1 RES1    0.0000
     29 C10        3.0523    5.3837    2.9067 C.3       1 RES1    0.0000
     30 H15        3.9381    4.9944    2.8368 H         1 RES1    0.0000
     31 H16        3.1444    6.3476    2.8368 H         1 RES1    0.0000
     32 C11        0.8323    2.3297    0.3985 C.3       1 RES1    0.0000
     33 H17        1.4632    1.7907   -0.0838 H         1 RES1    0.0000
     34 H18        0.6838    3.1503   -0.0773 H         1 RES1    0.0000
     35 H19        0.0030    1.8546    0.4832 H         1 RES1    0.0000
@<TRIPOS>BOND
     1    1   15 1
     2    2   15 1
     3    3    4 1
     4    5    6 1
     5    6   22 1
     6    7    8 1
     7    9    7 1
     8   10    7 1
     9   11   12 1
    10   13   11 1
    11   14   11 1
    12   15    7 1
    13   16    1 1
    14   17   16 1
    15   18    2 1
    16   19   18 1
    17   20    3 1
    18   21   20 1
    19   22   20 1
    20   23   22 1
    21   24   22 1
    22   25   24 1
    23   26   24 1
    24   27    5 1
    25   28   27 1
    26   29   16 1
    27   30   29 1
    28   31   29 1
    29   32    6 1
    30   33   32 1
    31   34   32 1
    32   35   32 1
    33   11   15 1
    34   16   18 1
    35   18   20 1
    36   24   27 1
    37   27   29 1
@<TRIPOS>SUBSTRUCTURE
     1 RES1 1

@<TRIPOS>CRYSIN
   5.9407   10.4660    9.3103  90.0000  90.0000  90.0000   4 1

