# MOL2 file generated by ConQuest
# Please check atom types

@<TRIPOS>MOLECULE
PEVNEL
    42    44     1
SMALL
NO_CHARGES
****
Generated from CSD

@<TRIPOS>ATOM
      1 C1         7.3403    2.2067    8.9708 C.ar      1 RES1    0.0000
      2 H1         6.4954    2.0338    9.3175 H         1 RES1    0.0000
      3 C2         8.2291    2.9926    9.6814 C.ar      1 RES1    0.0000
      4 H2         7.9773    3.3445   10.5033 H         1 RES1    0.0000
      5 C3         9.4786    3.2572    9.1830 C.ar      1 RES1    0.0000
      6 H3        10.0715    3.7917    9.6611 H         1 RES1    0.0000
      7 C4         9.8490    2.7289    7.9706 C.ar      1 RES1    0.0000
      8 H4        10.6946    2.9079    7.6288 H         1 RES1    0.0000
      9 C5         8.9754    1.9308    7.2519 C.ar      1 RES1    0.0000
     10 C6         7.7033    1.6758    7.7446 C.ar      1 RES1    0.0000
     11 C7         6.7614    0.8270    6.9382 C.3       1 RES1    0.0000
     12 H5         5.9220    0.7545    7.4177 H         1 RES1    0.0000
     13 H6         7.1355   -0.0655    6.8652 H         1 RES1    0.0000
     14 C8         9.3340    1.3928    5.9182 C.3       1 RES1    0.0000
     15 H7        10.2943    1.4487    5.7962 H         1 RES1    0.0000
     16 H8         9.0787    0.4585    5.8681 H         1 RES1    0.0000
     17 C9         6.4760    1.3483    5.5398 C.2       1 RES1    0.0000
     18 C10        7.3226    1.9832    4.7044 C.2       1 RES1    0.0000
     19 C11        6.9267    2.7420    3.4980 C.ar      1 RES1    0.0000
     20 C12        5.8056    3.5690    3.5200 C.ar      1 RES1    0.0000
     21 H9         5.2735    3.5978    4.2826 H         1 RES1    0.0000
     22 C13        5.4732    4.3418    2.4380 C.ar      1 RES1    0.0000
     23 H10        4.7160    4.8806    2.4568 H         1 RES1    0.0000
     24 C14        7.3990    3.5253    1.2736 C.ar      1 RES1    0.0000
     25 H11        7.9337    3.5236    0.5120 H         1 RES1    0.0000
     26 C15        7.7286    2.7411    2.3609 C.ar      1 RES1    0.0000
     27 H12        8.4913    2.2093    2.3333 H         1 RES1    0.0000
     28 C16        6.2750    4.3051    1.3313 C.ar      1 RES1    0.0000
     29 C17        5.0675    1.1614    5.1254 C.2       1 RES1    0.0000
     30 C18        3.6019    0.6418    3.3241 C.3       1 RES1    0.0000
     31 H13        3.1522    1.4976    3.4045 H         1 RES1    0.0000
     32 H14        3.0826   -0.0262    3.7975 H         1 RES1    0.0000
     33 C19        3.7494    0.2672    1.9046 C.3       1 RES1    0.0000
     34 H15        4.3558    0.8750    1.4754 H         1 RES1    0.0000
     35 H16        2.8937    0.3091    1.4710 H         1 RES1    0.0000
     36 H17        4.0958   -0.6261    1.8437 H         1 RES1    0.0000
     37 N1         5.9436    5.1670    0.1913 N.pl3     1 RES1    0.0000
     38 O1         8.6691    2.1306    4.8631 O.3       1 RES1    0.0000
     39 O2         4.1167    1.3492    5.8477 O.2       1 RES1    0.0000
     40 O3         4.9512    0.7213    3.8710 O.3       1 RES1    0.0000
     41 O4         4.9347    5.8490    0.2681 O.2       1 RES1    0.0000
     42 O5         6.6779    5.1574   -0.7788 O.2       1 RES1    0.0000
@<TRIPOS>BOND
     1    1    2 1
     2    3    1 ar
     3    4    3 1
     4    5    3 ar
     5    6    5 1
     6    7    5 ar
     7    8    7 1
     8    9    7 ar
     9   10    1 ar
    10   11   10 1
    11   12   11 1
    12   13   11 1
    13   14    9 1
    14   15   14 1
    15   16   14 1
    16   17   11 1
    17   18   17 2
    18   19   18 1
    19   20   19 ar
    20   21   20 1
    21   22   20 ar
    22   23   22 1
    23   24   25 1
    24   26   19 ar
    25   27   26 1
    26   28   22 ar
    27   29   17 1
    28   30   31 1
    29   32   30 1
    30   33   30 1
    31   34   33 1
    32   35   33 1
    33   36   33 1
    34   37   28 1
    35   38   14 1
    36   39   29 2
    37   40   29 1
    38   41   37 2
    39   42   37 2
    40    9   10 ar
    41   18   38 1
    42   24   26 ar
    43   24   28 ar
    44   30   40 1
@<TRIPOS>SUBSTRUCTURE
     1 RES1 1

@<TRIPOS>CRYSIN
   8.7664    8.7325   22.4690  90.0000  91.8460  90.0000  14 1

