# MOL2 file generated by ConQuest
# Please check atom types

@<TRIPOS>MOLECULE
PEVNUB
    39    41     1
SMALL
NO_CHARGES
****
Generated from CSD

@<TRIPOS>ATOM
      1 C1         0.6413    8.6649    4.8779 C.ar      1 RES1    0.0000
      2 H1         0.4188    9.3089    4.2445 H         1 RES1    0.0000
      3 C2         0.9984    7.3803    4.4608 C.ar      1 RES1    0.0000
      4 H2         1.0031    7.1751    3.5531 H         1 RES1    0.0000
      5 C3         1.3372    6.4351    5.3598 C.ar      1 RES1    0.0000
      6 H3         1.5850    5.5882    5.0665 H         1 RES1    0.0000
      7 C4         1.3195    6.7200    6.7521 C.ar      1 RES1    0.0000
      8 C5         0.9507    8.0144    7.1821 C.ar      1 RES1    0.0000
      9 C6         0.6151    8.9847    6.2008 C.ar      1 RES1    0.0000
     10 H4         0.3757    9.8448    6.4647 H         1 RES1    0.0000
     11 C7         0.8991    8.2764    8.5657 C.ar      1 RES1    0.0000
     12 H5         0.6574    9.1288    8.8482 H         1 RES1    0.0000
     13 C8         1.1901    7.3260    9.5152 C.ar      1 RES1    0.0000
     14 C9         1.5920    6.0242    9.0600 C.ar      1 RES1    0.0000
     15 C10        1.6366    5.7563    7.7199 C.ar      1 RES1    0.0000
     16 H6         1.8868    4.9049    7.4404 H         1 RES1    0.0000
     17 C11        2.0970    4.9846   10.0075 C.2       1 RES1    0.0000
     18 C12        2.2763    2.6424   10.3816 C.3       1 RES1    0.0000
     19 H7         1.7813    2.5551   11.2105 H         1 RES1    0.0000
     20 H8         3.2116    2.7875   10.5940 H         1 RES1    0.0000
     21 C13        2.1224    1.4265    9.5646 C.3       1 RES1    0.0000
     22 H9         1.1894    1.2224    9.4666 H         1 RES1    0.0000
     23 H10        2.5665    0.6931    9.9948 H         1 RES1    0.0000
     24 H11        2.5104    1.5717    8.6984 H         1 RES1    0.0000
     25 C14        1.0331    7.6641   10.9490 C.ar      1 RES1    0.0000
     26 C15        1.4996    8.8712   11.4520 C.ar      1 RES1    0.0000
     27 H12        1.9045    9.4748   10.8725 H         1 RES1    0.0000
     28 C16        1.3803    9.2030   12.7827 C.ar      1 RES1    0.0000
     29 H13        1.6967   10.0172   13.1004 H         1 RES1    0.0000
     30 C17        0.7837    8.3015   13.6272 C.ar      1 RES1    0.0000
     31 C18        0.2733    7.1151   13.1795 C.ar      1 RES1    0.0000
     32 H14       -0.1486    6.5290   13.7649 H         1 RES1    0.0000
     33 C19        0.3972    6.8051   11.8424 C.ar      1 RES1    0.0000
     34 H15        0.0470    6.0029   11.5294 H         1 RES1    0.0000
     35 N1         0.7159    8.5995   15.0640 N.pl3     1 RES1    0.0000
     36 O1         2.7659    5.1956   10.9778 O.2       1 RES1    0.0000
     37 O2         1.7567    3.7585    9.5980 O.3       1 RES1    0.0000
     38 O3         0.2864    7.7329   15.8096 O.2       1 RES1    0.0000
     39 O4         1.1108    9.6909   15.4405 O.2       1 RES1    0.0000
@<TRIPOS>BOND
     1    1    2 1
     2    3    1 ar
     3    4    3 1
     4    5    3 ar
     5    6    5 1
     6    7    5 ar
     7    8    7 ar
     8    9    1 ar
     9   10    9 1
    10   11    8 ar
    11   12   11 1
    12   13   11 ar
    13   14   13 ar
    14   15    7 ar
    15   16   15 1
    16   17   14 1
    17   18   19 1
    18   20   18 1
    19   21   18 1
    20   22   21 1
    21   23   21 1
    22   24   21 1
    23   25   13 1
    24   26   25 ar
    25   27   26 1
    26   28   26 ar
    27   29   28 1
    28   30   28 ar
    29   31   30 ar
    30   32   31 1
    31   33   25 ar
    32   34   33 1
    33   35   30 1
    34   36   17 2
    35   37   17 1
    36   38   35 2
    37   39   35 2
    38    8    9 ar
    39   14   15 ar
    40   18   37 1
    41   31   33 ar
@<TRIPOS>SUBSTRUCTURE
     1 RES1 1

@<TRIPOS>CRYSIN
   7.6981   10.9144   19.2060  90.0000  90.0000  90.0000  19 1

