# MOL2 file generated by ConQuest
# Please check atom types

@<TRIPOS>MOLECULE
PEVNUA
    59    63     1
SMALL
NO_CHARGES
****
Generated from CSD

@<TRIPOS>ATOM
      1 N1         0.2342    4.3552    6.9211 N.3       1 RES1    0.0000
      2 O1         2.1481    3.3854    3.2131 O.3       1 RES1    0.0000
      3 O2         1.4940    5.3930    2.3213 O.3       1 RES1    0.0000
      4 O3         1.1505    7.8599    3.9362 O.3       1 RES1    0.0000
      5 H1         0.5215    8.3633    3.7830 H         1 RES1    0.0000
      6 O4         2.0968    2.4693    5.8824 O.3       1 RES1    0.0000
      7 O5        -0.4296    5.3441    6.0541 O.3       1 RES1    0.0000
      8 C1         1.8927    4.0629    1.9821 C.3       1 RES1    0.0000
      9 C2         0.7383    3.4057    1.2743 C.3       1 RES1    0.0000
     10 H2        -0.0426    3.4462    1.8314 H         1 RES1    0.0000
     11 H3         0.9560    2.4883    1.0931 H         1 RES1    0.0000
     12 H4         0.5670    3.8625    0.4483 H         1 RES1    0.0000
     13 C3         3.1738    4.0796    1.1847 C.3       1 RES1    0.0000
     14 H5         3.8550    4.5365    1.6826 H         1 RES1    0.0000
     15 H6         3.0267    4.5341    0.3510 H         1 RES1    0.0000
     16 H7         3.4544    3.1778    1.0111 H         1 RES1    0.0000
     17 C4         1.5076    4.1369    4.2580 C.3       1 RES1    0.0000
     18 H8         0.5603    3.8948    4.3248 H         1 RES1    0.0000
     19 C5         1.6614    5.5660    3.7410 C.3       1 RES1    0.0000
     20 H9         2.5671    5.8892    3.9299 H         1 RES1    0.0000
     21 C6         0.6522    6.5585    4.2542 C.3       1 RES1    0.0000
     22 H10       -0.2080    6.4153    3.8059 H         1 RES1    0.0000
     23 C7         0.4674    6.4678    5.7727 C.3       1 RES1    0.0000
     24 H11        0.0629    7.2980    6.1008 H         1 RES1    0.0000
     25 C8         1.7204    6.1708    6.5720 C.3       1 RES1    0.0000
     26 H12        1.7040    6.6193    7.4305 H         1 RES1    0.0000
     27 H13        2.5177    6.4392    6.0875 H         1 RES1    0.0000
     28 C9         1.6614    4.6427    6.7399 C.3       1 RES1    0.0000
     29 H14        2.1471    4.3898    7.5526 H         1 RES1    0.0000
     30 C10        2.2197    3.8566    5.5552 C.3       1 RES1    0.0000
     31 H15        3.1690    4.0737    5.4503 H         1 RES1    0.0000
     32 C11        3.2193    1.6772    5.5476 C.3       1 RES1    0.0000
     33 H16        4.0301    2.1233    5.8357 H         1 RES1    0.0000
     34 H17        3.2628    1.5651    4.5842 H         1 RES1    0.0000
     35 C12        3.1225    0.3471    6.2000 C.ar      1 RES1    0.0000
     36 C13        3.3344   -0.8338    5.4427 C.ar      1 RES1    0.0000
     37 H18        3.5531   -0.7861    4.5403 H         1 RES1    0.0000
     38 C14        3.2067   -2.0840    6.0875 C.ar      1 RES1    0.0000
     39 H19        3.3228   -2.8808    5.6220 H         1 RES1    0.0000
     40 C15        2.9174   -2.0840    7.3752 C.ar      1 RES1    0.0000
     41 H20        2.8613   -2.9047    7.8082 H         1 RES1    0.0000
     42 C16        2.7074   -1.0151    8.0715 C.ar      1 RES1    0.0000
     43 H21        2.4907   -1.0784    8.9738 H         1 RES1    0.0000
     44 C17        2.8042    0.1658    7.4915 C.ar      1 RES1    0.0000
     45 H22        2.6406    0.9209    8.0104 H         1 RES1    0.0000
     46 C18       -0.2342    4.6236    8.2947 C.3       1 RES1    0.0000
     47 H23       -1.1989    4.7274    8.2890 H         1 RES1    0.0000
     48 H24        0.1539    5.4550    8.6075 H         1 RES1    0.0000
     49 C19        0.1384    3.5190    9.2314 C.ar      1 RES1    0.0000
     50 C20       -0.2903    2.2152    9.0139 C.ar      1 RES1    0.0000
     51 H25       -0.7818    2.0231    8.2489 H         1 RES1    0.0000
     52 C21       -0.0039    1.1917    9.9086 C.ar      1 RES1    0.0000
     53 H26       -0.3038    0.3257    9.7483 H         1 RES1    0.0000
     54 C22        0.7170    1.4756   11.0132 C.ar      1 RES1    0.0000
     55 H27        0.9009    0.7957   11.6198 H         1 RES1    0.0000
     56 C23        1.1834    2.7317   11.2669 C.ar      1 RES1    0.0000
     57 H28        1.6779    2.9047   12.0357 H         1 RES1    0.0000
     58 C24        0.9105    3.7492   10.3626 C.ar      1 RES1    0.0000
     59 H29        1.2511    4.6009   10.5172 H         1 RES1    0.0000
@<TRIPOS>BOND
     1    1    7 1
     2    2    8 1
     3    3    8 1
     4    4    5 1
     5    6   30 1
     6    7   23 1
     7    8    9 1
     8    9   10 1
     9   11    9 1
    10   12    9 1
    11   13    8 1
    12   14   13 1
    13   15   13 1
    14   16   13 1
    15   17    2 1
    16   18   17 1
    17   19    3 1
    18   20   19 1
    19   21    4 1
    20   22   21 1
    21   23   21 1
    22   24   23 1
    23   25   23 1
    24   26   25 1
    25   27   25 1
    26   28    1 1
    27   29   28 1
    28   30   17 1
    29   31   30 1
    30   32    6 1
    31   33   32 1
    32   34   32 1
    33   35   32 1
    34   36   35 ar
    35   37   36 1
    36   38   36 ar
    37   39   38 1
    38   40   38 ar
    39   41   40 1
    40   42   40 ar
    41   43   42 1
    42   44   35 ar
    43   45   44 1
    44   46    1 1
    45   47   46 1
    46   48   46 1
    47   49   46 1
    48   50   49 ar
    49   51   50 1
    50   52   50 ar
    51   53   52 1
    52   54   52 ar
    53   55   54 1
    54   56   54 ar
    55   57   56 1
    56   58   49 ar
    57   59   58 1
    58   17   19 1
    59   19   21 1
    60   25   28 1
    61   28   30 1
    62   42   44 ar
    63   56   58 ar
@<TRIPOS>SUBSTRUCTURE
     1 RES1 1

@<TRIPOS>CRYSIN
   9.6762   11.9288   19.0770  90.0000  90.0000  90.0000  19 1

