# MOL2 file generated by ConQuest
# Please check atom types

@<TRIPOS>MOLECULE
PEVPIP
    29    31     1
SMALL
NO_CHARGES
****
Generated from CSD

@<TRIPOS>ATOM
      1 O1         2.1170    3.8890   -0.4422 O.3       1 RES1    0.0000
      2 O2         2.1090    6.4347    1.0807 O.2       1 RES1    0.0000
      3 O3         3.5696    5.3009    2.1639 O.2       1 RES1    0.0000
      4 N1         2.4321    5.4772    1.7786 N.pl3     1 RES1    0.0000
      5 C1         0.7202    3.8547   -0.2157 C.3       1 RES1    0.0000
      6 C2         0.2306    2.3963   -0.2726 C.3       1 RES1    0.0000
      7 C3         1.0868    1.5772    0.6930 C.3       1 RES1    0.0000
      8 C4         0.7421    2.1955    2.0681 C.3       1 RES1    0.0000
      9 C5        -0.4822    3.0894    1.7338 C.3       1 RES1    0.0000
     10 C6         0.2509    4.3445    1.2067 C.3       1 RES1    0.0000
     11 C7        -1.0891    2.4759    0.4737 C.3       1 RES1    0.0000
     12 C8         1.8406    3.1445    2.5891 C.3       1 RES1    0.0000
     13 C9         1.3266    4.5588    2.2584 C.3       1 RES1    0.0000
     14 C10        0.7753    5.2935    3.4833 C.3       1 RES1    0.0000
     15 H1         2.3769    4.8392   -0.7597 H         1 RES1    0.0000
     16 H2         0.1836    4.4229   -0.9147 H         1 RES1    0.0000
     17 H3         0.1951    1.9959   -1.2225 H         1 RES1    0.0000
     18 H4         2.1412    1.6665    0.4749 H         1 RES1    0.0000
     19 H5         0.8278    0.7849    0.6361 H         1 RES1    0.0000
     20 H6         0.4347    1.4633    2.7757 H         1 RES1    0.0000
     21 H7        -1.0665    3.2829    2.5928 H         1 RES1    0.0000
     22 H8        -0.3871    5.1466    1.0625 H         1 RES1    0.0000
     23 H9        -1.8062    3.1433    0.0775 H         1 RES1    0.0000
     24 H10       -1.4605    1.5392    0.6676 H         1 RES1    0.0000
     25 H11        2.8451    3.1017    2.1554 H         1 RES1    0.0000
     26 H12        2.0060    3.1078    3.5269 H         1 RES1    0.0000
     27 H13        0.4082    6.2217    3.2252 H         1 RES1    0.0000
     28 H14        1.5285    5.4062    4.2090 H         1 RES1    0.0000
     29 H15        0.0140    4.8000    3.8152 H         1 RES1    0.0000
@<TRIPOS>BOND
     1    1    5 1
     2    2    4 2
     3    3    4 2
     4    4   13 1
     5    5    6 1
     6    6    7 1
     7    7    8 1
     8    8    9 1
     9    9   10 1
    10   10    5 1
    11   11    6 1
    12   12    8 1
    13   13   10 1
    14   14   13 1
    15   15    1 1
    16   16    5 1
    17   17    6 1
    18   18    7 1
    19   19    7 1
    20   20    8 1
    21   21    9 1
    22   22   10 1
    23   23   11 1
    24   24   11 1
    25   25   12 1
    26   26   12 1
    27   27   14 1
    28   28   14 1
    29   29   14 1
    30    9   11 1
    31   12   13 1
@<TRIPOS>SUBSTRUCTURE
     1 RES1 1

@<TRIPOS>CRYSIN
   6.4230   12.2450   12.9690  90.0000 110.9000  90.0000  14 1

