# MOL2 file generated by ConQuest
# Please check atom types

@<TRIPOS>MOLECULE
PEVQIR
    38    40     1
SMALL
NO_CHARGES
****
Generated from CSD

@<TRIPOS>ATOM
      1 O1        -0.4506    1.5572    7.5225 O.3       1 RES1    0.0000
      2 O2         0.3790    0.7466    5.0145 O.3       1 RES1    0.0000
      3 O3         0.9242    6.9440    4.5593 O.2       1 RES1    0.0000
      4 O4         2.3767    6.5326    6.0758 O.2       1 RES1    0.0000
      5 O5         0.8945    7.1442    9.8368 O.2       1 RES1    0.0000
      6 O6         2.3347    5.9835   10.9288 O.2       1 RES1    0.0000
      7 N1         1.4324    6.0792   10.1170 N.pl3     1 RES1    0.0000
      8 N2         1.5514    6.1719    5.2617 N.pl3     1 RES1    0.0000
      9 C1         0.2448    0.3610    7.4041 C.ar      1 RES1    0.0000
     10 C2         0.4129   -0.4840    8.4799 C.ar      1 RES1    0.0000
     11 H1         0.0745   -0.2337    9.3470 H         1 RES1    0.0000
     12 C3         0.9755   -1.7273    8.2842 C.ar      1 RES1    0.0000
     13 H2         1.0694   -2.2622    8.9740 H         1 RES1    0.0000
     14 C4         1.3573   -2.1213    7.0241 C.ar      1 RES1    0.0000
     15 H3         1.7554   -2.9431    6.8592 H         1 RES1    0.0000
     16 C5         1.1929   -1.2805    5.9438 C.ar      1 RES1    0.0000
     17 H4         1.4280   -1.5398    5.1187 H         1 RES1    0.0000
     18 C6         0.6382   -0.0285    6.1381 C.ar      1 RES1    0.0000
     19 C7         0.0697    2.6136    8.2232 C.ar      1 RES1    0.0000
     20 C8         1.2162    2.5584    8.9916 C.ar      1 RES1    0.0000
     21 H5         1.6707    1.8138    9.0651 H         1 RES1    0.0000
     22 C9         1.6604    3.7029    9.6147 C.ar      1 RES1    0.0000
     23 H6         2.3973    3.6881   10.1622 H         1 RES1    0.0000
     24 C10        0.9536    4.8738    9.4590 C.ar      1 RES1    0.0000
     25 C11       -0.2010    4.9348    8.7009 C.ar      1 RES1    0.0000
     26 H7        -0.6943    5.7415    8.5808 H         1 RES1    0.0000
     27 C12       -0.6541    3.7954    8.0937 C.ar      1 RES1    0.0000
     28 H8        -1.4255    3.7866    7.5588 H         1 RES1    0.0000
     29 C13        0.7282    2.0820    5.0531 C.ar      1 RES1    0.0000
     30 C14        1.8785    2.5098    5.6883 C.ar      1 RES1    0.0000
     31 H9         2.4739    1.9051    6.0598 H         1 RES1    0.0000
     32 C15        2.1576    3.8566    5.7452 C.ar      1 RES1    0.0000
     33 H10        2.8944    4.1875    6.2101 H         1 RES1    0.0000
     34 C16        1.2943    4.7367    5.1248 C.ar      1 RES1    0.0000
     35 C17        0.1848    4.3128    4.4186 C.ar      1 RES1    0.0000
     36 H11       -0.3676    4.9206    4.0042 H         1 RES1    0.0000
     37 C18       -0.1018    2.9665    4.3961 C.ar      1 RES1    0.0000
     38 H12       -0.8139    2.6786    4.0100 H         1 RES1    0.0000
@<TRIPOS>BOND
     1    1    9 1
     2    2   18 1
     3    3    8 2
     4    4    8 2
     5    5    7 2
     6    6    7 2
     7    7   24 1
     8    8   34 1
     9    9   10 ar
    10   10   11 1
    11   12   10 ar
    12   13   12 1
    13   14   12 ar
    14   15   14 1
    15   16   14 ar
    16   17   16 1
    17   18    9 ar
    18   19    1 1
    19   20   19 ar
    20   21   20 1
    21   22   20 ar
    22   23   22 1
    23   24   22 ar
    24   25   24 ar
    25   26   25 1
    26   27   19 ar
    27   28   27 1
    28   29    2 1
    29   30   29 ar
    30   31   30 1
    31   32   30 ar
    32   33   32 1
    33   34   32 ar
    34   35   34 ar
    35   36   35 1
    36   37   29 ar
    37   38   37 1
    38   16   18 ar
    39   25   27 ar
    40   35   37 ar
@<TRIPOS>SUBSTRUCTURE
     1 RES1 1

@<TRIPOS>CRYSIN
   9.0869   11.8627   14.6945  90.0000 100.3470  90.0000  14 1

