# MOL2 file generated by ConQuest
# Please check atom types

@<TRIPOS>MOLECULE
PEVWOC
    33    35     1
SMALL
NO_CHARGES
****
Generated from CSD

@<TRIPOS>ATOM
      1 O1        15.1694    2.2877    2.7942 O.3       1 RES1    0.0000
      2 N1        15.7365    2.9672    1.6718 N.2       1 RES1    0.0000
      3 C1        16.3532    4.0069    2.0674 C.2       1 RES1    0.0000
      4 C2        16.3368    4.2046    3.5346 C.3       1 RES1    0.0000
      5 C3        15.5959    2.9844    4.0150 C.3       1 RES1    0.0000
      6 C4        16.4589    1.9686    4.7532 C.2       1 RES1    0.0000
      7 O2        17.6016    1.6763    4.5271 O.2       1 RES1    0.0000
      8 O3        15.7520    1.3599    5.7174 O.3       1 RES1    0.0000
      9 C5        14.3666    1.8578    5.7275 C.3       1 RES1    0.0000
     10 C6        14.4282    3.1654    4.9555 C.3       1 RES1    0.0000
     11 C7        16.9917    4.9625    1.1044 C.3       1 RES1    0.0000
     12 C8        18.4325    5.2176    1.4073 C.3       1 RES1    0.0000
     13 C9        13.8892    1.9503    7.1620 C.ar      1 RES1    0.0000
     14 C10       14.3562    2.9315    8.0278 C.ar      1 RES1    0.0000
     15 C11       13.8875    2.9900    9.3209 C.ar      1 RES1    0.0000
     16 C12       12.9622    2.0722    9.7754 C.ar      1 RES1    0.0000
     17 C13       12.5060    1.0926    8.9355 C.ar      1 RES1    0.0000
     18 C14       12.9665    1.0303    7.6243 C.ar      1 RES1    0.0000
     19 H1        17.3332    4.2380    3.9337 H         1 RES1    0.0000
     20 H2        15.8147    5.1123    3.7980 H         1 RES1    0.0000
     21 H3        13.6327    1.2196    5.2562 H         1 RES1    0.0000
     22 H4        14.5952    3.9985    5.6179 H         1 RES1    0.0000
     23 H5        13.5172    3.3303    4.4084 H         1 RES1    0.0000
     24 H6        16.4548    5.9031    1.1417 H         1 RES1    0.0000
     25 H7        16.9158    4.5499    0.1130 H         1 RES1    0.0000
     26 H8        18.8289    5.9087    0.6782 H         1 RES1    0.0000
     27 H9        18.9772    4.2881    1.3564 H         1 RES1    0.0000
     28 H10       18.5313    5.6414    2.3964 H         1 RES1    0.0000
     29 H11       15.0853    3.6477    7.6864 H         1 RES1    0.0000
     30 H12       14.2411    3.7591    9.9811 H         1 RES1    0.0000
     31 H13       12.5948    2.1274   10.7949 H         1 RES1    0.0000
     32 H14       11.7825    0.3676    9.2916 H         1 RES1    0.0000
     33 H15       12.6014    0.2562    6.9630 H         1 RES1    0.0000
@<TRIPOS>BOND
     1    1    2 1
     2    2    3 2
     3    3    4 1
     4    4    5 1
     5    5    1 1
     6    6    5 1
     7    7    6 2
     8    8    6 1
     9    9    8 1
    10   10    5 1
    11   11    3 1
    12   12   11 1
    13   13    9 1
    14   14   13 ar
    15   15   14 ar
    16   16   15 ar
    17   17   16 ar
    18   18   13 ar
    19   19    4 1
    20   20    4 1
    21   21    9 1
    22   22   10 1
    23   23   10 1
    24   24   11 1
    25   25   11 1
    26   26   12 1
    27   27   12 1
    28   28   12 1
    29   29   14 1
    30   30   15 1
    31   31   16 1
    32   32   17 1
    33   33   18 1
    34    9   10 1
    35   17   18 ar
@<TRIPOS>SUBSTRUCTURE
     1 RES1 1

@<TRIPOS>CRYSIN
  19.9580    5.5690   12.2990  90.0000 113.2100  90.0000 231 1

