# MOL2 file generated by ConQuest
# Please check atom types

@<TRIPOS>MOLECULE
PEVYEU
   102   102     2
SMALL
NO_CHARGES
****
Generated from CSD

@<TRIPOS>ATOM
      1 O1        -5.1466    1.3203   14.4793 O.2       1 RES1    0.0000
      2 O2        -6.0783   -0.5954   14.1224 O.2       1 RES1    0.0000
      3 O3        -9.5842   -1.1167   10.7926 O.2       1 RES1    0.0000
      4 O4        -8.9636   -0.3765    8.8673 O.2       1 RES1    0.0000
      5 O5        -6.7117    4.6586   10.9902 O.2       1 RES1    0.0000
      6 O6        -7.5312    3.8278    9.1582 O.2       1 RES1    0.0000
      7 N1        -5.8982    0.5801   13.8123 N.pl3     1 RES1    0.0000
      8 N2        -8.5756   -0.1330   12.9357 N.3       1 RES1    0.0000
      9 N3        -8.8354   -0.3965   10.0976 N.pl3     1 RES1    0.0000
     10 N4        -6.8371    1.1073    8.6122 N.3       1 RES1    0.0000
     11 N5        -6.9049    3.6737   10.2370 N.pl3     1 RES1    0.0000
     12 N6        -4.9101    2.8829   12.3748 N.3       1 RES1    0.0000
     13 C1        -6.5282    1.1202   12.6594 C.ar      1 RES1    0.0000
     14 C2        -7.6894    0.4271   12.1283 C.ar      1 RES1    0.0000
     15 C3        -7.8246    0.3813   10.7039 C.ar      1 RES1    0.0000
     16 C4        -7.0333    1.2697    9.8933 C.ar      1 RES1    0.0000
     17 C5        -6.4876    2.4205   10.6103 C.ar      1 RES1    0.0000
     18 C6        -5.9349    2.1840   11.9268 C.ar      1 RES1    0.0000
     19 C7        -8.8719    0.1177   14.3527 C.3       1 RES1    0.0000
     20 C8       -10.1329    0.9567   14.4353 C.3       1 RES1    0.0000
     21 C9        -9.0384   -1.2002   15.0668 C.3       1 RES1    0.0000
     22 C10       -5.9634    1.8698    7.6987 C.3       1 RES1    0.0000
     23 C11       -6.7618    2.2804    6.4851 C.3       1 RES1    0.0000
     24 C12       -4.7778    1.0178    7.3294 C.3       1 RES1    0.0000
     25 C13       -4.0128    3.7725   11.6196 C.3       1 RES1    0.0000
     26 C14       -3.1966    3.0229   10.6074 C.3       1 RES1    0.0000
     27 C15       -3.1393    4.4691   12.6260 C.3       1 RES1    0.0000
     28 H1        -9.1310   -0.5648   12.5302 H         1 RES1    0.0000
     29 H2        -7.1369    0.4118    8.2270 H         1 RES1    0.0000
     30 H3        -4.7278    2.6240   13.2149 H         1 RES1    0.0000
     31 H4        -8.1408    0.6248   14.7901 H         1 RES1    0.0000
     32 H5       -10.3560    1.1508   15.3577 H         1 RES1    0.0000
     33 H6        -9.9822    1.8121   13.9457 H         1 RES1    0.0000
     34 H7       -10.8727    0.4813   13.9954 H         1 RES1    0.0000
     35 H8        -9.2245   -1.0108   16.0282 H         1 RES1    0.0000
     36 H9        -9.7608   -1.6992   14.6836 H         1 RES1    0.0000
     37 H10       -8.1929   -1.6980   15.0100 H         1 RES1    0.0000
     38 H11       -5.6575    2.6593    8.1631 H         1 RES1    0.0000
     39 H12       -6.1781    2.7911    5.8713 H         1 RES1    0.0000
     40 H13       -7.0798    1.4768    6.0239 H         1 RES1    0.0000
     41 H14       -7.5131    2.8358    6.7547 H         1 RES1    0.0000
     42 H15       -4.1772    1.5003    6.7228 H         1 RES1    0.0000
     43 H16       -4.2789    0.7601    8.1418 H         1 RES1    0.0000
     44 H17       -5.0882    0.1918    6.8824 H         1 RES1    0.0000
     45 H18       -4.5469    4.4232   11.1005 H         1 RES1    0.0000
     46 H19       -2.6153    3.6501   10.1214 H         1 RES1    0.0000
     47 H20       -2.6479    2.3510   11.0615 H         1 RES1    0.0000
     48 H21       -3.7940    2.5770    9.9688 H         1 RES1    0.0000
     49 H22       -2.4813    5.0375   12.2145 H         1 RES1    0.0000
     50 H23       -3.6510    4.9257   13.3036 H         1 RES1    0.0000
     51 H24       -2.6013    3.7301   13.1369 H         1 RES1    0.0000
     52 O7        -6.2425   -0.6354   22.5633 O.2       2 RES2    0.0000
     53 O8        -7.6856   -1.3156   21.0967 O.2       2 RES2    0.0000
     54 O9        -9.0615    1.4379   17.4238 O.2       2 RES2    0.0000
     55 O10       -7.2334    2.2087   16.5713 O.2       2 RES2    0.0000
     56 O11       -4.8797    4.7009   19.6808 O.2       2 RES2    0.0000
     57 O12       -4.4349    4.1114   21.7101 O.2       2 RES2    0.0000
     58 N7        -7.0303   -0.4071   21.6331 N.pl3     2 RES2    0.0000
     59 N8        -9.1750    0.7507   19.8784 N.3       2 RES2    0.0000
     60 N9        -7.8670    1.8015   17.5732 N.pl3     2 RES2    0.0000
     61 N10       -5.1249    2.4628   17.9957 N.3       2 RES2    0.0000
     62 N11       -4.9277    3.8643   20.5858 N.pl3     2 RES2    0.0000
     63 N12       -5.7568    2.1122   22.7190 N.3       2 RES2    0.0000
     64 C16       -7.1134    0.9061   21.1258 C.ar      2 RES2    0.0000
     65 C17       -7.9241    1.1308   19.9533 C.ar      2 RES2    0.0000
     66 C18       -7.2657    1.7686   18.8241 C.ar      2 RES2    0.0000
     67 C19       -5.9388    2.2957   19.0135 C.ar      2 RES2    0.0000
     68 C20       -5.5832    2.6276   20.3751 C.ar      2 RES2    0.0000
     69 C21       -6.1230    1.8874   21.4582 C.ar      2 RES2    0.0000
     70 C22      -10.0771    0.2295   20.9183 C.3       2 RES2    0.0000
     71 C23      -10.7002   -1.0555   20.3953 C.3       2 RES2    0.0000
     72 C24      -11.1263    1.2473   21.1935 C.3       2 RES2    0.0000
     73 C25       -3.6669    2.7029   17.9794 C.3       2 RES2    0.0000
     74 C26       -2.9924    1.3814   17.6211 C.3       2 RES2    0.0000
     75 C27       -3.3555    3.7784   16.9754 C.3       2 RES2    0.0000
     76 C28       -6.4682    1.7921   23.9607 C.3       2 RES2    0.0000
     77 C29       -5.5003    1.2214   24.9576 C.3       2 RES2    0.0000
     78 C30       -7.1410    3.0312   24.4751 C.3       2 RES2    0.0000
     79 H25       -9.4849    0.8590   19.0898 H         2 RES2    0.0000
     80 H26       -5.5115    2.3181   17.1847 H         2 RES2    0.0000
     81 H27       -5.1368    2.7064   22.7226 H         2 RES2    0.0000
     82 H28       -9.5840    0.0435   21.7683 H         2 RES2    0.0000
     83 H29      -11.3266   -1.4438   21.0516 H         2 RES2    0.0000
     84 H30      -11.2190   -0.8719   19.5581 H         2 RES2    0.0000
     85 H31      -10.0140   -1.7286   20.1754 H         2 RES2    0.0000
     86 H32      -11.7588    0.9449   21.8889 H         2 RES2    0.0000
     87 H33      -10.7159    2.1028   21.5128 H         2 RES2    0.0000
     88 H34      -11.6440    1.4603   20.3740 H         2 RES2    0.0000
     89 H35       -3.3886    2.9653   18.8699 H         2 RES2    0.0000
     90 H36       -2.0190    1.4991   17.6069 H         2 RES2    0.0000
     91 H37       -3.2198    0.7048   18.3164 H         2 RES2    0.0000
     92 H38       -3.3014    1.0590   16.7555 H         2 RES2    0.0000
     93 H39       -2.4076    3.9384   16.9364 H         2 RES2    0.0000
     94 H40       -3.6761    3.4795   16.0743 H         2 RES2    0.0000
     95 H41       -3.8417    4.5974   17.2131 H         2 RES2    0.0000
     96 H42       -7.1984    1.1096   23.8223 H         2 RES2    0.0000
     97 H43       -5.9363    0.9590   25.7948 H         2 RES2    0.0000
     98 H44       -5.0663    0.3883   24.5709 H         2 RES2    0.0000
     99 H45       -4.7809    1.8592   25.1385 H         2 RES2    0.0000
    100 H46       -7.6485    2.8806   25.2982 H         2 RES2    0.0000
    101 H47       -6.4592    3.7407   24.6560 H         2 RES2    0.0000
    102 H48       -7.7662    3.4160   23.7904 H         2 RES2    0.0000
@<TRIPOS>BOND
     1    1    7 2
     2    2    7 2
     3    3    9 2
     4    4    9 2
     5    5   11 2
     6    6   11 2
     7    7   13 1
     8    8   14 1
     9    9   15 1
    10   10   16 1
    11   11   17 1
    12   12   18 1
    13   13   14 ar
    14   14   15 ar
    15   15   16 ar
    16   16   17 ar
    17   17   18 ar
    18   18   13 ar
    19   19    8 1
    20   20   19 1
    21   21   19 1
    22   22   10 1
    23   23   22 1
    24   24   22 1
    25   25   12 1
    26   26   25 1
    27   27   25 1
    28   28    8 1
    29   29   10 1
    30   30   12 1
    31   31   19 1
    32   32   20 1
    33   33   20 1
    34   34   20 1
    35   35   21 1
    36   36   21 1
    37   37   21 1
    38   38   22 1
    39   39   23 1
    40   40   23 1
    41   41   23 1
    42   42   24 1
    43   43   24 1
    44   44   24 1
    45   45   25 1
    46   46   26 1
    47   47   26 1
    48   48   26 1
    49   49   27 1
    50   50   27 1
    51   51   27 1
    52   52   58 2
    53   53   58 2
    54   54   60 2
    55   55   60 2
    56   56   62 2
    57   57   62 2
    58   58   64 1
    59   59   65 1
    60   60   66 1
    61   61   67 1
    62   62   68 1
    63   63   69 1
    64   64   65 ar
    65   65   66 ar
    66   66   67 ar
    67   67   68 ar
    68   68   69 ar
    69   69   64 ar
    70   70   59 1
    71   71   70 1
    72   72   70 1
    73   73   61 1
    74   74   73 1
    75   75   73 1
    76   76   63 1
    77   77   76 1
    78   78   76 1
    79   79   59 1
    80   80   61 1
    81   81   63 1
    82   82   70 1
    83   83   71 1
    84   84   71 1
    85   85   71 1
    86   86   72 1
    87   87   72 1
    88   88   72 1
    89   89   73 1
    90   90   74 1
    91   91   74 1
    92   92   74 1
    93   93   75 1
    94   94   75 1
    95   95   75 1
    96   96   76 1
    97   97   77 1
    98   98   77 1
    99   99   77 1
   100  100   78 1
   101  101   78 1
   102  102   78 1
@<TRIPOS>SUBSTRUCTURE
     1 RES1 1
     2 RES2 52

@<TRIPOS>CRYSIN
  18.7590   11.7670   36.6040  90.0000 104.2590  90.0000  15 1

