# MOL2 file generated by ConQuest
# Please check atom types

@<TRIPOS>MOLECULE
PEWMEJ
    72    76     1
SMALL
NO_CHARGES
****
Generated from CSD

@<TRIPOS>ATOM
      1 C1         6.0219   -1.0839    2.1347 C.ar      1 RES1    0.0000
      2 C2         7.1072   -1.0064    3.0199 C.ar      1 RES1    0.0000
      3 C3         7.2594   -1.9323    4.0394 C.ar      1 RES1    0.0000
      4 C4         6.3274   -2.9500    4.1967 C.ar      1 RES1    0.0000
      5 C5         5.2640   -3.0468    3.3376 C.ar      1 RES1    0.0000
      6 C6         5.1256   -2.1210    2.3078 C.ar      1 RES1    0.0000
      7 O1         7.9668    0.0274    2.7923 O.3       1 RES1    0.0000
      8 C7         8.9825    0.2661    3.7470 C.3       1 RES1    0.0000
      9 C8         5.8882   -0.0097    1.0930 C.3       1 RES1    0.0000
     10 C9         4.6660    0.0000    0.1272 C.3       1 RES1    0.0000
     11 C10        3.7766    1.1806    0.3280 C.2       1 RES1    0.0000
     12 C11        2.4886    1.1113    0.6180 C.2       1 RES1    0.0000
     13 C12        1.6214    2.2387    0.9808 C.ar      1 RES1    0.0000
     14 C13        0.2757    2.0113    1.2669 C.ar      1 RES1    0.0000
     15 C14       -0.5533    3.0693    1.6328 C.ar      1 RES1    0.0000
     16 C15       -0.0322    4.3355    1.7245 C.ar      1 RES1    0.0000
     17 C16        1.2892    4.5968    1.4621 C.ar      1 RES1    0.0000
     18 C17        2.1032    3.5484    1.0978 C.ar      1 RES1    0.0000
     19 N1        -0.9098    5.4516    2.1181 N.pl3     1 RES1    0.0000
     20 O2        -2.0069    5.1822    2.5433 O.2       1 RES1    0.0000
     21 O3        -0.4732    6.5871    2.0146 O.2       1 RES1    0.0000
     22 H1         7.9525   -1.8548    4.6314 H         1 RES1    0.0000
     23 H2         6.4739   -3.6774    4.9712 H         1 RES1    0.0000
     24 H3         4.5651   -3.7419    3.4933 H         1 RES1    0.0000
     25 H4         4.4580   -2.1935    1.6913 H         1 RES1    0.0000
     26 H5         9.6879   -0.3710    3.6593 H         1 RES1    0.0000
     27 H6         8.5524    0.3387    4.6788 H         1 RES1    0.0000
     28 H7         9.4236    1.0000    3.4222 H         1 RES1    0.0000
     29 H8         5.9359    0.8710    1.5254 H         1 RES1    0.0000
     30 H9         4.1189   -0.8548    0.1660 H         1 RES1    0.0000
     31 H10        4.2567    2.0161    0.3003 H         1 RES1    0.0000
     32 H11        2.0740    0.2419    0.6797 H         1 RES1    0.0000
     33 H12       -0.0512    1.1129    1.0986 H         1 RES1    0.0000
     34 H13       -1.4046    2.8387    1.8020 H         1 RES1    0.0000
     35 H14        1.5968    5.5161    1.5728 H         1 RES1    0.0000
     36 H15        3.0993    3.7581    1.0433 H         1 RES1    0.0000
     37 C9B        6.8736   -0.0000   -0.1272 C.3       1 RES1    0.0000
     38 C8B        5.6514    0.0097   -1.0930 C.3       1 RES1    0.0000
     39 C10B       7.7630   -1.1806   -0.3280 C.2       1 RES1    0.0000
     40 H9B        7.4207    0.8548   -0.1660 H         1 RES1    0.0000
     41 C1B        5.5177    1.0839   -2.1347 C.ar      1 RES1    0.0000
     42 H8B        5.6037   -0.8710   -1.5254 H         1 RES1    0.0000
     43 C11B       9.0510   -1.1113   -0.6180 C.2       1 RES1    0.0000
     44 H10B       7.2829   -2.0161   -0.3003 H         1 RES1    0.0000
     45 C2B        4.4324    1.0064   -3.0199 C.ar      1 RES1    0.0000
     46 C6B        6.4140    2.1210   -2.3078 C.ar      1 RES1    0.0000
     47 C12B       9.9182   -2.2387   -0.9808 C.ar      1 RES1    0.0000
     48 H11B       9.4656   -0.2419   -0.6797 H         1 RES1    0.0000
     49 C3B        4.2802    1.9323   -4.0394 C.ar      1 RES1    0.0000
     50 O1B        3.5728   -0.0274   -2.7923 O.3       1 RES1    0.0000
     51 C5B        6.2756    3.0468   -3.3376 C.ar      1 RES1    0.0000
     52 H4B        7.0816    2.1935   -1.6913 H         1 RES1    0.0000
     53 C13B      11.2639   -2.0113   -1.2669 C.ar      1 RES1    0.0000
     54 C17B       9.4364   -3.5484   -1.0978 C.ar      1 RES1    0.0000
     55 C4B        5.2122    2.9500   -4.1967 C.ar      1 RES1    0.0000
     56 H1B        3.5871    1.8548   -4.6314 H         1 RES1    0.0000
     57 C7B        2.5571   -0.2661   -3.7470 C.3       1 RES1    0.0000
     58 H3B        6.9745    3.7419   -3.4933 H         1 RES1    0.0000
     59 C14B      12.0929   -3.0693   -1.6328 C.ar      1 RES1    0.0000
     60 H12B      11.5908   -1.1129   -1.0986 H         1 RES1    0.0000
     61 C16B      10.2504   -4.5968   -1.4621 C.ar      1 RES1    0.0000
     62 H15B       8.4403   -3.7581   -1.0433 H         1 RES1    0.0000
     63 H2B        5.0657    3.6774   -4.9712 H         1 RES1    0.0000
     64 H5B        1.8517    0.3710   -3.6593 H         1 RES1    0.0000
     65 H6B        2.9872   -0.3387   -4.6788 H         1 RES1    0.0000
     66 H7B        2.1160   -1.0000   -3.4222 H         1 RES1    0.0000
     67 C15B      11.5718   -4.3355   -1.7245 C.ar      1 RES1    0.0000
     68 H13B      12.9442   -2.8387   -1.8020 H         1 RES1    0.0000
     69 H14B       9.9428   -5.5161   -1.5728 H         1 RES1    0.0000
     70 N1B       12.4494   -5.4516   -2.1181 N.pl3     1 RES1    0.0000
     71 O2B       13.5465   -5.1822   -2.5433 O.2       1 RES1    0.0000
     72 O3B       12.0128   -6.5871   -2.0146 O.2       1 RES1    0.0000
@<TRIPOS>BOND
     1    1    2 ar
     2    2    3 ar
     3    3    4 ar
     4    4    5 ar
     5    5    6 ar
     6    6    1 ar
     7    7    2 1
     8    8    7 1
     9    9    1 1
    10   10    9 1
    11   11   10 1
    12   12   11 2
    13   13   12 1
    14   14   13 ar
    15   15   14 ar
    16   16   15 ar
    17   17   16 ar
    18   18   13 ar
    19   19   16 1
    20   20   19 2
    21   21   19 2
    22   22    3 1
    23   23    4 1
    24   24    5 1
    25   25    6 1
    26   26    8 1
    27   27    8 1
    28   28    8 1
    29   29    9 1
    30   30   10 1
    31   31   11 1
    32   32   12 1
    33   33   14 1
    34   34   15 1
    35   35   17 1
    36   36   18 1
    37   37    9 1
    38   38   10 1
    39   39   37 1
    40   40   37 1
    41   41   38 1
    42   42   38 1
    43   43   39 2
    44   44   39 1
    45   45   41 ar
    46   46   41 ar
    47   47   43 1
    48   48   43 1
    49   49   45 ar
    50   50   45 1
    51   51   46 ar
    52   52   46 1
    53   53   47 ar
    54   54   47 ar
    55   55   49 ar
    56   56   49 1
    57   57   50 1
    58   58   51 1
    59   59   53 ar
    60   60   53 1
    61   61   54 ar
    62   62   54 1
    63   63   55 1
    64   64   57 1
    65   65   57 1
    66   66   57 1
    67   67   59 ar
    68   68   59 1
    69   69   61 1
    70   70   67 1
    71   71   70 2
    72   72   70 2
    73   17   18 ar
    74   37   38 1
    75   51   55 ar
    76   61   67 ar
@<TRIPOS>SUBSTRUCTURE
     1 RES1 1

@<TRIPOS>CRYSIN
  11.5396   16.1290    7.9035  90.0000  90.2640  90.0000  14 1

