# MOL2 file generated by ConQuest
# Please check atom types

@<TRIPOS>MOLECULE
PEWMAF
    36    37     1
SMALL
NO_CHARGES
****
Generated from CSD

@<TRIPOS>ATOM
      1 C1         5.3413   -2.1804   12.2349 C.ar      1 RES1    0.0000
      2 C2         5.9808   -2.1572   10.9744 C.ar      1 RES1    0.0000
      3 C3         6.0573   -3.3068   10.1962 C.ar      1 RES1    0.0000
      4 C4         5.4789   -4.4889   10.6499 C.ar      1 RES1    0.0000
      5 C5         4.8043   -4.5229   11.8605 C.ar      1 RES1    0.0000
      6 C6         4.7430   -3.3779   12.6419 C.ar      1 RES1    0.0000
      7 O1         6.5022   -0.9522   10.6025 O.3       1 RES1    0.0000
      8 C7         6.9168   -0.7980    9.2484 C.3       1 RES1    0.0000
      9 C8         5.3207   -0.9692   13.0452 C.2       1 RES1    0.0000
     10 C9         4.8346   -0.8293   14.2833 C.2       1 RES1    0.0000
     11 C10        4.8753    0.4345   14.9910 C.2       1 RES1    0.0000
     12 C11        4.3955    0.6186   16.2281 C.2       1 RES1    0.0000
     13 C12        4.4551    1.8631   16.9842 C.ar      1 RES1    0.0000
     14 C13        3.9829    1.8669   18.3131 C.ar      1 RES1    0.0000
     15 C14        4.0454    3.0046   19.0947 C.ar      1 RES1    0.0000
     16 C15        4.5822    4.1575   18.5463 C.ar      1 RES1    0.0000
     17 C16        5.0389    4.2086   17.2299 C.ar      1 RES1    0.0000
     18 C17        4.9625    3.0640   16.4649 C.ar      1 RES1    0.0000
     19 N1         4.7124    5.3518   19.3829 N.pl3     1 RES1    0.0000
     20 O2         5.1229    6.3844   18.8799 O.2       1 RES1    0.0000
     21 O3         4.3877    5.2619   20.5663 O.2       1 RES1    0.0000
     22 H1         6.5999   -3.2151    9.2554 H         1 RES1    0.0000
     23 H2         5.4620   -5.2376   10.1322 H         1 RES1    0.0000
     24 H3         4.3280   -5.3604   12.1633 H         1 RES1    0.0000
     25 H4         4.2069   -3.4379   13.5147 H         1 RES1    0.0000
     26 H5         7.6839   -1.3926    9.0193 H         1 RES1    0.0000
     27 H6         6.1367   -1.0241    8.6666 H         1 RES1    0.0000
     28 H7         7.2446    0.1300    9.0894 H         1 RES1    0.0000
     29 H8         5.7459   -0.2385   12.6120 H         1 RES1    0.0000
     30 H9         4.3160   -1.5826   14.7417 H         1 RES1    0.0000
     31 H10        5.3223    1.1226   14.4771 H         1 RES1    0.0000
     32 H11        3.9910   -0.1214   16.6768 H         1 RES1    0.0000
     33 H12        3.6630    1.1298   18.6612 H         1 RES1    0.0000
     34 H13        3.7161    2.9109   20.0179 H         1 RES1    0.0000
     35 H14        5.4680    5.0419   16.8662 H         1 RES1    0.0000
     36 H15        5.3238    3.0551   15.5095 H         1 RES1    0.0000
@<TRIPOS>BOND
     1    1    2 ar
     2    2    3 ar
     3    3    4 ar
     4    4    5 ar
     5    5    6 ar
     6    6    1 ar
     7    7    2 1
     8    8    7 1
     9    9    1 1
    10   10    9 2
    11   11   10 1
    12   12   11 2
    13   13   12 1
    14   14   13 ar
    15   15   14 ar
    16   16   15 ar
    17   17   16 ar
    18   18   13 ar
    19   19   16 1
    20   20   19 2
    21   21   19 2
    22   22    3 1
    23   23    4 1
    24   24    5 1
    25   25    6 1
    26   26    8 1
    27   27    8 1
    28   28    8 1
    29   29    9 1
    30   30   10 1
    31   31   11 1
    32   32   12 1
    33   33   14 1
    34   34   15 1
    35   35   17 1
    36   36   18 1
    37   17   18 ar
@<TRIPOS>SUBSTRUCTURE
     1 RES1 1

@<TRIPOS>CRYSIN
   7.4710   14.2830   25.9400  90.0000  90.0000  90.0000  61 1

