# MOL2 file generated by ConQuest
# Please check atom types

@<TRIPOS>MOLECULE
PEWQEO
    56    59     1
SMALL
NO_CHARGES
****
Generated from CSD

@<TRIPOS>ATOM
      1 N1        -1.9839    8.0283   26.4689 N.2       1 RES1    0.0000
      2 O1        -0.7586   10.1511   25.6202 O.3       1 RES1    0.0000
      3 H1        -1.3295    9.5625   25.6170 H         1 RES1    0.0000
      4 O2        -2.9163    6.9891   26.5201 O.3       1 RES1    0.0000
      5 C1        -1.2198    8.0294   27.4904 C.2       1 RES1    0.0000
      6 H2        -1.3537    7.3937   28.1559 H         1 RES1    0.0000
      7 C2        -0.1480    8.9961   27.6426 C.ar      1 RES1    0.0000
      8 C3         0.0467    9.9948   26.6993 C.ar      1 RES1    0.0000
      9 C4         1.1174   10.8936   26.8038 C.ar      1 RES1    0.0000
     10 H3         1.2345   11.5507   26.1569 H         1 RES1    0.0000
     11 C5         1.9811   10.8088   27.8412 C.ar      1 RES1    0.0000
     12 H4         2.6833   11.4159   27.8975 H         1 RES1    0.0000
     13 C6         1.8425    9.8204   28.8438 C.ar      1 RES1    0.0000
     14 C7         0.7527    8.9135   28.7514 C.ar      1 RES1    0.0000
     15 C8         0.6512    7.9386   29.7774 C.ar      1 RES1    0.0000
     16 H5        -0.0539    7.3327   29.7573 H         1 RES1    0.0000
     17 C9         1.5554    7.8673   30.7888 C.ar      1 RES1    0.0000
     18 H6         1.4520    7.2237   31.4515 H         1 RES1    0.0000
     19 C10        2.6385    8.7477   30.8459 C.ar      1 RES1    0.0000
     20 H7         3.2679    8.6727   31.5261 H         1 RES1    0.0000
     21 C11        2.7641    9.7102   29.9036 C.ar      1 RES1    0.0000
     22 H8         3.4722   10.3104   29.9561 H         1 RES1    0.0000
     23 C12       -3.7439    7.0250   25.3578 C.3       1 RES1    0.0000
     24 H9        -3.1989    6.9588   24.5587 H         1 RES1    0.0000
     25 H10       -4.2363    7.8603   25.3255 H         1 RES1    0.0000
     26 C13       -4.6916    5.8726   25.4285 C.3       1 RES1    0.0000
     27 H11       -5.2009    5.9283   26.2530 H         1 RES1    0.0000
     28 H12       -4.1866    5.0444   25.4464 H         1 RES1    0.0000
     29 N1B       -8.3516    3.6947   23.2150 N.2       1 RES1    0.0000
     30 O1B       -9.5769    1.5719   24.0637 O.3       1 RES1    0.0000
     31 H1B       -9.0060    2.1605   24.0669 H         1 RES1    0.0000
     32 O2B       -7.4192    4.7339   23.1638 O.3       1 RES1    0.0000
     33 C1B       -9.1157    3.6936   22.1935 C.2       1 RES1    0.0000
     34 H2B       -8.9818    4.3293   21.5280 H         1 RES1    0.0000
     35 C2B      -10.1876    2.7269   22.0413 C.ar      1 RES1    0.0000
     36 C3B      -10.3822    1.7282   22.9846 C.ar      1 RES1    0.0000
     37 C4B      -11.4529    0.8294   22.8801 C.ar      1 RES1    0.0000
     38 H3B      -11.5700    0.1723   23.5270 H         1 RES1    0.0000
     39 C5B      -12.3166    0.9142   21.8427 C.ar      1 RES1    0.0000
     40 H4B      -13.0188    0.3071   21.7864 H         1 RES1    0.0000
     41 C6B      -12.1780    1.9026   20.8401 C.ar      1 RES1    0.0000
     42 C7B      -11.0882    2.8095   20.9325 C.ar      1 RES1    0.0000
     43 C8B      -10.9867    3.7844   19.9065 C.ar      1 RES1    0.0000
     44 H5B      -10.2816    4.3903   19.9265 H         1 RES1    0.0000
     45 C9B      -11.8910    3.8557   18.8951 C.ar      1 RES1    0.0000
     46 H6B      -11.7875    4.4993   18.2323 H         1 RES1    0.0000
     47 C10B     -12.9741    2.9753   18.8380 C.ar      1 RES1    0.0000
     48 H7B      -13.6035    3.0503   18.1578 H         1 RES1    0.0000
     49 C11B     -13.0996    2.0128   19.7803 C.ar      1 RES1    0.0000
     50 H8B      -13.8077    1.4126   19.7278 H         1 RES1    0.0000
     51 C12B      -6.5916    4.6980   24.3261 C.3       1 RES1    0.0000
     52 H9B       -7.1367    4.7642   25.1251 H         1 RES1    0.0000
     53 H10B      -6.0992    3.8627   24.3583 H         1 RES1    0.0000
     54 C13B      -5.6439    5.8504   24.2553 C.3       1 RES1    0.0000
     55 H11B      -5.1346    5.7947   23.4309 H         1 RES1    0.0000
     56 H12B      -6.1489    6.6786   24.2375 H         1 RES1    0.0000
@<TRIPOS>BOND
     1    1    4 1
     2    2    3 1
     3    4   23 1
     4    5    1 2
     5    6    5 1
     6    7    5 1
     7    8    2 1
     8    9    8 ar
     9   10    9 1
    10   11    9 ar
    11   12   11 1
    12   13   11 ar
    13   14    7 ar
    14   15   14 ar
    15   16   15 1
    16   17   15 ar
    17   18   17 1
    18   19   17 ar
    19   20   19 1
    20   21   13 ar
    21   22   21 1
    22   23   24 1
    23   25   23 1
    24   26   23 1
    25   27   26 1
    26   28   26 1
    27   29   32 1
    28   30   31 1
    29   32   51 1
    30   33   29 2
    31   34   33 1
    32   35   33 1
    33   36   30 1
    34   37   36 ar
    35   38   37 1
    36   39   37 ar
    37   40   39 1
    38   41   39 ar
    39   42   35 ar
    40   43   42 ar
    41   44   43 1
    42   45   43 ar
    43   46   45 1
    44   47   45 ar
    45   48   47 1
    46   49   41 ar
    47   50   49 1
    48   51   52 1
    49   53   51 1
    50   54   26 1
    51   55   54 1
    52   56   54 1
    53    7    8 ar
    54   13   14 ar
    55   19   21 ar
    56   35   36 ar
    57   41   42 ar
    58   47   49 ar
    59   51   54 1
@<TRIPOS>SUBSTRUCTURE
     1 RES1 1

@<TRIPOS>CRYSIN
   5.6110   11.7230   16.6360  90.0000  95.4320  90.0000  14 1

