# MOL2 file generated by ConQuest
# Please check atom types

@<TRIPOS>MOLECULE
PEWVEV
    42    44     2
SMALL
USER_CHARGES
****
Generated from CSD

@<TRIPOS>ATOM
      1 C1         9.0625    2.1211    3.3186 C.2       1 RES1    0.0000
      2 O1         8.1971    2.1286    2.1732 O.3       1 RES1    0.0000
      3 N1         6.8886    2.0619    2.5449 N.2       1 RES1   -1.0000
      4 N2         6.9179    2.0158    3.8469 N.pl3     1 RES1    1.0000
      5 C2         8.1704    2.0501    4.4016 C.2       1 RES1    0.0000
      6 C3         5.6177    1.8998    4.4949 C.ar      1 RES1    0.0000
      7 C4         4.7044    2.9034    4.2642 C.ar      1 RES1    0.0000
      8 C5         3.4311    2.7581    4.7712 C.ar      1 RES1    0.0000
      9 C6         3.1117    1.6293    5.5245 C.ar      1 RES1    0.0000
     10 C7         4.0472    0.6476    5.7463 C.ar      1 RES1    0.0000
     11 C8         5.3251    0.7798    5.2207 C.ar      1 RES1    0.0000
     12 C9         8.4773    2.0875    5.8163 C.2       1 RES1    0.0000
     13 O2         7.5937    2.1174    6.6817 O.2       1 RES1    0.0000
     14 O3         9.7564    2.1149    6.0703 O.3       1 RES1    0.0000
     15 O4        10.2566    2.2015    3.1566 O.2       1 RES1    0.0000
     16 H1         9.9510    2.0694    7.2275 H         1 RES1    0.0000
     17 H2         4.9682    3.6900    3.7660 H         1 RES1    0.0000
     18 H3         2.7681    3.4531    4.6245 H         1 RES1    0.0000
     19 H4         2.2570    1.6268    5.8706 H         1 RES1    0.0000
     20 H5         3.8789   -0.2306    6.2029 H         1 RES1    0.0000
     21 H6         5.9578   -0.0062    5.3251 H         1 RES1    0.0000
     22 C10       11.7568    5.0850    1.7116 C.ar      2 RES2    0.0000
     23 C11        8.1706    5.1897    2.5108 C.2       2 RES2    0.0000
     24 O5         8.3145    5.0638    1.1074 O.3       2 RES2    0.0000
     25 N3        10.3067    5.1161    1.8609 N.pl3     2 RES2    1.0000
     26 N4         9.6359    5.0189    0.7399 N.2       2 RES2   -1.0000
     27 C12        9.5247    5.2383    2.9630 C.2       2 RES2    0.0000
     28 C13        9.9336    5.2464    4.3578 C.2       2 RES2    0.0000
     29 C14       14.4438    5.0363    1.2777 C.ar      2 RES2    0.0000
     30 C15       13.6646    3.9456    0.9219 C.ar      2 RES2    0.0000
     31 C16       13.8604    6.1327    1.8517 C.ar      2 RES2    0.0000
     32 C17       12.4895    6.1938    2.0843 C.ar      2 RES2    0.0000
     33 C18       12.3027    3.9711    1.1331 C.ar      2 RES2    0.0000
     34 O6         7.0782    5.2327    3.0098 O.2       2 RES2    0.0000
     35 O7         9.0553    5.2751    5.2323 O.2       2 RES2    0.0000
     36 O8        11.2124    5.2227    4.6021 O.3       2 RES2    0.0000
     37 H7        11.3200    5.2919    5.7598 H         2 RES2    0.0000
     38 H8        15.4345    5.0301    1.1354 H         2 RES2    0.0000
     39 H9        14.0957    3.2287    0.4708 H         2 RES2    0.0000
     40 H10       14.3337    6.9125    2.0769 H         2 RES2    0.0000
     41 H11       12.0738    7.0185    2.5365 H         2 RES2    0.0000
     42 H12       11.8162    3.3035    0.9194 H         2 RES2    0.0000
@<TRIPOS>BOND
     1    1    2 1
     2    2    3 1
     3    3    4 1
     4    4    5 2
     5    5    1 1
     6    6    4 1
     7    7    6 ar
     8    8    7 ar
     9    9    8 ar
    10   10    9 ar
    11   11    6 ar
    12   12    5 1
    13   13   12 2
    14   14   12 1
    15   15    1 2
    16   16   14 1
    17   17    7 1
    18   18    8 1
    19   19    9 1
    20   20   10 1
    21   21   11 1
    22   22   25 1
    23   23   24 1
    24   24   26 1
    25   25   26 1
    26   27   23 1
    27   28   27 1
    28   29   30 ar
    29   30   33 ar
    30   31   29 ar
    31   32   22 ar
    32   33   22 ar
    33   34   23 2
    34   35   28 2
    35   36   28 1
    36   37   36 1
    37   38   29 1
    38   39   30 1
    39   40   31 1
    40   41   32 1
    41   42   33 1
    42   10   11 ar
    43   25   27 2
    44   31   32 ar
@<TRIPOS>SUBSTRUCTURE
     1 RES1 1
     2 RES2 22

@<TRIPOS>CRYSIN
  10.2420    6.2331   27.7830  90.0000  94.6510  90.0000  14 1

