# MOL2 file generated by ConQuest
# Please check atom types

@<TRIPOS>MOLECULE
PEWYIC
    94    98     1
SMALL
NO_CHARGES
****
Generated from CSD

@<TRIPOS>ATOM
      1 O1         8.9749    7.3204    9.3707 O.3       1 RES1    0.0000
      2 O2        10.8472    4.3158   11.4574 O.3       1 RES1    0.0000
      3 N1         8.6211    6.9434    8.0633 N.2       1 RES1    0.0000
      4 C1         8.7472    4.9542    6.6919 C.ar      1 RES1    0.0000
      5 C2         8.4980    5.6440    5.5070 C.ar      1 RES1    0.0000
      6 H1         8.4980    6.5741    5.5070 H         1 RES1    0.0000
      7 C3         9.5227    6.2504   10.0025 C.2       1 RES1    0.0000
      8 C4        10.6482    5.4891   12.1002 C.ar      1 RES1    0.0000
      9 C5         9.5348    5.1877    9.1542 C.2       1 RES1    0.0000
     10 H2         9.8465    4.3283    9.3256 H         1 RES1    0.0000
     11 C6         8.9679    5.6780    7.9514 C.2       1 RES1    0.0000
     12 C7         9.9576    6.4826   11.3772 C.ar      1 RES1    0.0000
     13 C8         8.7648    3.5583    6.6798 C.ar      1 RES1    0.0000
     14 H3         8.9561    3.0895    7.4599 H         1 RES1    0.0000
     15 C9        10.8169    6.9798   13.9829 C.ar      1 RES1    0.0000
     16 H4        11.1081    7.1461   14.8505 H         1 RES1    0.0000
     17 C10       11.0841    5.7524   13.3979 C.ar      1 RES1    0.0000
     18 H5        11.5544    5.1043   13.8708 H         1 RES1    0.0000
     19 C11        9.7086    7.7069   11.9962 C.ar      1 RES1    0.0000
     20 H6         9.2538    8.3685   11.5269 H         1 RES1    0.0000
     21 C12       10.1240    7.9618   13.2976 C.ar      1 RES1    0.0000
     22 H7         9.9393    8.7790   13.7013 H         1 RES1    0.0000
     23 C13       11.9259    1.9719    9.9796 C.3       1 RES1    0.0000
     24 H8        11.7211    2.7975    9.5134 H         1 RES1    0.0000
     25 H9        12.8882    1.9213   10.0914 H         1 RES1    0.0000
     26 C14       11.4698    3.2328   12.1698 C.3       1 RES1    0.0000
     27 H10       11.0685    3.1320   13.0471 H         1 RES1    0.0000
     28 H11       12.4179    3.4043   12.2817 H         1 RES1    0.0000
     29 C15       12.2132   -0.6495    5.6050 C.3       1 RES1    0.0000
     30 H12       12.2568    0.1940    5.1281 H         1 RES1    0.0000
     31 H13       13.1220   -0.9469    5.7678 H         1 RES1    0.0000
     32 C16        8.4980    2.8698    5.5070 C.ar      1 RES1    0.0000
     33 H14        8.4980    1.9399    5.5070 H         1 RES1    0.0000
     34 C17       11.5136   -0.4338    6.9360 C.3       1 RES1    0.0000
     35 H15       11.5412   -1.2622    7.4397 H         1 RES1    0.0000
     36 H16       10.5817   -0.2237    6.7671 H         1 RES1    0.0000
     37 C18       12.1176    0.6751    7.7862 C.3       1 RES1    0.0000
     38 H17       13.0639    0.5011    7.9099 H         1 RES1    0.0000
     39 H18       12.0293    1.5194    7.3170 H         1 RES1    0.0000
     40 C19       11.4507    0.7897    9.1467 C.3       1 RES1    0.0000
     41 H19       11.6161   -0.0268    9.6436 H         1 RES1    0.0000
     42 H20       10.4924    0.8658    9.0176 H         1 RES1    0.0000
     43 C20       11.2568    1.9846   11.3501 C.3       1 RES1    0.0000
     44 H21       10.3029    1.8598   11.2256 H         1 RES1    0.0000
     45 H22       11.5853    1.2260   11.8576 H         1 RES1    0.0000
     46 C21       11.5007   -1.6744    4.7404 C.3       1 RES1    0.0000
     47 H23       11.4666   -2.5150    5.2029 H         1 RES1    0.0000
     48 H24       11.9775   -1.7829    3.9142 H         1 RES1    0.0000
     49 H25       10.6077   -1.3734    4.5574 H         1 RES1    0.0000
     50 O1B        8.0211    7.3204    1.6433 O.3       1 RES1    0.0000
     51 O2B        6.1488    4.3158   -0.4434 O.3       1 RES1    0.0000
     52 N1B        8.3749    6.9434    2.9507 N.2       1 RES1    0.0000
     53 C1B        8.2488    4.9542    4.3221 C.ar      1 RES1    0.0000
     54 C3B        7.4733    6.2504    1.0115 C.2       1 RES1    0.0000
     55 C4B        6.3478    5.4891   -1.0862 C.ar      1 RES1    0.0000
     56 C5B        7.4612    5.1877    1.8598 C.2       1 RES1    0.0000
     57 H2B        7.1495    4.3283    1.6884 H         1 RES1    0.0000
     58 C6B        8.0281    5.6780    3.0626 C.2       1 RES1    0.0000
     59 C7B        7.0384    6.4826   -0.3632 C.ar      1 RES1    0.0000
     60 C8B        8.2312    3.5583    4.3342 C.ar      1 RES1    0.0000
     61 H3B        8.0399    3.0895    3.5541 H         1 RES1    0.0000
     62 C9B        6.1791    6.9798   -2.9689 C.ar      1 RES1    0.0000
     63 H4B        5.8879    7.1461   -3.8365 H         1 RES1    0.0000
     64 C10B       5.9119    5.7524   -2.3839 C.ar      1 RES1    0.0000
     65 H5B        5.4416    5.1043   -2.8568 H         1 RES1    0.0000
     66 C11B       7.2874    7.7069   -0.9822 C.ar      1 RES1    0.0000
     67 H6B        7.7422    8.3685   -0.5129 H         1 RES1    0.0000
     68 C12B       6.8720    7.9618   -2.2836 C.ar      1 RES1    0.0000
     69 H7B        7.0567    8.7790   -2.6873 H         1 RES1    0.0000
     70 C13B       5.0701    1.9719    1.0344 C.3       1 RES1    0.0000
     71 H8B        5.2749    2.7975    1.5006 H         1 RES1    0.0000
     72 H9B        4.1078    1.9213    0.9226 H         1 RES1    0.0000
     73 C14B       5.5262    3.2328   -1.1558 C.3       1 RES1    0.0000
     74 H10B       5.9275    3.1320   -2.0331 H         1 RES1    0.0000
     75 H11B       4.5781    3.4043   -1.2677 H         1 RES1    0.0000
     76 C15B       4.7828   -0.6495    5.4090 C.3       1 RES1    0.0000
     77 H12B       4.7392    0.1940    5.8859 H         1 RES1    0.0000
     78 H13B       3.8740   -0.9469    5.2462 H         1 RES1    0.0000
     79 C17B       5.4824   -0.4338    4.0780 C.3       1 RES1    0.0000
     80 H15B       5.4548   -1.2622    3.5743 H         1 RES1    0.0000
     81 H16B       6.4143   -0.2237    4.2469 H         1 RES1    0.0000
     82 C18B       4.8784    0.6751    3.2278 C.3       1 RES1    0.0000
     83 H17B       3.9321    0.5011    3.1041 H         1 RES1    0.0000
     84 H18B       4.9667    1.5194    3.6970 H         1 RES1    0.0000
     85 C19B       5.5453    0.7897    1.8673 C.3       1 RES1    0.0000
     86 H19B       5.3799   -0.0268    1.3704 H         1 RES1    0.0000
     87 H20B       6.5036    0.8658    1.9964 H         1 RES1    0.0000
     88 C20B       5.7392    1.9846   -0.3361 C.3       1 RES1    0.0000
     89 H21B       6.6931    1.8598   -0.2116 H         1 RES1    0.0000
     90 H22B       5.4107    1.2260   -0.8436 H         1 RES1    0.0000
     91 C21B       5.4953   -1.6744    6.2736 C.3       1 RES1    0.0000
     92 H23B       5.5294   -2.5150    5.8111 H         1 RES1    0.0000
     93 H24B       5.0185   -1.7829    7.0998 H         1 RES1    0.0000
     94 H25B       6.3883   -1.3734    6.4566 H         1 RES1    0.0000
@<TRIPOS>BOND
     1    1    3 1
     2    2    8 1
     3    3   11 2
     4    4    5 ar
     5    5    6 1
     6    7    1 1
     7    8   12 ar
     8    9    7 2
     9   10    9 1
    10   11    4 1
    11   12    7 1
    12   13    4 ar
    13   14   13 1
    14   15   16 1
    15   17    8 ar
    16   18   17 1
    17   19   12 ar
    18   20   19 1
    19   21   15 ar
    20   22   21 1
    21   23   24 1
    22   25   23 1
    23   26    2 1
    24   27   26 1
    25   28   26 1
    26   29   30 1
    27   31   29 1
    28   32   13 ar
    29   33   32 1
    30   34   29 1
    31   35   34 1
    32   36   34 1
    33   37   34 1
    34   38   37 1
    35   39   37 1
    36   40   23 1
    37   41   40 1
    38   42   40 1
    39   43   23 1
    40   44   43 1
    41   45   43 1
    42   46   29 1
    43   47   46 1
    44   48   46 1
    45   49   46 1
    46   50   52 1
    47   51   55 1
    48   52   58 2
    49   53    5 ar
    50   54   50 1
    51   55   59 ar
    52   56   54 2
    53   57   56 1
    54   58   53 1
    55   59   54 1
    56   60   32 ar
    57   61   60 1
    58   62   63 1
    59   64   55 ar
    60   65   64 1
    61   66   59 ar
    62   67   66 1
    63   68   62 ar
    64   69   68 1
    65   70   71 1
    66   72   70 1
    67   73   51 1
    68   74   73 1
    69   75   73 1
    70   76   77 1
    71   78   76 1
    72   79   76 1
    73   80   79 1
    74   81   79 1
    75   82   79 1
    76   83   82 1
    77   84   82 1
    78   85   70 1
    79   86   85 1
    80   87   85 1
    81   88   70 1
    82   89   88 1
    83   90   88 1
    84   91   76 1
    85   92   91 1
    86   93   91 1
    87   94   91 1
    88    9   11 1
    89   15   17 ar
    90   19   21 ar
    91   26   43 1
    92   37   40 1
    93   53   60 ar
    94   56   58 1
    95   62   64 ar
    96   66   68 ar
    97   73   88 1
    98   82   85 1
@<TRIPOS>SUBSTRUCTURE
     1 RES1 1

@<TRIPOS>CRYSIN
  16.9960    9.0749   22.0280  90.0000  90.0000  90.0000  60 1

