# MOL2 file generated by ConQuest
# Please check atom types

@<TRIPOS>MOLECULE
PEXKEI
    68    74     2
SMALL
NO_CHARGES
****
Generated from CSD

@<TRIPOS>ATOM
      1 C1         6.1425   -1.2981    7.4870 C.ar      1 RES1    0.0000
      2 C2         7.2166   -1.0286    8.3088 C.ar      1 RES1    0.0000
      3 C3         7.5402    0.2578    8.6924 C.ar      1 RES1    0.0000
      4 C4         6.7357    1.2775    8.2596 C.ar      1 RES1    0.0000
      5 C5         5.6393    1.0385    7.4377 C.ar      1 RES1    0.0000
      6 C6         4.7431    2.1674    6.8956 C.3       1 RES1    0.0000
      7 C7         5.1209    2.3590    5.4331 C.ar      1 RES1    0.0000
      8 C8         6.0549    3.1987    4.8684 C.ar      1 RES1    0.0000
      9 C9         6.2433    3.1038    3.4911 C.ar      1 RES1    0.0000
     10 C10        5.5579    2.1808    2.7199 C.ar      1 RES1    0.0000
     11 C11        4.6292    1.3464    3.3193 C.ar      1 RES1    0.0000
     12 C12        4.4056    1.4387    4.6726 C.ar      1 RES1    0.0000
     13 C13        3.4966    0.6938    5.6236 C.3       1 RES1    0.0000
     14 C14        4.1690   -0.5918    6.1297 C.3       1 RES1    0.0000
     15 C15        5.3411   -0.2748    7.0341 C.ar      1 RES1    0.0000
     16 N1         3.3619    1.6616    6.7318 N.3       1 RES1    0.0000
     17 N2         8.0500   -2.1459    8.7830 N.pl3     1 RES1    0.0000
     18 O1         7.6579   -3.2766    8.5299 O.2       1 RES1    0.0000
     19 O2         9.0675   -1.9087    9.4104 O.2       1 RES1    0.0000
     20 C16        4.7583    3.4395    7.7121 C.3       1 RES1    0.0000
     21 C17        4.2060    3.0886   11.3937 C.ar      2 RES2    0.0000
     22 C18        5.4924    2.8272   11.7826 C.ar      2 RES2    0.0000
     23 C19        5.9954    1.5541   11.8279 C.ar      2 RES2    0.0000
     24 C20        5.1754    0.5210   11.4403 C.ar      2 RES2    0.0000
     25 C21        3.8693    0.7439   11.0141 C.ar      2 RES2    0.0000
     26 C22        2.9328   -0.3984   10.6225 C.3       2 RES2    0.0000
     27 C23        1.9807   -0.5828   11.8026 C.ar      2 RES2    0.0000
     28 C24        2.0647   -1.4422   12.8842 C.ar      2 RES2    0.0000
     29 C25        1.0754   -1.3912   13.8485 C.ar      2 RES2    0.0000
     30 C26        0.0272   -0.4888   13.7166 C.ar      2 RES2    0.0000
     31 C27       -0.0540    0.3823   12.6338 C.ar      2 RES2    0.0000
     32 C28        0.9261    0.3124   11.6654 C.ar      2 RES2    0.0000
     33 C29        1.1450    1.0644   10.3627 C.3       2 RES2    0.0000
     34 C30        1.9396    2.3419   10.5972 C.3       2 RES2    0.0000
     35 C31        3.3691    2.0591   11.0087 C.ar      2 RES2    0.0000
     36 N3         2.0321    0.1701    9.5702 N.3       2 RES2    0.0000
     37 N4         6.3622    3.9400   12.1689 N.pl3     2 RES2    0.0000
     38 O3         5.9219    5.0626   12.0051 O.2       2 RES2    0.0000
     39 O4         7.4529    3.7144   12.6471 O.2       2 RES2    0.0000
     40 C32        3.6090   -1.6669   10.1323 C.3       2 RES2    0.0000
     41 H1         5.9529   -2.2041    7.2313 H         1 RES1    0.0000
     42 H2         8.3060    0.4306    9.2452 H         1 RES1    0.0000
     43 H3         6.9345    2.1772    8.5286 H         1 RES1    0.0000
     44 H4         6.5541    3.8227    5.3998 H         1 RES1    0.0000
     45 H5         6.8659    3.6973    3.0649 H         1 RES1    0.0000
     46 H6         5.7255    2.1190    1.7769 H         1 RES1    0.0000
     47 H7         4.1482    0.7054    2.7918 H         1 RES1    0.0000
     48 H8         2.6642    0.4181    5.2293 H         1 RES1    0.0000
     49 H9         4.4823   -1.0994    5.3772 H         1 RES1    0.0000
     50 H10        3.5270   -1.1101    6.6186 H         1 RES1    0.0000
     51 H11        5.6610    3.7484    7.8080 H         1 RES1    0.0000
     52 H12        4.3837    3.2676    8.5806 H         1 RES1    0.0000
     53 H13        4.2352    4.1100    7.2659 H         1 RES1    0.0000
     54 H14        3.8810    3.9928   11.3910 H         2 RES2    0.0000
     55 H15        6.8931    1.3876   12.1209 H         2 RES2    0.0000
     56 H16        5.5145   -0.3778   11.4643 H         2 RES2    0.0000
     57 H17        2.7972   -2.0591   12.9627 H         2 RES2    0.0000
     58 H18        1.1135   -1.9767   14.6091 H         2 RES2    0.0000
     59 H19       -0.6597   -0.4673   14.3880 H         2 RES2    0.0000
     60 H20       -0.7724    1.0152   12.5632 H         2 RES2    0.0000
     61 H21        0.3068    1.2838    9.9485 H         2 RES2    0.0000
     62 H22        1.5129    2.8460   11.2938 H         2 RES2    0.0000
     63 H23        1.9457    2.8567    9.7873 H         2 RES2    0.0000
     64 H24        4.1802   -2.0116   10.8223 H         2 RES2    0.0000
     65 H25        4.1327   -1.4691    9.3518 H         2 RES2    0.0000
     66 H26        2.9414   -2.3214    9.9125 H         2 RES2    0.0000
     67 H27        2.9947    1.3267    7.4577 H         1 RES1    0.0000
     68 H28        1.5774   -0.5049    9.2399 H         2 RES2    0.0000
@<TRIPOS>BOND
     1    1    2 ar
     2    2    3 ar
     3    3    4 ar
     4    4    5 ar
     5    5    6 1
     6    6    7 1
     7    7    8 ar
     8    8    9 ar
     9    9   10 ar
    10   10   11 ar
    11   11   12 ar
    12   12    7 ar
    13   13   12 1
    14   14   13 1
    15   15    1 ar
    16   16    6 1
    17   17    2 1
    18   18   17 2
    19   19   17 2
    20   20    6 1
    21   21   22 ar
    22   22   23 ar
    23   23   24 ar
    24   24   25 ar
    25   25   26 1
    26   26   27 1
    27   27   28 ar
    28   28   29 ar
    29   29   30 ar
    30   30   31 ar
    31   31   32 ar
    32   32   27 ar
    33   33   32 1
    34   34   33 1
    35   35   21 ar
    36   36   26 1
    37   37   22 1
    38   38   37 2
    39   39   37 2
    40   40   26 1
    41   41    1 1
    42   42    3 1
    43   43    4 1
    44   44    8 1
    45   45    9 1
    46   46   10 1
    47   47   11 1
    48   48   13 1
    49   49   14 1
    50   50   14 1
    51   51   20 1
    52   52   20 1
    53   53   20 1
    54   54   21 1
    55   55   23 1
    56   56   24 1
    57   57   28 1
    58   58   29 1
    59   59   30 1
    60   60   31 1
    61   61   33 1
    62   62   34 1
    63   63   34 1
    64   64   40 1
    65   65   40 1
    66   66   40 1
    67   67   16 1
    68   68   36 1
    69    5   15 ar
    70   13   16 1
    71   14   15 1
    72   25   35 ar
    73   33   36 1
    74   34   35 1
@<TRIPOS>SUBSTRUCTURE
     1 RES1 1
     2 RES2 21

@<TRIPOS>CRYSIN
  22.3480    8.9524   14.8360  90.0000 116.1300  90.0000   5 1

