# MOL2 file generated by ConQuest
# Please check atom types

@<TRIPOS>MOLECULE
PEXROZ
    27    28     1
SMALL
NO_CHARGES
****
Generated from CSD

@<TRIPOS>ATOM
      1 O1         3.1138    1.1063   12.1685 O.2       1 RES1    0.0000
      2 O2         1.3222    1.7816   11.1798 O.2       1 RES1    0.0000
      3 O3         0.0695    2.1536    8.7565 O.2       1 RES1    0.0000
      4 O4         0.5865    4.2094    9.2851 O.2       1 RES1    0.0000
      5 O5         2.0971    0.9221    7.3246 O.2       1 RES1    0.0000
      6 O6         3.1024    0.6749    9.2347 O.2       1 RES1    0.0000
      7 O7         3.7511    3.3356    6.9316 O.2       1 RES1    0.0000
      8 O8         1.6671    3.9201    6.6841 O.2       1 RES1    0.0000
      9 N1         2.4663    1.9559   11.5784 N.pl3     1 RES1    0.0000
     10 N2         0.8543    3.0784    8.9397 N.pl3     1 RES1    0.0000
     11 N3         2.5213    1.3249    8.3971 N.pl3     1 RES1    0.0000
     12 N4         2.5979    3.4339    7.2994 N.pl3     1 RES1    0.0000
     13 C1         3.1076    3.3207   11.2721 C.3       1 RES1    0.0000
     14 C2         3.3471    3.3835    9.7172 C.3       1 RES1    0.0000
     15 C3         3.7534    4.8003    9.4039 C.2       1 RES1    0.0000
     16 C4         3.2859    5.8628   10.0486 C.2       1 RES1    0.0000
     17 C5         2.2630    5.7002   11.1127 C.ar      1 RES1    0.0000
     18 C6         1.3924    6.7487   11.4665 C.ar      1 RES1    0.0000
     19 C7         0.5701    6.5594   12.5712 C.ar      1 RES1    0.0000
     20 C8         0.6293    5.4156   13.3277 C.ar      1 RES1    0.0000
     21 C9         1.4342    4.3320   12.9655 C.ar      1 RES1    0.0000
     22 C10        2.2083    4.4560   11.7979 C.ar      1 RES1    0.0000
     23 C11        4.4649    3.3637   11.9517 C.3       1 RES1    0.0000
     24 C12        2.3315    2.8334    8.6922 C.3       1 RES1    0.0000
     25 C13        3.9393    7.2053    9.7997 C.3       1 RES1    0.0000
     26 C14        1.2251    8.0374   10.6862 C.3       1 RES1    0.0000
     27 C15        1.4134    3.1321   13.8898 C.3       1 RES1    0.0000
@<TRIPOS>BOND
     1    1    9 2
     2    2    9 2
     3    3   10 2
     4    4   10 2
     5    5   11 2
     6    6   11 2
     7    7   12 2
     8    8   12 2
     9    9   13 1
    10   10   24 1
    11   11   24 1
    12   12   24 1
    13   13   14 1
    14   14   15 1
    15   15   16 2
    16   16   17 1
    17   17   18 ar
    18   18   19 ar
    19   19   20 ar
    20   20   21 ar
    21   21   22 ar
    22   22   13 1
    23   23   13 1
    24   24   14 1
    25   25   16 1
    26   26   18 1
    27   27   21 1
    28   17   22 ar
@<TRIPOS>SUBSTRUCTURE
     1 RES1 1

@<TRIPOS>CRYSIN
   6.4040    9.5530   14.0800  83.7400  86.1200  75.7000   2 1

