# MOL2 file generated by ConQuest
# Please check atom types

@<TRIPOS>MOLECULE
PEYAEB
    28    30     1
SMALL
NO_CHARGES
****
Generated from CSD

@<TRIPOS>ATOM
      1 C1         1.3928    3.2754    3.9829 C.3       1 RES1    0.0000
      2 C2         0.6443    3.8048    5.1887 C.3       1 RES1    0.0000
      3 C3         2.4273    0.3387    5.5576 C.2       1 RES1    0.0000
      4 C4         2.1457   -0.7113    4.5218 C.3       1 RES1    0.0000
      5 C5         2.9592   -0.0389    6.8731 C.ar      1 RES1    0.0000
      6 C6         2.7107    0.7351    7.9914 C.ar      1 RES1    0.0000
      7 C7         3.2624    0.4353    9.2260 C.ar      1 RES1    0.0000
      8 C8         4.0525   -0.7075    9.3688 C.ar      1 RES1    0.0000
      9 C9         4.2909   -1.4890    8.2778 C.ar      1 RES1    0.0000
     10 C10        3.7564   -1.1855    7.0349 C.ar      1 RES1    0.0000
     11 C11        4.2777    4.5813    2.5708 C.2       1 RES1    0.0000
     12 C12        4.6426    5.6149    3.5661 C.3       1 RES1    0.0000
     13 C13        4.9894    4.4031    1.2784 C.ar      1 RES1    0.0000
     14 C14        4.3347    3.9101    0.1708 C.ar      1 RES1    0.0000
     15 C15        4.9802    3.7144   -1.0407 C.ar      1 RES1    0.0000
     16 C16        6.2682    4.0117   -1.1686 C.ar      1 RES1    0.0000
     17 C17        6.9694    4.4897   -0.1048 C.ar      1 RES1    0.0000
     18 C18        6.3477    4.7331    1.1587 C.ar      1 RES1    0.0000
     19 C19        0.6009    3.3895    2.7128 C.ar      1 RES1    0.0000
     20 C20        0.3678    4.6841    2.2184 C.ar      1 RES1    0.0000
     21 C21       -0.3810    4.8497    1.0622 C.ar      1 RES1    0.0000
     22 C22       -0.9166    3.7872    0.3937 C.ar      1 RES1    0.0000
     23 C23       -0.6929    2.4976    0.8814 C.ar      1 RES1    0.0000
     24 C24        0.0532    2.3195    2.0344 C.ar      1 RES1    0.0000
     25 O1         1.6816    1.8704    4.1083 O.3       1 RES1    0.0000
     26 O2         2.5923    4.0343    3.9491 O.3       1 RES1    0.0000
     27 N1         2.2344    1.6120    5.3909 N.2       1 RES1    0.0000
     28 N2         3.2664    3.7922    2.7301 N.2       1 RES1    0.0000
@<TRIPOS>BOND
     1    1    2 1
     2    3    4 1
     3    5    3 1
     4    6    5 ar
     5    7    6 ar
     6    8    7 ar
     7    9    8 ar
     8   10    5 ar
     9   11   12 1
    10   13   11 1
    11   14   13 ar
    12   15   14 ar
    13   16   15 ar
    14   17   16 ar
    15   18   13 ar
    16   19    1 1
    17   20   19 ar
    18   21   20 ar
    19   22   21 ar
    20   23   22 ar
    21   24   19 ar
    22   25    1 1
    23   26    1 1
    24   27    3 2
    25   28   11 2
    26    9   10 ar
    27   17   18 ar
    28   23   24 ar
    29   25   27 1
    30   26   28 1
@<TRIPOS>SUBSTRUCTURE
     1 RES1 1

@<TRIPOS>CRYSIN
  20.2530   12.9810    8.2530  90.0000  90.0000 104.9000   5 3

