# MOL2 file generated by ConQuest
# Please check atom types

@<TRIPOS>MOLECULE
PEYFAC
    35    36     1
SMALL
NO_CHARGES
****
Generated from CSD

@<TRIPOS>ATOM
      1 C1        -0.4645    4.6576    2.3148 C.ar      1 RES1    0.0000
      2 C2         0.7021    5.1361    1.7108 C.ar      1 RES1    0.0000
      3 C3         0.6828    6.2585    0.9058 C.ar      1 RES1    0.0000
      4 C4        -0.5017    6.9438    0.6844 C.ar      1 RES1    0.0000
      5 C5        -1.6730    6.4947    1.2681 C.ar      1 RES1    0.0000
      6 C6        -1.6400    5.3685    2.0656 C.ar      1 RES1    0.0000
      7 C7        -0.5516    3.5056    3.2198 C.2       1 RES1    0.0000
      8 C8         0.3348    2.5413    3.5141 C.2       1 RES1    0.0000
      9 C9         1.7007    2.5050    2.8982 C.2       1 RES1    0.0000
     10 C10        0.0521    1.4659    4.4936 C.ar      1 RES1    0.0000
     11 C11       -1.2370    1.2499    4.9993 C.ar      1 RES1    0.0000
     12 C12       -1.4880    0.2495    5.9127 C.ar      1 RES1    0.0000
     13 C13       -0.4446   -0.5486    6.3351 C.ar      1 RES1    0.0000
     14 C14        0.8356   -0.3731    5.8707 C.ar      1 RES1    0.0000
     15 C15        1.0765    0.6290    4.9495 C.ar      1 RES1    0.0000
     16 C16       -1.5340    8.9520   -0.1541 C.3       1 RES1    0.0000
     17 N1        -0.7047   -1.6164    7.3055 N.pl3     1 RES1    0.0000
     18 O1         0.2066   -2.3897    7.5769 O.2       1 RES1    0.0000
     19 O2        -1.8190   -1.6906    7.7955 O.2       1 RES1    0.0000
     20 O3         1.6975    1.9588    1.6924 O.3       1 RES1    0.0000
     21 O4         2.6906    2.9161    3.4431 O.2       1 RES1    0.0000
     22 O5        -0.4124    8.0543   -0.1165 O.3       1 RES1    0.0000
     23 H1         2.5154    1.9622    1.3461 H         1 RES1    0.0000
     24 H2         1.5673    4.7160    1.8588 H         1 RES1    0.0000
     25 H3         1.5192    6.5885    0.5230 H         1 RES1    0.0000
     26 H4        -2.5112    6.9449    1.1395 H         1 RES1    0.0000
     27 H5        -2.4319    5.0644    2.4681 H         1 RES1    0.0000
     28 H6        -1.4003    3.4782    3.6837 H         1 RES1    0.0000
     29 H7        -1.9640    1.8015    4.6947 H         1 RES1    0.0000
     30 H8        -2.3572    0.0913    6.2309 H         1 RES1    0.0000
     31 H9         1.5650   -0.9300    6.1898 H         1 RES1    0.0000
     32 H10        2.0099    0.7337    4.6208 H         1 RES1    0.0000
     33 H11       -1.2552    9.7100   -0.6473 H         1 RES1    0.0000
     34 H12       -1.8023    9.2208    0.7912 H         1 RES1    0.0000
     35 H13       -2.3194    8.5140   -0.5446 H         1 RES1    0.0000
@<TRIPOS>BOND
     1    1    2 ar
     2    2    3 ar
     3    3    4 ar
     4    4    5 ar
     5    5    6 ar
     6    6    1 ar
     7    7    1 1
     8    8    7 2
     9    9    8 1
    10   10    8 1
    11   11   10 ar
    12   12   11 ar
    13   13   12 ar
    14   14   13 ar
    15   15   10 ar
    16   16   22 1
    17   17   13 1
    18   18   17 2
    19   19   17 2
    20   20    9 1
    21   21    9 2
    22   22    4 1
    23   23   20 1
    24   24    2 1
    25   25    3 1
    26   26    5 1
    27   27    6 1
    28   28    7 1
    29   29   11 1
    30   30   12 1
    31   31   14 1
    32   32   15 1
    33   33   16 1
    34   34   16 1
    35   35   16 1
    36   14   15 ar
@<TRIPOS>SUBSTRUCTURE
     1 RES1 1

@<TRIPOS>CRYSIN
   6.5697   10.6569   11.0720 101.1920 104.4860 106.4090   2 1

