# MOL2 file generated by ConQuest
# Please check atom types

@<TRIPOS>MOLECULE
PEYGOR
    35    37     1
SMALL
NO_CHARGES
****
Generated from CSD

@<TRIPOS>ATOM
      1 O1         3.3943   14.3510    2.0644 O.3       1 RES1    0.0000
      2 N1         3.7576   14.2049    4.6494 N.3       1 RES1    0.0000
      3 C1         4.4457   13.3399    3.9665 C.ar      1 RES1    0.0000
      4 O2         4.0362   14.2291    6.0064 O.3       1 RES1    0.0000
      5 C2         4.0524   13.4104    2.5051 C.ar      1 RES1    0.0000
      6 O3         1.6758   13.2312    6.7737 O.2       1 RES1    0.0000
      7 C3         4.4875   12.3242    1.6419 C.ar      1 RES1    0.0000
      8 H1         4.2137   12.3098    0.7322 H         1 RES1    0.0000
      9 C4         5.2715   11.3428    2.1150 C.ar      1 RES1    0.0000
     10 H2         5.5216   10.6398    1.5261 H         1 RES1    0.0000
     11 C5         5.7574   11.3017    3.4865 C.ar      1 RES1    0.0000
     12 C6         6.5690   10.2462    3.8903 C.ar      1 RES1    0.0000
     13 H3         6.7872    9.5613    3.2693 H         1 RES1    0.0000
     14 C7         7.0614   10.1780    5.1749 C.ar      1 RES1    0.0000
     15 H4         7.5974    9.4417    5.4430 H         1 RES1    0.0000
     16 C8         6.7702   11.1924    6.0747 C.ar      1 RES1    0.0000
     17 H5         7.1328   11.1617    6.9516 H         1 RES1    0.0000
     18 C9         5.9535   12.2500    5.7029 C.ar      1 RES1    0.0000
     19 H6         5.7622   12.9383    6.3291 H         1 RES1    0.0000
     20 C10        5.4082   12.3153    4.4175 C.ar      1 RES1    0.0000
     21 C11        3.1086   15.1254    6.6331 C.3       1 RES1    0.0000
     22 H7         2.9233   15.8847    6.0251 H         1 RES1    0.0000
     23 H8         3.5114   15.4890    7.4613 H         1 RES1    0.0000
     24 C12        1.8087   14.4245    6.9714 C.2       1 RES1    0.0000
     25 C13        0.7090   15.2465    7.5451 C.ar      1 RES1    0.0000
     26 C14       -0.4483   14.6020    7.9878 C.ar      1 RES1    0.0000
     27 H9        -0.5087   13.6559    7.9360 H         1 RES1    0.0000
     28 C15       -1.5027   15.3270    8.4983 C.ar      1 RES1    0.0000
     29 H10       -2.2840   14.8801    8.8015 H         1 RES1    0.0000
     30 C16       -1.4234   16.7069    8.5707 C.ar      1 RES1    0.0000
     31 H11       -2.1490   17.2046    8.9272 H         1 RES1    0.0000
     32 C17       -0.2866   17.3634    8.1242 C.ar      1 RES1    0.0000
     33 H12       -0.2385   18.3115    8.1684 H         1 RES1    0.0000
     34 C18        0.7827   16.6393    7.6122 C.ar      1 RES1    0.0000
     35 H13        1.5616   17.0894    7.3082 H         1 RES1    0.0000
@<TRIPOS>BOND
     1    1    5 1
     2    2    3 1
     3    3    5 ar
     4    4    2 1
     5    5    7 ar
     6    6   24 2
     7    7    8 1
     8    9    7 ar
     9   10    9 1
    10   11    9 ar
    11   12   11 ar
    12   13   12 1
    13   14   12 ar
    14   15   14 1
    15   16   14 ar
    16   17   16 1
    17   18   16 ar
    18   19   18 1
    19   20    3 ar
    20   21    4 1
    21   22   21 1
    22   23   21 1
    23   24   21 1
    24   25   24 1
    25   26   25 ar
    26   27   26 1
    27   28   26 ar
    28   29   28 1
    29   30   28 ar
    30   31   30 1
    31   32   30 ar
    32   33   32 1
    33   34   25 ar
    34   35   34 1
    35   11   20 ar
    36   18   20 ar
    37   32   34 ar
@<TRIPOS>SUBSTRUCTURE
     1 RES1 1

@<TRIPOS>CRYSIN
   8.2811   21.7450    7.6197  90.0000  90.7550  90.0000  14 1

