# MOL2 file generated by ConQuest
# Please check atom types

@<TRIPOS>MOLECULE
PEYPUE
    16    17     1
SMALL
NO_CHARGES
****
Generated from CSD

@<TRIPOS>ATOM
      1 O1         2.4522    3.4005    0.3447 O.2       1 RES1    0.0000
      2 N1         2.1918    3.2233    1.5728 N.3       1 RES1    0.0000
      3 N2         1.1833    3.5185    3.5541 N.2       1 RES1    0.0000
      4 N3        -0.8405    6.9944    2.2745 N.ar      1 RES1    0.0000
      5 N4         0.7030    7.1703    0.4815 N.ar      1 RES1    0.0000
      6 C1         1.3501    3.9911    2.3766 C.2       1 RES1    0.0000
      7 C2         2.8849    2.2217    2.4346 C.3       1 RES1    0.0000
      8 C3         1.8778    2.1861    3.6140 C.3       1 RES1    0.0000
      9 C4         4.2335    2.8546    2.8037 C.3       1 RES1    0.0000
     10 C5         3.0957    0.9370    1.6646 C.3       1 RES1    0.0000
     11 C6         0.7695    1.1439    3.4314 C.3       1 RES1    0.0000
     12 C7         2.5269    2.0226    4.9789 C.3       1 RES1    0.0000
     13 C8         0.7608    5.2634    1.9110 C.ar      1 RES1    0.0000
     14 C9        -0.3007    5.8223    2.6183 C.ar      1 RES1    0.0000
     15 C10       -0.3230    7.5906    1.2262 C.ar      1 RES1    0.0000
     16 C11        1.2467    5.9992    0.8562 C.ar      1 RES1    0.0000
@<TRIPOS>BOND
     1    1    2 1
     2    2    6 1
     3    3    6 2
     4    4   14 ar
     5    5   15 ar
     6    6   13 1
     7    7    2 1
     8    8    3 1
     9    9    7 1
    10   10    7 1
    11   11    8 1
    12   12    8 1
    13   13   14 ar
    14   15    4 ar
    15   16    5 ar
    16    7    8 1
    17   13   16 ar
@<TRIPOS>SUBSTRUCTURE
     1 RES1 1

@<TRIPOS>CRYSIN
   6.8880    8.9940    9.4690  91.5600  98.2700  88.9600   2 1

