# MOL2 file generated by ConQuest
# Please check atom types

@<TRIPOS>MOLECULE
PEYPUA
    17    18     1
SMALL
NO_CHARGES
****
Generated from CSD

@<TRIPOS>ATOM
      1 C1        13.8553    2.6784    0.4783 C.2       1 RES1    0.0000
      2 C2        16.2180    2.7167    0.6127 C.3       1 RES1    0.0000
      3 C3        15.7564    3.6964   -0.4998 C.3       1 RES1    0.0000
      4 C4        17.2361    1.6694    0.1946 C.3       1 RES1    0.0000
      5 C5        16.7088    3.4118    1.8969 C.3       1 RES1    0.0000
      6 C6        16.2855    5.1068   -0.3862 C.3       1 RES1    0.0000
      7 C7        15.9644    3.1473   -1.9169 C.3       1 RES1    0.0000
      8 C8        12.4741    2.3299    0.7472 C.ar      1 RES1    0.0000
      9 C9        11.4524    3.2768    0.7330 C.ar      1 RES1    0.0000
     10 C10        9.9837    1.6493    1.2945 C.ar      1 RES1    0.0000
     11 C11       12.1110    1.0217    1.0309 C.ar      1 RES1    0.0000
     12 O1        14.9153    1.0564    1.7788 O.2       1 RES1    0.0000
     13 O2        13.5250    4.5503   -0.8719 O.2       1 RES1    0.0000
     14 N1        14.9317    2.0434    0.9559 N.pl3     1 RES1    0.0000
     15 N2        14.2767    3.7001   -0.2726 N.pl3     1 RES1    0.0000
     16 N3        10.1971    2.9484    1.0331 N.ar      1 RES1    0.0000
     17 N4        10.8540    0.6696    1.3131 N.ar      1 RES1    0.0000
@<TRIPOS>BOND
     1    1    8 1
     2    2    3 1
     3    3    6 1
     4    4    2 1
     5    5    2 1
     6    7    3 1
     7    8    9 ar
     8    9   16 ar
     9   10   16 ar
    10   11    8 ar
    11   12   14 1
    12   13   15 2
    13   14    1 2
    14   15    1 1
    15   17   10 ar
    16    2   14 1
    17    3   15 1
    18   11   17 ar
@<TRIPOS>SUBSTRUCTURE
     1 RES1 1

@<TRIPOS>CRYSIN
  18.2450   18.2450    7.4270  90.0000  90.0000  90.0000 106 1

