# MOL2 file generated by ConQuest
# Please check atom types

@<TRIPOS>MOLECULE
PEYQOA
    86    88     2
SMALL
NO_CHARGES
****
Generated from CSD

@<TRIPOS>ATOM
      1 C1         7.3689    7.5742   26.1344 C.ar      1 RES1    0.0000
      2 C2         6.2095    8.0014   25.5537 C.ar      1 RES1    0.0000
      3 H1         5.8804    8.8828   25.6833 H         1 RES1    0.0000
      4 C3         5.5286    7.0651   24.7551 C.ar      1 RES1    0.0000
      5 H2         4.7190    7.3320   24.3351 H         1 RES1    0.0000
      6 C4         5.9787    5.7833   24.5503 C.ar      1 RES1    0.0000
      7 C5         7.1533    5.4077   25.1829 C.ar      1 RES1    0.0000
      8 H3         7.4710    4.5174   25.0870 H         1 RES1    0.0000
      9 C6         7.8663    6.2938   25.9503 C.ar      1 RES1    0.0000
     10 H4         8.6891    6.0338   26.3470 H         1 RES1    0.0000
     11 C7         5.2297    4.9013   23.6610 C.2       1 RES1    0.0000
     12 H5         4.3502    5.1751   23.4302 H         1 RES1    0.0000
     13 C8         5.6572    3.7386   23.1295 C.2       1 RES1    0.0000
     14 H6         6.5367    3.4331   23.3187 H         1 RES1    0.0000
     15 C9         4.7947    2.9495   22.2765 C.2       1 RES1    0.0000
     16 H7         3.9133    3.2756   22.1391 H         1 RES1    0.0000
     17 C10        5.1200    1.7971   21.6568 C.2       1 RES1    0.0000
     18 H8         4.4524    1.4200   21.0968 H         1 RES1    0.0000
     19 C11        6.3665    1.0678   21.7398 C.2       1 RES1    0.0000
     20 H9         7.0909    1.4469   22.2246 H         1 RES1    0.0000
     21 C12        6.5310   -0.1328   21.1538 C.2       1 RES1    0.0000
     22 H10        5.7896   -0.4458   20.6483 H         1 RES1    0.0000
     23 C13        7.6810   -1.0134   21.1850 C.ar      1 RES1    0.0000
     24 C14        7.6318   -2.2312   20.4901 C.ar      1 RES1    0.0000
     25 H11        6.8355   -2.4568   20.0234 H         1 RES1    0.0000
     26 C15        8.6815   -3.1070   20.4564 C.ar      1 RES1    0.0000
     27 H12        8.6078   -3.9223   19.9742 H         1 RES1    0.0000
     28 C16        9.8485   -2.7981   21.1305 C.ar      1 RES1    0.0000
     29 C17        9.9355   -1.5927   21.8409 C.ar      1 RES1    0.0000
     30 H13       10.7299   -1.3739   22.3180 H         1 RES1    0.0000
     31 C18        8.8744   -0.7348   21.8461 C.ar      1 RES1    0.0000
     32 H14        8.9520    0.0860   22.3206 H         1 RES1    0.0000
     33 C19       10.9115   -4.7850   20.3527 C.3       1 RES1    0.0000
     34 H15       10.7337   -4.5504   19.4090 H         1 RES1    0.0000
     35 H16       10.1757   -5.3657   20.6716 H         1 RES1    0.0000
     36 C20       12.2241   -5.5123   20.4642 C.3       1 RES1    0.0000
     37 H17       12.9372   -4.9570   20.0882 H         1 RES1    0.0000
     38 H18       12.1712   -6.3571   19.9716 H         1 RES1    0.0000
     39 H19       12.4151   -5.6966   21.4079 H         1 RES1    0.0000
     40 C21       11.1782   -3.8597   -0.7882 C.ar      2 RES2    0.0000
     41 C22       12.2903   -4.3110   -0.0933 C.ar      2 RES2    0.0000
     42 H20       12.5910   -5.2075   -0.1841 H         2 RES2    0.0000
     43 C23       12.9523   -3.4125    0.7441 C.ar      2 RES2    0.0000
     44 H21       13.7353   -3.6946    1.2004 H         2 RES2    0.0000
     45 C24       12.5022   -2.1472    0.9178 C.ar      2 RES2    0.0000
     46 C25       11.3995   -1.7021    0.1737 C.ar      2 RES2    0.0000
     47 H22       11.1139   -0.7988    0.2437 H         2 RES2    0.0000
     48 C26       10.7242   -2.5772   -0.6637 C.ar      2 RES2    0.0000
     49 H23        9.9563   -2.2897   -1.1460 H         2 RES2    0.0000
     50 C27       13.2247   -1.2398    1.8253 C.2       2 RES2    0.0000
     51 H24       14.1098   -1.4971    2.0508 H         2 RES2    0.0000
     52 C28       12.7878   -0.0922    2.3775 C.2       2 RES2    0.0000
     53 H25       11.9328    0.2339    2.1208 H         2 RES2    0.0000
     54 C29       13.5386    0.6570    3.3238 C.2       2 RES2    0.0000
     55 H26       14.3917    0.3068    3.5468 H         2 RES2    0.0000
     56 C30       13.1887    1.8019    3.9409 C.2       2 RES2    0.0000
     57 H27       13.8072    2.1287    4.5839 H         2 RES2    0.0000
     58 C31       12.0028    2.5944    3.7568 C.2       2 RES2    0.0000
     59 H28       11.3087    2.2725    3.1942 H         2 RES2    0.0000
     60 C32       11.8553    3.8060    4.3791 C.2       2 RES2    0.0000
     61 H29       12.5684    4.0826    4.9417 H         2 RES2    0.0000
     62 C33       10.7318    4.7100    4.2702 C.ar      2 RES2    0.0000
     63 C34       10.7715    5.8858    5.0039 C.ar      2 RES2    0.0000
     64 H30       11.5375    6.0565    5.5406 H         2 RES2    0.0000
     65 C35        9.7483    6.8298    4.9909 C.ar      2 RES2    0.0000
     66 H31        9.8220    7.6361    5.4862 H         2 RES2    0.0000
     67 C36        8.6210    6.5608    4.2339 C.ar      2 RES2    0.0000
     68 C37        8.5491    5.3960    3.4768 C.ar      2 RES2    0.0000
     69 H32        7.7718    5.2171    2.9609 H         2 RES2    0.0000
     70 C38        9.5818    4.5105    3.4638 C.ar      2 RES2    0.0000
     71 H33        9.5308    3.7434    2.9064 H         2 RES2    0.0000
     72 C39        7.5524    8.5814    4.9572 C.3       2 RES2    0.0000
     73 H34        8.2919    9.1697    4.6617 H         2 RES2    0.0000
     74 H35        7.7037    8.3461    5.9088 H         2 RES2    0.0000
     75 C40        6.2530    9.2839    4.8069 C.3       2 RES2    0.0000
     76 H36        6.2832    9.8604    4.0135 H         2 RES2    0.0000
     77 H37        6.0827    9.8308    5.6028 H         2 RES2    0.0000
     78 H38        5.5361    8.6248    4.7032 H         2 RES2    0.0000
     79 N1         8.1406    8.5326   26.9511 N.pl3     1 RES1    0.0000
     80 N2        10.4386   -4.8181   -1.6256 N.pl3     2 RES2    0.0000
     81 O1         7.5902    9.5893   27.2519 O.2       1 RES1    0.0000
     82 O2         9.2660    8.2133   27.3141 O.2       1 RES1    0.0000
     83 O3        10.9701   -3.6024   21.1435 O.3       1 RES1    0.0000
     84 O4        10.9720   -5.8604   -1.9212 O.2       2 RES2    0.0000
     85 O5         9.3038   -4.4775   -1.9964 O.2       2 RES2    0.0000
     86 O6         7.5202    7.3974    4.1587 O.3       2 RES2    0.0000
@<TRIPOS>BOND
     1    1    2 ar
     2    2    3 1
     3    4    2 ar
     4    5    4 1
     5    6    4 ar
     6    7    6 ar
     7    8    7 1
     8    9    1 ar
     9   10    9 1
    10   11    6 1
    11   12   11 1
    12   13   11 2
    13   14   13 1
    14   15   13 1
    15   16   15 1
    16   17   15 2
    17   18   17 1
    18   19   17 1
    19   20   19 1
    20   21   19 2
    21   22   21 1
    22   23   21 1
    23   24   23 ar
    24   25   24 1
    25   26   24 ar
    26   27   26 1
    27   28   26 ar
    28   29   28 ar
    29   30   29 1
    30   31   23 ar
    31   32   31 1
    32   33   34 1
    33   35   33 1
    34   36   33 1
    35   37   36 1
    36   38   36 1
    37   39   36 1
    38   40   41 ar
    39   41   42 1
    40   43   41 ar
    41   44   43 1
    42   45   43 ar
    43   46   45 ar
    44   47   46 1
    45   48   40 ar
    46   49   48 1
    47   50   45 1
    48   51   50 1
    49   52   50 2
    50   53   52 1
    51   54   52 1
    52   55   54 1
    53   56   54 2
    54   57   56 1
    55   58   56 1
    56   59   58 1
    57   60   58 2
    58   61   60 1
    59   62   60 1
    60   63   62 ar
    61   64   63 1
    62   65   63 ar
    63   66   65 1
    64   67   65 ar
    65   68   67 ar
    66   69   68 1
    67   70   62 ar
    68   71   70 1
    69   72   73 1
    70   74   72 1
    71   75   72 1
    72   76   75 1
    73   77   75 1
    74   78   75 1
    75   79    1 1
    76   80   40 1
    77   81   79 2
    78   82   79 2
    79   83   28 1
    80   84   80 2
    81   85   80 2
    82   86   67 1
    83    7    9 ar
    84   29   31 ar
    85   33   83 1
    86   46   48 ar
    87   68   70 ar
    88   72   86 1
@<TRIPOS>SUBSTRUCTURE
     1 RES1 1
     2 RES2 40

@<TRIPOS>CRYSIN
  18.9140    6.8800   25.9270  90.0000  90.0000  90.0000  29 1

