# MOL2 file generated by ConQuest
# Please check atom types

@<TRIPOS>MOLECULE
PEYRER
    62    64     2
SMALL
NO_CHARGES
****
Generated from CSD

@<TRIPOS>ATOM
      1 O1         6.6375    1.5315    6.3183 O.2       1 RES1    0.0000
      2 O2         8.5558    0.9908    4.3698 O.3       1 RES1    0.0000
      3 H1         8.2776    0.2265    4.0557 H         1 RES1    0.0000
      4 O3        10.6931   -0.3836    5.5882 O.2       1 RES1    0.0000
      5 O4         6.3354    1.8613    9.7494 O.2       1 RES1    0.0000
      6 O5         5.5781   -0.2371   10.1665 O.3       1 RES1    0.0000
      7 N1         8.6962    0.7289    5.7199 N.am      1 RES1    0.0000
      8 N2         7.3041    0.0113    8.8131 N.am      1 RES1    0.0000
      9 H2         7.1636   -0.8068    8.7112 H         1 RES1    0.0000
     10 C1         7.7126    1.0637    6.6153 C.2       1 RES1    0.0000
     11 C2         8.2527    0.7502    8.0022 C.3       1 RES1    0.0000
     12 H3         8.4612    1.6121    8.4640 H         1 RES1    0.0000
     13 C3         9.5767    0.0042    7.7404 C.3       1 RES1    0.0000
     14 H4        10.3252    0.4466    8.2142 H         1 RES1    0.0000
     15 H5         9.5143   -0.9342    8.0489 H         1 RES1    0.0000
     16 C4         9.7885    0.0587    6.2482 C.2       1 RES1    0.0000
     17 C5         6.4036    0.6490    9.5789 C.2       1 RES1    0.0000
     18 C6         4.7296    0.2682   11.2218 C.3       1 RES1    0.0000
     19 H6         3.9310   -0.3114   11.3070 H         1 RES1    0.0000
     20 H7         4.4223    1.1797   10.9869 H         1 RES1    0.0000
     21 C7         5.4579    0.3107   12.5394 C.ar      1 RES1    0.0000
     22 C8         4.8914    1.0297   13.6007 C.ar      1 RES1    0.0000
     23 H8         4.0767    1.5003   13.4682 H         1 RES1    0.0000
     24 C9         5.5101    1.0601   14.8455 C.ar      1 RES1    0.0000
     25 H9         5.1235    1.5562   15.5578 H         1 RES1    0.0000
     26 C10        6.6953    0.3631   15.0444 C.ar      1 RES1    0.0000
     27 H10        7.1216    0.3793   15.8935 H         1 RES1    0.0000
     28 C11        7.2531   -0.3560   14.0021 C.ar      1 RES1    0.0000
     29 H11        8.0612   -0.8358   14.1396 H         1 RES1    0.0000
     30 C12        6.6410   -0.3822   12.7561 C.ar      1 RES1    0.0000
     31 H12        7.0348   -0.8775   12.0473 H         1 RES1    0.0000
     32 O6         3.7098    3.0006    7.2992 O.2       2 RES2    0.0000
     33 O7         5.9187    4.2335    8.5528 O.3       2 RES2    0.0000
     34 H13        6.0554    3.4960    8.8361 H         2 RES2    0.0000
     35 O8         7.6852    5.1124    6.5876 O.2       2 RES2    0.0000
     36 O9         7.7129    5.8237    3.2000 O.2       2 RES2    0.0000
     37 O10        8.6274    3.8697    2.4882 O.3       2 RES2    0.0000
     38 N3         5.7014    4.1294    7.1961 N.am      2 RES2    0.0000
     39 N4         7.0021    3.8074    4.0047 N.am      2 RES2    0.0000
     40 H14        7.2241    3.0006    4.0622 H         2 RES2    0.0000
     41 C13        4.5944    3.5038    6.6464 C.2       2 RES2    0.0000
     42 C14        4.7618    3.5654    5.1513 C.3       2 RES2    0.0000
     43 H15        3.9754    3.9950    4.7297 H         2 RES2    0.0000
     44 H16        4.8680    2.6560    4.7739 H         2 RES2    0.0000
     45 C15        6.0325    4.4040    4.9109 C.3       2 RES2    0.0000
     46 H17        5.7614    5.2950    4.5462 H         2 RES2    0.0000
     47 C16        6.6210    4.6064    6.2985 C.2       2 RES2    0.0000
     48 C17        7.7823    4.5972    3.2438 C.2       2 RES2    0.0000
     49 C18        9.3969    4.5979    1.4739 C.3       2 RES2    0.0000
     50 H18       10.2894    4.1811    1.3740 H         2 RES2    0.0000
     51 H19        9.5265    5.5342    1.7670 H         2 RES2    0.0000
     52 C19        8.6843    4.5816    0.1492 C.ar      2 RES2    0.0000
     53 C20        9.2751    3.9681   -0.9608 C.ar      2 RES2    0.0000
     54 H20       10.1322    3.5682   -0.8718 H         2 RES2    0.0000
     55 C21        8.6303    3.9341   -2.1879 C.ar      2 RES2    0.0000
     56 H21        9.0443    3.5144   -2.9328 H         2 RES2    0.0000
     57 C22        7.3806    4.5144   -2.3220 C.ar      2 RES2    0.0000
     58 H22        6.9282    4.4776   -3.1566 H         2 RES2    0.0000
     59 C23        6.7873    5.1513   -1.2360 C.ar      2 RES2    0.0000
     60 H23        5.9382    5.5654   -1.3376 H         2 RES2    0.0000
     61 C24        7.4282    5.1839   -0.0065 C.ar      2 RES2    0.0000
     62 H24        7.0147    5.6149    0.7325 H         2 RES2    0.0000
@<TRIPOS>BOND
     1    1   10 2
     2    2    3 1
     3    4   16 2
     4    5   17 2
     5    6   17 1
     6    7    2 1
     7    8    9 1
     8   10    7 1
     9   11    8 1
    10   12   11 1
    11   13   11 1
    12   14   13 1
    13   15   13 1
    14   16    7 1
    15   17    8 1
    16   18    6 1
    17   19   18 1
    18   20   18 1
    19   21   18 1
    20   22   21 ar
    21   23   22 1
    22   24   22 ar
    23   25   24 1
    24   26   24 ar
    25   27   26 1
    26   28   26 ar
    27   29   28 1
    28   30   21 ar
    29   31   30 1
    30   32   41 2
    31   33   34 1
    32   35   47 2
    33   36   48 2
    34   37   48 1
    35   38   33 1
    36   39   40 1
    37   41   38 1
    38   42   41 1
    39   43   42 1
    40   44   42 1
    41   45   39 1
    42   46   45 1
    43   47   38 1
    44   48   39 1
    45   49   37 1
    46   50   49 1
    47   51   49 1
    48   52   49 1
    49   53   52 ar
    50   54   53 1
    51   55   53 ar
    52   56   55 1
    53   57   55 ar
    54   58   57 1
    55   59   57 ar
    56   60   59 1
    57   61   52 ar
    58   62   61 1
    59   10   11 1
    60   13   16 1
    61   28   30 ar
    62   42   45 1
    63   45   47 1
    64   59   61 ar
@<TRIPOS>SUBSTRUCTURE
     1 RES1 1
     2 RES2 32

@<TRIPOS>CRYSIN
  12.9100    7.0770   14.0010  90.0000 111.6700  90.0000   4 1

