# MOL2 file generated by ConQuest
# Please check atom types

@<TRIPOS>MOLECULE
PEYSOB
    49    35     2
SMALL
NO_CHARGES
****
Generated from CSD

@<TRIPOS>ATOM
      1 C1         1.3441    6.6712    2.8728 C.3       1 RES1    0.0000
      2 C2         1.7625    4.3364    3.5623 C.3       1 RES1    0.0000
      3 C3        -0.5799    5.3023    3.6045 C.3       1 RES1    0.0000
      4 C4         0.7566    5.2577    2.8643 C.3       1 RES1    0.0000
      5 C5         0.5808    4.8232    1.3926 C.2       1 RES1    0.0000
      6 O1         1.0298    5.5354    0.4862 O.2       1 RES1    0.0000
      7 N1        -0.0153    3.6688    1.0773 N.am      1 RES1    0.0000
      8 C6        -0.6754    2.6495    1.9000 C.3       1 RES1    0.0000
      9 C7        -0.5942    1.4146    1.0385 C.3       1 RES1    0.0000
     10 C8        -0.8282    1.9613   -0.3591 C.3       1 RES1    0.0000
     11 C9        -0.0630    3.3029   -0.3540 C.3       1 RES1    0.0000
     12 C10       -0.8282    4.3506   -1.1245 C.2       1 RES1    0.0000
     13 O2        -1.8571    4.8515   -0.7047 O.2       1 RES1    0.0000
     14 N2        -0.3535    4.6751   -2.3501 N.am      1 RES1    0.0000
     15 O3         0.9008    4.2112   -2.7548 O.3       1 RES1    0.0000
     16 C11       -0.8540    5.7684   -3.1257 C.3       1 RES1    0.0000
     17 C12       -0.0535    7.0502   -3.0329 C.2       1 RES1    0.0000
     18 O4        -0.1586    7.8800   -3.9332 O.2       1 RES1    0.0000
     19 N3         0.7337    7.2222   -1.9843 N.am      1 RES1    0.0000
     20 C13        1.5552    8.4245   -1.8056 C.3       1 RES1    0.0000
     21 C14        0.7595    9.5669   -1.2425 C.3       1 RES1    0.0000
     22 C15        2.7704    8.0793   -0.9761 C.3       1 RES1    0.0000
     23 H1         0.7642    7.1330    2.3940 H         1 RES1    0.0000
     24 H2         2.6462    4.5302    3.1695 H         1 RES1    0.0000
     25 H3        -0.4394    5.7173    4.5856 H         1 RES1    0.0000
     26 H4        -0.2484    2.5918    2.7649 H         1 RES1    0.0000
     27 H5         0.3248    1.0454    1.1464 H         1 RES1    0.0000
     28 H6        -1.8533    2.1998   -0.3878 H         1 RES1    0.0000
     29 H7         0.7833    3.2888   -0.6069 H         1 RES1    0.0000
     30 H8        -1.4712    5.5539   -3.5404 H         1 RES1    0.0000
     31 H9         1.7960    8.6793   -2.7312 H         1 RES1    0.0000
     32 H10        0.6401    9.3001   -0.2866 H         1 RES1    0.0000
     33 H11        3.2576    8.8427   -0.7755 H         1 RES1    0.0000
     34 H12        0.6592    6.6102   -1.1633 H         1 RES1    0.0000
     35 H13        0.8025    3.4412   -3.4224 H         1 RES1    0.0000
     36 C16        2.1494    6.6538    2.3603 Du        2 SUP2    0.0000
     37 C17        1.6240    6.8934    3.6753 Du        2 SUP2    0.0000
     38 C18        1.8533    4.7589    4.4171 Du        2 SUP2    0.0000
     39 C19        1.6240    3.6046    3.4898 Du        2 SUP2    0.0000
     40 C20       -0.9649    4.6609    3.7427 Du        2 SUP2    0.0000
     41 C21       -1.3279    5.7717    3.1189 Du        2 SUP2    0.0000
     42 C22       -1.6527    2.9512    2.1580 Du        2 SUP2    0.0000
     43 C23       -1.2419    0.6207    1.3487 Du        2 SUP2    0.0000
     44 C24       -0.4203    1.5028   -1.1127 Du        2 SUP2    0.0000
     45 C25       -1.4903    6.0548   -1.8376 Du        2 SUP2    0.0000
     46 C26        0.0382    9.5941   -1.7702 Du        2 SUP2    0.0000
     47 C27        1.3661   10.4108   -1.1801 Du        2 SUP2    0.0000
     48 C28        2.4169    7.8190   -0.1517 Du        2 SUP2    0.0000
     49 C29        3.1811    7.5250   -1.3319 Du        2 SUP2    0.0000
@<TRIPOS>BOND
     1    1    4 1
     2    2    4 1
     3    3    4 1
     4    4    5 1
     5    5    6 2
     6    7    5 1
     7    8    7 1
     8    9    8 1
     9   10    9 1
    10   11    7 1
    11   12   11 1
    12   13   12 2
    13   14   12 1
    14   15   14 1
    15   16   14 1
    16   17   16 1
    17   18   17 2
    18   19   17 1
    19   20   19 1
    20   21   20 1
    21   22   20 1
    22   23    1 1
    23   24    2 1
    24   25    3 1
    25   26    8 1
    26   27    9 1
    27   28   10 1
    28   29   11 1
    29   30   16 1
    30   31   20 1
    31   32   21 1
    32   33   22 1
    33   34   19 1
    34   35   15 1
    35   10   11 1
@<TRIPOS>SUBSTRUCTURE
     1 RES1 1
     2 SUP2 36

@<TRIPOS>CRYSIN
   9.5530   10.8900   16.8590  90.0000  90.0000  90.0000  19 1

