# MOL2 file generated by ConQuest
# Please check atom types

@<TRIPOS>MOLECULE
PEYSER
    77    51     3
SMALL
NO_CHARGES
****
Generated from CSD

@<TRIPOS>ATOM
      1 C1        -2.1432   -0.2364    8.9924 C.3       1 RES1    0.0000
      2 C2        -1.2591   -2.5165    8.8433 C.3       1 RES1    0.0000
      3 C3        -0.4275   -0.7204    7.3418 C.3       1 RES1    0.0000
      4 C4        -0.9090   -1.0705    8.7281 C.3       1 RES1    0.0000
      5 C5         0.1823   -0.6200    9.6936 C.2       1 RES1    0.0000
      6 O1         0.0294    0.4353   10.3358 O.2       1 RES1    0.0000
      7 N1         1.3192   -1.3069    9.8826 N.am      1 RES1    0.0000
      8 C6         1.8196   -2.5357    9.2286 C.3       1 RES1    0.0000
      9 C7         3.2493   -2.5712    9.6316 C.3       1 RES1    0.0000
     10 C8         3.3009   -1.8955   10.9559 C.3       1 RES1    0.0000
     11 C9         2.3031   -0.7346   10.7920 C.3       1 RES1    0.0000
     12 C10        2.9473    0.5023   10.1557 C.2       1 RES1    0.0000
     13 O2         2.9762    0.6585    8.9555 O.2       1 RES1    0.0000
     14 N2         3.5128    1.3597   10.9943 N.am      1 RES1    0.0000
     15 O3         3.5718    1.0553   12.3643 O.3       1 RES1    0.0000
     16 C11        4.2749    2.4941   10.6090 C.3       1 RES1    0.0000
     17 H1        -2.8220   -0.4769    8.5480 H         1 RES1    0.0000
     18 H2        -1.8807   -2.7397    8.2675 H         1 RES1    0.0000
     19 H3        -1.1474   -0.6190    6.9093 H         1 RES1    0.0000
     20 H4         1.7598   -2.4454    8.3413 H         1 RES1    0.0000
     21 H5         3.7430   -2.0903    9.0204 H         1 RES1    0.0000
     22 H6         4.3701   -1.3901   11.1759 H         1 RES1    0.0000
     23 H7         1.8498   -0.5378   11.5007 H         1 RES1    0.0000
     24 H8         5.0069    2.4454   10.6001 H         1 RES1    0.0000
     25 H9         4.0227    3.2065   10.9397 H         1 RES1    0.0000
     26 H10        2.7359    1.3800   12.8589 H         1 RES1    0.0000
     27 C12        3.9106    3.8660   14.9760 C.3       2 RES2    0.0000
     28 C13        1.9814    4.5864   16.3932 C.3       2 RES2    0.0000
     29 C14        2.8180    6.1014   14.5729 C.3       2 RES2    0.0000
     30 C15        2.5771    4.6270   14.9892 C.3       2 RES2    0.0000
     31 C16        1.6476    3.9573   13.9706 C.2       2 RES2    0.0000
     32 O4         1.9965    2.8919   13.4332 O.2       2 RES2    0.0000
     33 N3         0.4920    4.4525   13.6162 N.am      2 RES2    0.0000
     34 C17       -0.2468    5.6184   14.1728 C.3       2 RES2    0.0000
     35 C18       -1.5793    5.3678   13.7152 C.3       2 RES2    0.0000
     36 C19       -1.5586    4.5966   12.4780 C.3       2 RES2    0.0000
     37 C20       -0.2017    3.9238   12.4381 C.3       2 RES2    0.0000
     38 C21        0.6141    4.2151   11.2157 C.2       2 RES2    0.0000
     39 O5         1.5744    4.9629   11.1995 O.2       2 RES2    0.0000
     40 N4         0.2555    3.5748   10.0789 N.am      2 RES2    0.0000
     41 O6        -0.9237    2.8330   10.0849 O.3       2 RES2    0.0000
     42 C22        0.8870    3.7239    8.8167 C.3       2 RES2    0.0000
     43 H11        4.3548    4.1197   15.6196 H         2 RES2    0.0000
     44 H12        3.4018    6.5854   14.9700 H         2 RES2    0.0000
     45 H13        2.4417    4.8706   16.6974 H         2 RES2    0.0000
     46 H14        0.2109    6.2911   13.6709 H         2 RES2    0.0000
     47 H15       -2.1819    6.1897   13.7299 H         2 RES2    0.0000
     48 H16       -1.6996    5.0938   11.6040 H         2 RES2    0.0000
     49 H17       -0.2574    2.9934   12.5489 H         2 RES2    0.0000
     50 H18        1.0039    2.8919    8.4004 H         2 RES2    0.0000
     51 H19       -0.7246    1.9076   10.4820 H         2 RES2    0.0000
     52 C23       -2.5655   -0.4363   10.1424 Du        3 SUP3    0.0000
     53 C24       -1.8886    0.9640    8.8285 Du        3 SUP3    0.0000
     54 C25       -0.6383   -3.4500    8.8580 Du        3 SUP3    0.0000
     55 C26       -1.1344   -2.7397    9.6848 Du        3 SUP3    0.0000
     56 C27        0.0857   -0.1015    7.2193 Du        3 SUP3    0.0000
     57 C28        0.3995   -1.2176    7.0421 Du        3 SUP3    0.0000
     58 C29        3.6461    2.8817   15.3539 Du        3 SUP3    0.0000
     59 C30        4.6207    3.9472   13.7004 Du        3 SUP3    0.0000
     60 C31        3.2001    5.9664   13.7447 Du        3 SUP3    0.0000
     61 C32        1.7250    6.6666   14.9553 Du        3 SUP3    0.0000
     62 C33        1.0833    4.9720   16.5202 Du        3 SUP3    0.0000
     63 C34        1.4777    3.5515   16.6826 Du        3 SUP3    0.0000
     64 C35        2.3031   -0.7346   10.7920 Du        3 SUP3    0.0000
     65 C36        4.2749    2.5165   10.6090 Du        3 SUP3    0.0000
     66 C37        1.6476    3.9573   13.9706 Du        3 SUP3    0.0000
     67 C38        1.1683   -3.3485    9.7586 Du        3 SUP3    0.0000
     68 C39        3.6020   -3.4094    9.7733 Du        3 SUP3    0.0000
     69 C40        2.8329   -2.3034   11.8550 Du        3 SUP3    0.0000
     70 C41        4.1897    2.5976    9.6552 Du        3 SUP3    0.0000
     71 C42       -0.0539    5.8853   15.1472 Du        3 SUP3    0.0000
     72 C43       -1.9625    5.4794   14.2024 Du        3 SUP3    0.0000
     73 C44       -2.1045    3.8863   12.1060 Du        3 SUP3    0.0000
     74 C45        1.6116    4.0385    8.9318 Du        3 SUP3    0.0000
     75 C46        0.3698    4.1603    8.1198 Du        3 SUP3    0.0000
     76 C47        4.0227    3.2065   10.9397 Du        3 SUP3    0.0000
     77 O7        -0.7246    1.9076   10.4820 Du        3 SUP3    0.0000
@<TRIPOS>BOND
     1    1    4 1
     2    2    4 1
     3    3    4 1
     4    4    5 1
     5    5    6 2
     6    7    5 1
     7    8    7 1
     8    9    8 1
     9   10    9 1
    10   11    7 1
    11   12   11 1
    12   13   12 2
    13   14   12 1
    14   15   14 1
    15   16   14 1
    16   17    1 1
    17   18    2 1
    18   19    3 1
    19   20    8 1
    20   21    9 1
    21   22   10 1
    22   23   11 1
    23   24   16 1
    24   25   16 1
    25   26   15 1
    26   27   30 1
    27   28   30 1
    28   29   30 1
    29   30   31 1
    30   31   32 2
    31   33   31 1
    32   34   33 1
    33   35   34 1
    34   36   35 1
    35   37   33 1
    36   38   37 1
    37   39   38 2
    38   40   38 1
    39   41   40 1
    40   42   40 1
    41   43   27 1
    42   44   29 1
    43   45   28 1
    44   46   34 1
    45   47   35 1
    46   48   36 1
    47   49   37 1
    48   50   42 1
    49   51   41 1
    50   10   11 1
    51   36   37 1
@<TRIPOS>SUBSTRUCTURE
     1 RES1 1
     2 RES2 27
     3 SUP3 52

@<TRIPOS>CRYSIN
   8.8010   10.1470   15.3340  90.0000 105.6800  90.0000   4 1

