# MOL2 file generated by ConQuest
# Please check atom types

@<TRIPOS>MOLECULE
PEYTOD
    46    47     1
SMALL
NO_CHARGES
****
Generated from CSD

@<TRIPOS>ATOM
      1 C1        -4.7684    4.6682    6.9483 C.ar      1 RES1    0.0000
      2 C2        -5.1350    5.9979    6.8891 C.ar      1 RES1    0.0000
      3 H1        -5.6200    6.3318    6.1564 H         1 RES1    0.0000
      4 C3        -4.7727    6.8225    7.9294 C.ar      1 RES1    0.0000
      5 H2        -5.0118    7.7307    7.8948 H         1 RES1    0.0000
      6 C4        -4.0593    6.3511    9.0350 C.ar      1 RES1    0.0000
      7 C5        -3.7117    4.9955    9.0535 C.ar      1 RES1    0.0000
      8 H3        -3.2365    4.6499    9.7876 H         1 RES1    0.0000
      9 C6        -4.0534    4.1611    8.0168 C.ar      1 RES1    0.0000
     10 H4        -3.8034    3.2551    8.0339 H         1 RES1    0.0000
     11 C7        -3.7184    7.2714   10.1073 C.2       1 RES1    0.0000
     12 H5        -4.0638    8.1435   10.0386 H         1 RES1    0.0000
     13 C8        -2.9640    7.0086   11.1857 C.2       1 RES1    0.0000
     14 H6        -2.6024    6.1459   11.2783 H         1 RES1    0.0000
     15 C9        -2.6819    7.9802   12.2057 C.2       1 RES1    0.0000
     16 H7        -3.0146    8.8488   12.0670 H         1 RES1    0.0000
     17 C10       -1.9861    7.7685   13.3446 C.2       1 RES1    0.0000
     18 H8        -1.8875    8.5071   13.9173 H         1 RES1    0.0000
     19 C11       -1.3771    6.5374   13.7791 C.2       1 RES1    0.0000
     20 H9        -1.3630    5.8042   13.1914 H         1 RES1    0.0000
     21 C12       -0.8281    6.4051   14.9993 C.2       1 RES1    0.0000
     22 H10       -0.8433    7.1731   15.5404 H         1 RES1    0.0000
     23 C13       -0.2133    5.2247   15.5899 C.ar      1 RES1    0.0000
     24 C14        0.2269    5.2836   16.9100 C.ar      1 RES1    0.0000
     25 H11        0.1475    6.0947   17.3788 H         1 RES1    0.0000
     26 C15        0.7786    4.1905   17.5569 C.ar      1 RES1    0.0000
     27 H12        1.0652    4.2624   18.4490 H         1 RES1    0.0000
     28 C16        0.9050    2.9918   16.8790 C.ar      1 RES1    0.0000
     29 C17        0.5206    2.9250   15.5336 C.ar      1 RES1    0.0000
     30 H13        0.6444    2.1268   15.0519 H         1 RES1    0.0000
     31 C18       -0.0340    4.0153   14.9125 C.ar      1 RES1    0.0000
     32 H14       -0.2996    3.9481   14.0140 H         1 RES1    0.0000
     33 C19        1.8047    1.8763   18.7931 C.3       1 RES1    0.0000
     34 H15        1.0574    2.1507   19.3631 H         1 RES1    0.0000
     35 H16        2.5274    2.5300   18.8984 H         1 RES1    0.0000
     36 C20        2.2850    0.5180   19.2035 C.3       1 RES1    0.0000
     37 H17        2.9915    0.2235   18.5914 H         1 RES1    0.0000
     38 H18        1.5455   -0.1216   19.1426 H         1 RES1    0.0000
     39 C21        2.8203    0.5358   20.6234 C.3       1 RES1    0.0000
     40 H19        3.5499    1.1727   20.6860 H         1 RES1    0.0000
     41 H20        3.1417   -0.3485   20.8590 H         1 RES1    0.0000
     42 H21        2.1115    0.7948   21.2321 H         1 RES1    0.0000
     43 N1        -5.1298    3.7837    5.8491 N.pl3     1 RES1    0.0000
     44 O1        -5.9444    4.1760    5.0256 O.2       1 RES1    0.0000
     45 O2        -4.5878    2.6863    5.7898 O.2       1 RES1    0.0000
     46 O3         1.3811    1.8345   17.4214 O.3       1 RES1    0.0000
@<TRIPOS>BOND
     1    1    2 ar
     2    2    3 1
     3    4    2 ar
     4    5    4 1
     5    6    4 ar
     6    7    6 ar
     7    8    7 1
     8    9    1 ar
     9   10    9 1
    10   11    6 1
    11   12   11 1
    12   13   11 2
    13   14   13 1
    14   15   13 1
    15   16   15 1
    16   17   15 2
    17   18   17 1
    18   19   17 1
    19   20   19 1
    20   21   19 2
    21   22   21 1
    22   23   21 1
    23   24   23 ar
    24   25   24 1
    25   26   24 ar
    26   27   26 1
    27   28   26 ar
    28   29   28 ar
    29   30   29 1
    30   31   23 ar
    31   32   31 1
    32   33   34 1
    33   35   33 1
    34   36   33 1
    35   37   36 1
    36   38   36 1
    37   39   36 1
    38   40   39 1
    39   41   39 1
    40   42   39 1
    41   43    1 1
    42   44   43 2
    43   45   43 2
    44   46   28 1
    45    7    9 ar
    46   29   31 ar
    47   33   46 1
@<TRIPOS>SUBSTRUCTURE
     1 RES1 1

@<TRIPOS>CRYSIN
  15.3615    6.8341   17.6625  90.0000 106.2150  90.0000  14 1

