# MOL2 file generated by ConQuest
# Please check atom types

@<TRIPOS>MOLECULE
PEYTUJ
    49    50     1
SMALL
NO_CHARGES
****
Generated from CSD

@<TRIPOS>ATOM
      1 C1         8.5624    5.5664    9.6588 C.ar      1 RES1    0.0000
      2 C2         9.0825    4.2875    9.7163 C.ar      1 RES1    0.0000
      3 H1         9.6697    4.0340   10.4181 H         1 RES1    0.0000
      4 C3         8.7323    3.3890    8.7350 C.ar      1 RES1    0.0000
      5 H2         9.0873    2.5082    8.7662 H         1 RES1    0.0000
      6 C4         7.8672    3.7372    7.6919 C.ar      1 RES1    0.0000
      7 C5         7.3828    5.0543    7.6578 C.ar      1 RES1    0.0000
      8 H3         6.8105    5.3230    6.9487 H         1 RES1    0.0000
      9 C6         7.7223    5.9624    8.6339 C.ar      1 RES1    0.0000
     10 H4         7.3851    6.8495    8.6039 H         1 RES1    0.0000
     11 C7         7.5165    2.7325    6.6976 C.2       1 RES1    0.0000
     12 H5         7.9405    1.8862    6.7782 H         1 RES1    0.0000
     13 C8         6.6550    2.8815    5.6801 C.2       1 RES1    0.0000
     14 H6         6.2176    3.7186    5.5798 H         1 RES1    0.0000
     15 C9         6.3587    1.8384    4.7327 C.2       1 RES1    0.0000
     16 H7         6.7399    0.9845    4.9012 H         1 RES1    0.0000
     17 C10        5.5918    1.9584    3.6298 C.2       1 RES1    0.0000
     18 H8         5.4792    1.1754    3.1036 H         1 RES1    0.0000
     19 C11        4.9248    3.1485    3.1642 C.2       1 RES1    0.0000
     20 H9         4.9015    3.9102    3.7309 H         1 RES1    0.0000
     21 C12        4.3359    3.2224    1.9585 C.2       1 RES1    0.0000
     22 H10        4.3646    2.4383    1.4219 H         1 RES1    0.0000
     23 C13        3.6575    4.3787    1.3868 C.ar      1 RES1    0.0000
     24 C14        3.2290    4.3534    0.0596 C.ar      1 RES1    0.0000
     25 H11        3.3915    3.5767   -0.4635 H         1 RES1    0.0000
     26 C15        2.5720    5.4293   -0.5201 C.ar      1 RES1    0.0000
     27 H12        2.3003    5.3889   -1.4301 H         1 RES1    0.0000
     28 C16        2.3150    6.5588    0.2326 C.ar      1 RES1    0.0000
     29 C17        2.7284    6.6054    1.5647 C.ar      1 RES1    0.0000
     30 H13        2.5531    7.3787    2.0873 H         1 RES1    0.0000
     31 C18        3.3886    5.5390    2.1220 C.ar      1 RES1    0.0000
     32 H14        3.6689    5.5893    3.0274 H         1 RES1    0.0000
     33 C19        1.1781    7.6846   -1.5472 C.3       1 RES1    0.0000
     34 H15        0.5583    6.9275   -1.6983 H         1 RES1    0.0000
     35 H16        1.9367    7.6019   -2.1783 H         1 RES1    0.0000
     36 C20        0.4602    8.9959   -1.7647 C.3       1 RES1    0.0000
     37 H17       -0.3231    9.0389   -1.1603 H         1 RES1    0.0000
     38 H18        1.0688    9.7403   -1.5261 H         1 RES1    0.0000
     39 C21       -0.0060    9.1795   -3.1878 C.3       1 RES1    0.0000
     40 H19       -0.5861    8.4183   -3.4429 H         1 RES1    0.0000
     41 H20        0.7789    9.1802   -3.7922 H         1 RES1    0.0000
     42 C22       -0.7780   10.4827   -3.3626 C.3       1 RES1    0.0000
     43 H21       -1.5475   10.4907   -2.7560 H         1 RES1    0.0000
     44 H22       -1.0909   10.5553   -4.2887 H         1 RES1    0.0000
     45 H23       -0.1917   11.2398   -3.1565 H         1 RES1    0.0000
     46 N1         8.8955    6.5256   10.7074 N.pl3     1 RES1    0.0000
     47 O1         9.8024    6.2503   11.4759 O.2       1 RES1    0.0000
     48 O2         8.2426    7.5598   10.7809 O.2       1 RES1    0.0000
     49 O3         1.6522    7.6709   -0.2028 O.3       1 RES1    0.0000
@<TRIPOS>BOND
     1    1    2 ar
     2    2    3 1
     3    4    2 ar
     4    5    4 1
     5    6    4 ar
     6    7    6 ar
     7    8    7 1
     8    9    1 ar
     9   10    9 1
    10   11    6 1
    11   12   11 1
    12   13   11 2
    13   14   13 1
    14   15   13 1
    15   16   15 1
    16   17   15 2
    17   18   17 1
    18   19   17 1
    19   20   19 1
    20   21   19 2
    21   22   21 1
    22   23   21 1
    23   24   23 ar
    24   25   24 1
    25   26   24 ar
    26   27   26 1
    27   28   26 ar
    28   29   28 ar
    29   30   29 1
    30   31   23 ar
    31   32   31 1
    32   33   34 1
    33   35   33 1
    34   36   33 1
    35   37   36 1
    36   38   36 1
    37   39   36 1
    38   40   39 1
    39   41   39 1
    40   42   39 1
    41   43   42 1
    42   44   42 1
    43   45   42 1
    44   46    1 1
    45   47   46 2
    46   48   46 2
    47   49   28 1
    48    7    9 ar
    49   29   31 ar
    50   33   49 1
@<TRIPOS>SUBSTRUCTURE
     1 RES1 1

@<TRIPOS>CRYSIN
  17.0571    6.7244   17.2095  90.0000 105.8840  90.0000  14 1

