# MOL2 file generated by ConQuest
# Please check atom types

@<TRIPOS>MOLECULE
PEYZAW
    35    37     1
SMALL
NO_CHARGES
****
Generated from CSD

@<TRIPOS>ATOM
      1 O1        -0.7781    4.8413    2.3752 O.3       1 RES1    0.0000
      2 O2        -1.1078    7.0075    2.3805 O.2       1 RES1    0.0000
      3 O3         1.6509    2.8789    0.4448 O.3       1 RES1    0.0000
      4 H1         1.2878    3.0689   -0.2894 H         1 RES1    0.0000
      5 O4         3.4096    2.6322    3.0204 O.2       1 RES1    0.0000
      6 O5         1.5389    1.8373    3.6750 O.2       1 RES1    0.0000
      7 N1         2.2196    2.7001    3.1306 N.pl3     1 RES1    0.0000
      8 C1        -0.3054    6.0896    2.5146 C.2       1 RES1    0.0000
      9 C2         1.1488    6.3158    2.7244 C.3       1 RES1    0.0000
     10 H2         1.2701    7.1432    3.2727 H         1 RES1    0.0000
     11 C3         1.9103    5.1702    3.3869 C.3       1 RES1    0.0000
     12 H3         2.8870    5.3331    3.2435 H         1 RES1    0.0000
     13 C4         1.5138    3.9023    2.5518 C.3       1 RES1    0.0000
     14 C5         0.0256    3.6889    2.6832 C.3       1 RES1    0.0000
     15 H4        -0.2412    2.9482    2.0831 H         1 RES1    0.0000
     16 H5        -0.1709    3.4061    3.6112 H         1 RES1    0.0000
     17 C6         1.7263    6.5647    1.3170 C.3       1 RES1    0.0000
     18 H6         1.2801    7.3506    0.9121 H         1 RES1    0.0000
     19 H7         2.6934    6.7638    1.3874 H         1 RES1    0.0000
     20 C7         1.5198    5.3384    0.4169 C.3       1 RES1    0.0000
     21 H8         0.5575    5.2381    0.2071 H         1 RES1    0.0000
     22 H9         2.0100    5.4636   -0.4341 H         1 RES1    0.0000
     23 C8         2.0233    4.0833    1.1179 C.3       1 RES1    0.0000
     24 H10        3.0215    4.1248    1.1484 H         1 RES1    0.0000
     25 C9         1.6839    5.0065    4.8871 C.ar      1 RES1    0.0000
     26 C10        2.6991    4.4884    5.6718 C.ar      1 RES1    0.0000
     27 H11        3.5159    4.2116    5.2735 H         1 RES1    0.0000
     28 C11        2.5176    4.3730    7.0631 C.ar      1 RES1    0.0000
     29 H12        3.2131    4.0042    7.5955 H         1 RES1    0.0000
     30 C12        1.3736    4.7765    7.6553 C.ar      1 RES1    0.0000
     31 H13        1.2541    4.6882    8.5939 H         1 RES1    0.0000
     32 C13        0.3643    5.3308    6.8520 C.ar      1 RES1    0.0000
     33 H14       -0.4393    5.6385    7.2543 H         1 RES1    0.0000
     34 C14        0.5188    5.4334    5.5138 C.ar      1 RES1    0.0000
     35 H15       -0.1817    5.8045    4.9907 H         1 RES1    0.0000
@<TRIPOS>BOND
     1    1    8 1
     2    2    8 2
     3    3    4 1
     4    5    7 2
     5    6    7 2
     6    7   13 1
     7    8    9 1
     8    9   10 1
     9   11    9 1
    10   12   11 1
    11   13   11 1
    12   14    1 1
    13   15   14 1
    14   16   14 1
    15   17    9 1
    16   18   17 1
    17   19   17 1
    18   20   17 1
    19   21   20 1
    20   22   20 1
    21   23    3 1
    22   24   23 1
    23   25   11 1
    24   26   25 ar
    25   27   26 1
    26   28   26 ar
    27   29   28 1
    28   30   28 ar
    29   31   30 1
    30   32   30 ar
    31   33   32 1
    32   34   25 ar
    33   35   34 1
    34   13   14 1
    35   13   23 1
    36   20   23 1
    37   32   34 ar
@<TRIPOS>SUBSTRUCTURE
     1 RES1 1

@<TRIPOS>CRYSIN
   6.3154    7.5422   13.2769  90.0000  90.3970  90.0000   4 1

