# MOL2 file generated by ConQuest
# Please check atom types

@<TRIPOS>MOLECULE
PEZBOL
    52    56     1
SMALL
NO_CHARGES
****
Generated from CSD

@<TRIPOS>ATOM
      1 C1         0.3138    9.1599    2.7734 C.2       1 RES1    0.0000
      2 C2         0.2155    8.6782    1.4737 C.2       1 RES1    0.0000
      3 C3        -0.0973    9.3289    0.2306 C.2       1 RES1    0.0000
      4 C4         0.1405    8.4159   -0.7901 C.2       1 RES1    0.0000
      5 C5         0.5758    7.2129   -0.1604 C.2       1 RES1    0.0000
      6 C6         1.1180    6.0200   -0.7038 C.2       1 RES1    0.0000
      7 C7         1.3372    4.8044   -0.0890 C.2       1 RES1    0.0000
      8 C8         2.0959    3.6519   -0.5717 C.2       1 RES1    0.0000
      9 C9         1.8938    2.6582    0.3317 C.2       1 RES1    0.0000
     10 C10        0.9925    3.2055    1.3591 C.2       1 RES1    0.0000
     11 C11        0.3040    2.5170    2.3649 C.2       1 RES1    0.0000
     12 C12       -0.4140    3.0340    3.4394 C.2       1 RES1    0.0000
     13 C13       -1.2573    2.3303    4.3967 C.2       1 RES1    0.0000
     14 C14       -1.5531    3.2256    5.3998 C.2       1 RES1    0.0000
     15 C15       -0.8828    4.4614    5.0641 C.2       1 RES1    0.0000
     16 C16       -0.6944    5.6392    5.7989 C.2       1 RES1    0.0000
     17 C17       -0.1094    6.8346    5.3769 C.2       1 RES1    0.0000
     18 C18        0.4361    7.9115    6.1859 C.2       1 RES1    0.0000
     19 C19        0.7421    8.9279    5.3135 C.2       1 RES1    0.0000
     20 C20        0.3862    8.4537    3.9922 C.2       1 RES1    0.0000
     21 C21       -0.6798   10.7109    0.0216 C.3       1 RES1    0.0000
     22 C22       -2.1770   10.7261   -0.0256 C.3       1 RES1    0.0000
     23 C23       -0.1889    8.6177   -2.2408 C.3       1 RES1    0.0000
     24 C24       -1.3574    7.7703   -2.7046 C.3       1 RES1    0.0000
     25 C25        2.9526    3.5081   -1.7824 C.3       1 RES1    0.0000
     26 C26        2.2541    2.8272   -2.9500 C.3       1 RES1    0.0000
     27 C27        2.6487    1.3644    0.3357 C.3       1 RES1    0.0000
     28 C28        3.8721    1.4098    1.2391 C.3       1 RES1    0.0000
     29 C29       -1.9336    1.0164    4.2484 C.3       1 RES1    0.0000
     30 C30       -3.1057    1.0870    3.2884 C.3       1 RES1    0.0000
     31 C31       -2.3876    2.8927    6.6092 C.3       1 RES1    0.0000
     32 C32       -1.6822    2.0403    7.6339 C.3       1 RES1    0.0000
     33 C33        0.7891    7.8686    7.6622 C.3       1 RES1    0.0000
     34 C34        1.9283    6.9254    7.9184 C.3       1 RES1    0.0000
     35 C35        1.5894   10.1460    5.6236 C.3       1 RES1    0.0000
     36 C36        3.0413    9.8862    5.2987 C.3       1 RES1    0.0000
     37 N1         0.3457   10.6302    2.9177 N.pl3     1 RES1    0.0000
     38 N2         1.6292    6.1335   -2.2732 N.pl3     1 RES1    0.0000
     39 N3         0.3471    1.0265    2.2961 N.pl3     1 RES1    0.0000
     40 N4        -1.2165    5.6266    7.3225 N.pl3     1 RES1    0.0000
     41 N5         0.5503    7.3819    1.1959 N.pl3     1 RES1    0.0000
     42 N6         0.7464    4.5093    1.1137 N.2       1 RES1    0.0000
     43 N7        -0.2800    4.3076    3.8668 N.pl3     1 RES1    0.0000
     44 N8        -0.0799    7.1600    4.0516 N.2       1 RES1    0.0000
     45 O1        -0.5465   11.1725    3.4678 O.2       1 RES1    0.0000
     46 O2         1.2506   11.2305    2.3864 O.2       1 RES1    0.0000
     47 O3         2.2875    6.7867   -2.3096 O.2       1 RES1    0.0000
     48 O4         0.9166    5.6594   -2.7990 O.2       1 RES1    0.0000
     49 O5        -0.3246    0.4994    1.4480 O.2       1 RES1    0.0000
     50 O6         1.0674    0.4792    3.1037 O.2       1 RES1    0.0000
     51 O7        -0.5655    4.8599    7.8941 O.2       1 RES1    0.0000
     52 O8        -1.9153    6.1915    7.4627 O.2       1 RES1    0.0000
@<TRIPOS>BOND
     1    1    2 1
     2    2    3 2
     3    3    4 1
     4    4    5 2
     5    5    6 1
     6    6    7 2
     7    7    8 1
     8    8    9 2
     9    9   10 1
    10   10   11 1
    11   11   12 2
    12   12   13 1
    13   13   14 2
    14   14   15 1
    15   15   16 2
    16   16   17 1
    17   17   18 1
    18   18   19 2
    19   19   20 1
    20   20    1 2
    21   21    3 1
    22   22   21 1
    23   23    4 1
    24   24   23 1
    25   25    8 1
    26   26   25 1
    27   27    9 1
    28   28   27 1
    29   29   13 1
    30   30   29 1
    31   31   14 1
    32   32   31 1
    33   33   18 1
    34   34   33 1
    35   35   19 1
    36   36   35 1
    37   37    1 1
    38   38    6 1
    39   39   11 1
    40   40   16 1
    41   41    2 1
    42   42    7 1
    43   43   12 1
    44   44   17 2
    45   45   37 2
    46   46   37 2
    47   47   38 2
    48   48   38 2
    49   49   39 2
    50   50   39 2
    51   51   40 2
    52   52   40 2
    53    5   41 1
    54   10   42 2
    55   15   43 1
    56   20   44 1
@<TRIPOS>SUBSTRUCTURE
     1 RES1 1

@<TRIPOS>CRYSIN
  10.5200   25.2200   13.5600  90.0000  96.1200  90.0000 231 1

