# MOL2 file generated by ConQuest
# Please check atom types

@<TRIPOS>MOLECULE
PEZBOL01
    94    98     1
SMALL
NO_CHARGES
****
Generated from CSD

@<TRIPOS>ATOM
      1 N1         1.0258    5.0443    5.8027 N.3       1 RES1    0.0000
      2 N2         1.2948    5.1485    2.8780 N.2       1 RES1    0.0000
      3 N3         3.2631    7.2444    3.2381 N.3       1 RES1    0.0000
      4 N4         3.2264    6.9193    6.1680 N.2       1 RES1    0.0000
      5 C1         0.9125    5.2527    7.1394 C.2       1 RES1    0.0000
      6 C2        -0.3768    4.7799    7.6446 C.2       1 RES1    0.0000
      7 C3        -1.0169    5.0864    8.9631 C.3       1 RES1    0.0000
      8 C4        -1.4326    6.5594    9.0434 C.3       1 RES1    0.0000
      9 C5        -1.0080    4.2004    6.5876 C.2       1 RES1    0.0000
     10 C6        -2.4262    3.7277    6.5695 C.3       1 RES1    0.0000
     11 C7        -3.3798    4.7750    5.9996 C.3       1 RES1    0.0000
     12 C8        -0.0878    4.3481    5.4452 C.2       1 RES1    0.0000
     13 C9        -0.2067    3.7897    4.1837 C.2       1 RES1    0.0000
     14 C10        0.4857    4.0553    3.0076 C.2       1 RES1    0.0000
     15 C11        0.4023    3.4162    1.7149 C.2       1 RES1    0.0000
     16 C12       -0.1756    2.0487    1.4118 C.3       1 RES1    0.0000
     17 C13        0.6813    0.9270    1.9584 C.3       1 RES1    0.0000
     18 C14        1.0836    4.1980    0.8186 C.2       1 RES1    0.0000
     19 C15        1.2225    3.8803   -0.6528 C.3       1 RES1    0.0000
     20 C16        2.4317    3.0067   -0.9507 C.3       1 RES1    0.0000
     21 C17        1.6538    5.2949    1.5698 C.2       1 RES1    0.0000
     22 C18        2.3828    6.4192    1.1554 C.2       1 RES1    0.0000
     23 C19        3.0352    7.4131    1.8937 C.2       1 RES1    0.0000
     24 C20        3.6398    8.6615    1.4041 C.2       1 RES1    0.0000
     25 C21        3.4409    9.3489    0.0751 C.3       1 RES1    0.0000
     26 C22        2.1294   10.1233    0.0104 C.3       1 RES1    0.0000
     27 C23        4.2833    9.2013    2.4662 C.2       1 RES1    0.0000
     28 C24        4.8479   10.5973    2.5361 C.3       1 RES1    0.0000
     29 C25        3.9077   11.5429    3.2666 C.3       1 RES1    0.0000
     30 C26        4.0788    8.2545    3.5853 C.2       1 RES1    0.0000
     31 C27        4.6901    8.3128    4.8546 C.2       1 RES1    0.0000
     32 C28        4.3889    7.6142    6.0333 C.2       1 RES1    0.0000
     33 C29        5.1369    7.4975    7.2638 C.2       1 RES1    0.0000
     34 C30        6.5361    7.9517    7.5669 C.3       1 RES1    0.0000
     35 C31        6.6162    9.2286    8.4347 C.3       1 RES1    0.0000
     36 C32        4.3556    6.7579    8.1342 C.2       1 RES1    0.0000
     37 C33        4.8357    6.2653    9.4709 C.3       1 RES1    0.0000
     38 C34        5.4203    4.8333    9.3750 C.3       1 RES1    0.0000
     39 C35        3.1319    6.4204    7.4477 C.2       1 RES1    0.0000
     40 C36        2.0016    5.7665    7.8725 C.2       1 RES1    0.0000
     41 N5        -1.3103    2.8218    4.0205 N.pl3     1 RES1    0.0000
     42 O1        -1.1814    1.7087    4.4945 O.2       1 RES1    0.0000
     43 O2        -2.3028    3.2189    3.4065 O.2       1 RES1    0.0000
     44 N6         2.4417    6.5991   -0.3160 N.pl3     1 RES1    0.0000
     45 O3         1.4771    7.0992   -0.8523 O.2       1 RES1    0.0000
     46 O4         3.4698    6.2330   -0.8834 O.2       1 RES1    0.0000
     47 N7         5.8593    9.2050    4.9427 N.pl3     1 RES1    0.0000
     48 O5         6.8629    8.8687    4.3287 O.2       1 RES1    0.0000
     49 O6         5.7582   10.2225    5.6162 O.2       1 RES1    0.0000
     50 N8         1.9127    5.5133    9.3465 N.pl3     1 RES1    0.0000
     51 O7         1.7338    6.4676   10.0719 O.2       1 RES1    0.0000
     52 O8         2.0361    4.3543    9.7170 O.2       1 RES1    0.0000
     53 H1         1.6927    5.3160    5.2639 H         1 RES1    0.0000
     54 H2         2.9330    6.5917    3.7614 H         1 RES1    0.0000
     55 H3        -0.3968    4.8904    9.6677 H         1 RES1    0.0000
     56 H4        -1.7927    4.5318    9.0797 H         1 RES1    0.0000
     57 H5        -1.8394    6.7480    9.8905 H         1 RES1    0.0000
     58 H6        -0.6535    7.1079    8.9320 H         1 RES1    0.0000
     59 H7        -2.0583    6.7468    8.3388 H         1 RES1    0.0000
     60 H8        -2.6974    3.4981    7.4606 H         1 RES1    0.0000
     61 H9        -2.4884    2.9385    6.0255 H         1 RES1    0.0000
     62 H10       -4.2822    4.4486    5.9944 H         1 RES1    0.0000
     63 H11       -3.3264    5.5592    6.5488 H         1 RES1    0.0000
     64 H12       -3.1153    4.9946    5.1007 H         1 RES1    0.0000
     65 H13       -0.2456    1.9420    0.4585 H         1 RES1    0.0000
     66 H14       -1.0592    1.9879    1.7823 H         1 RES1    0.0000
     67 H15        0.2834    0.0807    1.7434 H         1 RES1    0.0000
     68 H16        1.5604    0.9741    1.5776 H         1 RES1    0.0000
     69 H17        0.7391    1.0200    2.9117 H         1 RES1    0.0000
     70 H18        1.2881    4.6993   -1.1502 H         1 RES1    0.0000
     71 H19        0.4301    3.4236   -0.9429 H         1 RES1    0.0000
     72 H20        2.4651    2.8305   -1.8937 H         1 RES1    0.0000
     73 H21        3.2308    3.4658   -0.6813 H         1 RES1    0.0000
     74 H22        2.3639    2.1765   -0.4715 H         1 RES1    0.0000
     75 H23        3.4520    8.6900   -0.6243 H         1 RES1    0.0000
     76 H24        4.1689    9.9570   -0.0777 H         1 RES1    0.0000
     77 H25        2.0361   10.5452   -0.8471 H         1 RES1    0.0000
     78 H26        1.4015    9.5140    0.1502 H         1 RES1    0.0000
     79 H27        2.1239   10.7921    0.6994 H         1 RES1    0.0000
     80 H28        4.9902   10.9249    1.6450 H         1 RES1    0.0000
     81 H29        5.6970   10.5749    2.9868 H         1 RES1    0.0000
     82 H30        4.2878   12.4239    3.2951 H         1 RES1    0.0000
     83 H31        3.0641   11.5726    2.8107 H         1 RES1    0.0000
     84 H32        3.7765   11.2202    4.1603 H         1 RES1    0.0000
     85 H33        6.9952    8.1080    6.7379 H         1 RES1    0.0000
     86 H34        6.9952    7.2444    8.0280 H         1 RES1    0.0000
     87 H35        7.5331    9.4631    8.5901 H         1 RES1    0.0000
     88 H36        6.1772    9.9458    7.9710 H         1 RES1    0.0000
     89 H37        6.1772    9.0735    9.2740 H         1 RES1    0.0000
     90 H38        4.1088    6.2752   10.1004 H         1 RES1    0.0000
     91 H39        5.5159    6.8585    9.7973 H         1 RES1    0.0000
     92 H40        5.7226    4.5504   10.2402 H         1 RES1    0.0000
     93 H41        4.7368    4.2352    9.0642 H         1 RES1    0.0000
     94 H42        6.1572    4.8246    8.7611 H         1 RES1    0.0000
@<TRIPOS>BOND
     1    1    5 1
     2    2   14 1
     3    3   23 1
     4    4   32 2
     5    5    6 2
     6    6    7 1
     7    7    8 1
     8    8   57 1
     9    9    6 1
    10   10    9 1
    11   11   10 1
    12   12    1 1
    13   13   12 1
    14   14   13 2
    15   15   14 1
    16   16   15 1
    17   17   16 1
    18   18   15 2
    19   19   18 1
    20   20   19 1
    21   21    2 2
    22   22   21 1
    23   23   22 2
    24   24   23 1
    25   25   24 1
    26   26   25 1
    27   27   24 2
    28   28   27 1
    29   29   28 1
    30   30    3 1
    31   31   30 2
    32   32   31 1
    33   33   32 1
    34   34   33 1
    35   35   34 1
    36   36   33 2
    37   37   36 1
    38   38   37 1
    39   39    4 1
    40   40    5 1
    41   41   13 1
    42   42   41 2
    43   43   41 2
    44   44   22 1
    45   45   44 2
    46   46   44 2
    47   47   31 1
    48   48   47 2
    49   49   47 2
    50   50   40 1
    51   51   50 2
    52   52   50 2
    53   53    1 1
    54   54    3 1
    55   55    7 1
    56   56    7 1
    57   58    8 1
    58   59    8 1
    59   60   10 1
    60   61   10 1
    61   62   11 1
    62   63   11 1
    63   64   11 1
    64   65   16 1
    65   66   16 1
    66   67   17 1
    67   68   17 1
    68   69   17 1
    69   70   19 1
    70   71   19 1
    71   72   20 1
    72   73   20 1
    73   74   20 1
    74   75   25 1
    75   76   25 1
    76   77   26 1
    77   78   26 1
    78   79   26 1
    79   80   28 1
    80   81   28 1
    81   82   29 1
    82   83   29 1
    83   84   29 1
    84   85   34 1
    85   86   34 1
    86   87   35 1
    87   88   35 1
    88   89   35 1
    89   90   37 1
    90   91   37 1
    91   92   38 1
    92   93   38 1
    93   94   38 1
    94    9   12 2
    95   18   21 1
    96   27   30 1
    97   36   39 1
    98   39   40 2
@<TRIPOS>SUBSTRUCTURE
     1 RES1 1

@<TRIPOS>CRYSIN
  11.1140   12.4090   25.9050  90.0000  90.0000  90.0000  33 1

