# MOL2 file generated by ConQuest
# Please check atom types

@<TRIPOS>MOLECULE
PEZDIH
    18    19     1
SMALL
NO_CHARGES
****
Generated from CSD

@<TRIPOS>ATOM
      1 N1         4.3485    2.9493    1.7401 N.am      1 RES1    0.0000
      2 C1         5.1679    1.9121    1.1834 C.2       1 RES1    0.0000
      3 C2         4.4461    1.5238    0.0266 C.2       1 RES1    0.0000
      4 C3         3.3091    2.2092   -0.0631 C.2       1 RES1    0.0000
      5 O1         3.1983    3.1004    0.9633 O.3       1 RES1    0.0000
      6 C4         2.1853    2.2492   -0.9927 C.3       1 RES1    0.0000
      7 O2         6.2007    1.5683    1.6532 O.2       1 RES1    0.0000
      8 C5         4.3164    3.6746    2.9516 C.2       1 RES1    0.0000
      9 O3         3.3234    4.3619    3.1521 O.2       1 RES1    0.0000
     10 C6         5.4598    3.5029    3.8041 C.3       1 RES1    0.0000
     11 C7         5.3959    3.7144    5.3185 C.3       1 RES1    0.0000
     12 C8         6.1041    4.7386    4.4898 C.3       1 RES1    0.0000
     13 C9         6.2816    2.7723    6.1163 C.3       1 RES1    0.0000
     14 C10        4.0841    4.0430    6.0140 C.3       1 RES1    0.0000
     15 C11        5.5343    6.1007    4.2809 C.2       1 RES1    0.0000
     16 C12        6.2762    7.2004    4.1939 C.2       1 RES1    0.0000
     17 C13        7.7628    7.2611    4.2935 C.3       1 RES1    0.0000
     18 C14        5.5736    8.5422    3.9359 C.3       1 RES1    0.0000
@<TRIPOS>BOND
     1    1    2 1
     2    2    3 1
     3    3    4 2
     4    4    5 1
     5    5    1 1
     6    6    4 1
     7    7    2 2
     8    8    1 1
     9    9    8 2
    10   10    8 1
    11   11   10 1
    12   12   10 1
    13   13   11 1
    14   14   11 1
    15   15   12 1
    16   16   15 2
    17   17   16 1
    18   18   16 1
    19   11   12 1
@<TRIPOS>SUBSTRUCTURE
     1 RES1 1

@<TRIPOS>CRYSIN
   6.1460    8.4730   14.3830  77.4700  82.8400  69.0000   2 1

