# MOL2 file generated by ConQuest
# Please check atom types

@<TRIPOS>MOLECULE
PEZFUW
    90    92     1
SMALL
NO_CHARGES
****
Generated from CSD

@<TRIPOS>ATOM
      1 O1         4.4265    5.3081   11.7730 O.2       1 RES1    0.0000
      2 O2         5.0502    7.1909   10.9033 O.2       1 RES1    0.0000
      3 O3         9.9948    0.3792    1.8479 O.3       1 RES1    0.0000
      4 O4        16.8831   -5.1581  -10.0939 O.3       1 RES1    0.0000
      5 O5        18.2846   -4.0614  -11.3774 O.2       1 RES1    0.0000
      6 O6        17.9811   -8.3900  -15.5665 O.2       1 RES1    0.0000
      7 N1         4.9390    5.9887   10.8765 N.pl3     1 RES1    0.0000
      8 N2         7.1317    3.0481    6.6164 N.2       1 RES1    0.0000
      9 N3         7.6964    3.6711    5.6715 N.2       1 RES1    0.0000
     10 N4        17.9008   -7.6177  -14.5335 N.3       1 RES1    0.0000
     11 C1         5.4997    5.2395    9.7252 C.ar      1 RES1    0.0000
     12 C2         5.3412    3.8769    9.6876 C.ar      1 RES1    0.0000
     13 C3         6.1758    5.9366    8.7781 C.ar      1 RES1    0.0000
     14 C4         5.8930    3.2043    8.6255 C.ar      1 RES1    0.0000
     15 C5         6.7321    5.2474    7.7064 C.ar      1 RES1    0.0000
     16 C6         6.5830    3.8780    7.6290 C.ar      1 RES1    0.0000
     17 C7         8.2783    2.8006    4.7073 C.ar      1 RES1    0.0000
     18 C8         8.3590    1.4360    4.8492 C.ar      1 RES1    0.0000
     19 C9         8.8001    3.3860    3.5667 C.ar      1 RES1    0.0000
     20 C10        8.9235    0.6692    3.8699 C.ar      1 RES1    0.0000
     21 C11        9.4057    2.6065    2.5853 C.ar      1 RES1    0.0000
     22 C12        9.4476    1.2505    2.7272 C.ar      1 RES1    0.0000
     23 C13       10.6669    0.8736    0.6783 C.3       1 RES1    0.0000
     24 C14       11.2147   -0.3182   -0.0591 C.3       1 RES1    0.0000
     25 C15       11.9725    0.0038   -1.3190 C.3       1 RES1    0.0000
     26 C16       12.4832   -1.2360   -2.0113 C.3       1 RES1    0.0000
     27 C17       13.3027   -0.9833   -3.2636 C.3       1 RES1    0.0000
     28 C18       13.7801   -2.2493   -3.9333 C.3       1 RES1    0.0000
     29 C19       14.5787   -2.0307   -5.2071 C.3       1 RES1    0.0000
     30 C20       14.9930   -3.2874   -5.9306 C.3       1 RES1    0.0000
     31 C21       15.7388   -3.0516   -7.2087 C.3       1 RES1    0.0000
     32 C22       16.0740   -4.3045   -7.9902 C.3       1 RES1    0.0000
     33 C23       16.7659   -3.9611   -9.2748 C.3       1 RES1    0.0000
     34 C24       17.6722   -5.0457  -11.1549 C.2       1 RES1    0.0000
     35 C25       17.6276   -6.2596  -12.0385 C.3       1 RES1    0.0000
     36 C26       16.6425   -6.0497  -13.1672 C.3       1 RES1    0.0000
     37 C27       18.9861   -6.5044  -12.6448 C.3       1 RES1    0.0000
     38 C28       16.5432   -7.2157  -14.1218 C.3       1 RES1    0.0000
     39 C29       19.0491   -7.6587  -13.6069 C.3       1 RES1    0.0000
     40 C30       15.8217   -6.7575  -15.3591 C.3       1 RES1    0.0000
     41 C31       15.7943   -8.3841  -13.5295 C.3       1 RES1    0.0000
     42 C32       19.0751   -8.9875  -12.8877 C.3       1 RES1    0.0000
     43 C33       20.3118   -7.5367  -14.4582 C.3       1 RES1    0.0000
     44 H1         4.8304    3.4063   10.3960 H         1 RES1    0.0000
     45 H2         6.2847    6.9540    8.8609 H         1 RES1    0.0000
     46 H3         5.8101    2.2169    8.5621 H         1 RES1    0.0000
     47 H4         7.2477    5.7439    7.0098 H         1 RES1    0.0000
     48 H5         7.9889    0.9757    5.6554 H         1 RES1    0.0000
     49 H6         8.7217    4.3820    3.4743 H         1 RES1    0.0000
     50 H7         8.9643   -0.3241    3.9645 H         1 RES1    0.0000
     51 H8         9.7643    3.0512    1.7877 H         1 RES1    0.0000
     52 H9        10.0658    1.3756    0.1000 H         1 RES1    0.0000
     53 H10       11.3874    1.4929    0.9030 H         1 RES1    0.0000
     54 H11       11.7893   -0.7999    0.5429 H         1 RES1    0.0000
     55 H12       10.4792   -0.9033   -0.2816 H         1 RES1    0.0000
     56 H13       11.3873    0.4965   -1.9349 H         1 RES1    0.0000
     57 H14       12.6954    0.6068   -1.1094 H         1 RES1    0.0000
     58 H15       13.0404   -1.7066   -1.3760 H         1 RES1    0.0000
     59 H16       11.7501   -1.7928   -2.2327 H         1 RES1    0.0000
     60 H17       12.7791   -0.4344   -3.8903 H         1 RES1    0.0000
     61 H18       14.0781   -0.3999   -3.0421 H         1 RES1    0.0000
     62 H19       14.3383   -2.7444   -3.3335 H         1 RES1    0.0000
     63 H20       13.0140   -2.8064   -4.1397 H         1 RES1    0.0000
     64 H21       14.0230   -1.4756   -5.8155 H         1 RES1    0.0000
     65 H22       15.3548   -1.4825   -5.0201 H         1 RES1    0.0000
     66 H23       15.5419   -3.8166   -5.3490 H         1 RES1    0.0000
     67 H24       14.2013   -3.8201   -6.1294 H         1 RES1    0.0000
     68 H25       15.1767   -2.4582   -7.7720 H         1 RES1    0.0000
     69 H26       16.5256   -2.5513   -7.0120 H         1 RES1    0.0000
     70 H27       16.6377   -4.9061   -7.4452 H         1 RES1    0.0000
     71 H28       15.2716   -4.8337   -8.1762 H         1 RES1    0.0000
     72 H29       17.6646   -3.5684   -9.0953 H         1 RES1    0.0000
     73 H30       16.2932   -3.2581   -9.7499 H         1 RES1    0.0000
     74 H31       17.3811   -7.0816  -11.5526 H         1 RES1    0.0000
     75 H32       15.7681   -5.8473  -12.7910 H         1 RES1    0.0000
     76 H33       16.9002   -5.2302  -13.6542 H         1 RES1    0.0000
     77 H34       19.2233   -5.6922  -13.1393 H         1 RES1    0.0000
     78 H35       19.6343   -6.6023  -11.9525 H         1 RES1    0.0000
     79 H36       14.9802   -6.3713  -15.1828 H         1 RES1    0.0000
     80 H37       16.3478   -6.0680  -15.8503 H         1 RES1    0.0000
     81 H38       15.6961   -7.4677  -16.0126 H         1 RES1    0.0000
     82 H39       15.6033   -8.2572  -12.6082 H         1 RES1    0.0000
     83 H40       14.9754   -8.5675  -13.9928 H         1 RES1    0.0000
     84 H41       16.3256   -9.2191  -13.5886 H         1 RES1    0.0000
     85 H42       18.8098   -8.9468  -11.9708 H         1 RES1    0.0000
     86 H43       18.5255   -9.6639  -13.3166 H         1 RES1    0.0000
     87 H44       19.9878   -9.3881  -12.8791 H         1 RES1    0.0000
     88 H45       21.1026   -7.3505  -13.9046 H         1 RES1    0.0000
     89 H46       20.5057   -8.2848  -14.9903 H         1 RES1    0.0000
     90 H47       20.2374   -6.7575  -15.0473 H         1 RES1    0.0000
@<TRIPOS>BOND
     1    1    7 2
     2    2    7 2
     3    3   22 1
     4    4   33 1
     5    5   34 2
     6    6   10 1
     7    7   11 1
     8    8    9 2
     9    9   17 1
    10   10   38 1
    11   11   12 ar
    12   12   14 ar
    13   13   11 ar
    14   14   16 ar
    15   15   13 ar
    16   16    8 1
    17   17   18 ar
    18   18   20 ar
    19   19   17 ar
    20   20   22 ar
    21   21   19 ar
    22   22   21 ar
    23   23    3 1
    24   24   23 1
    25   25   24 1
    26   26   25 1
    27   27   26 1
    28   28   27 1
    29   29   28 1
    30   30   29 1
    31   31   30 1
    32   32   31 1
    33   33   32 1
    34   34    4 1
    35   35   34 1
    36   36   35 1
    37   37   35 1
    38   38   36 1
    39   39   10 1
    40   40   38 1
    41   41   38 1
    42   42   39 1
    43   43   39 1
    44   44   12 1
    45   45   13 1
    46   46   14 1
    47   47   15 1
    48   48   18 1
    49   49   19 1
    50   50   20 1
    51   51   21 1
    52   52   23 1
    53   53   23 1
    54   54   24 1
    55   55   24 1
    56   56   25 1
    57   57   25 1
    58   58   26 1
    59   59   26 1
    60   60   27 1
    61   61   27 1
    62   62   28 1
    63   63   28 1
    64   64   29 1
    65   65   29 1
    66   66   30 1
    67   67   30 1
    68   68   31 1
    69   69   31 1
    70   70   32 1
    71   71   32 1
    72   72   33 1
    73   73   33 1
    74   74   35 1
    75   75   36 1
    76   76   36 1
    77   77   37 1
    78   78   37 1
    79   79   40 1
    80   80   40 1
    81   81   40 1
    82   82   41 1
    83   83   41 1
    84   84   41 1
    85   85   42 1
    86   86   42 1
    87   87   42 1
    88   88   43 1
    89   89   43 1
    90   90   43 1
    91   15   16 ar
    92   37   39 1
@<TRIPOS>SUBSTRUCTURE
     1 RES1 1

@<TRIPOS>CRYSIN
   8.9980   34.4770   11.1675  90.0000 105.7235  90.0000  14 1

