# MOL2 file generated by ConQuest
# Please check atom types

@<TRIPOS>MOLECULE
PEZGIL
    54    56     1
SMALL
NO_CHARGES
****
Generated from CSD

@<TRIPOS>ATOM
      1 O1        -1.9096   -1.5510    6.7448 O.2       1 RES1    0.0000
      2 O2         2.2986    2.5332    4.6829 O.3       1 RES1    0.0000
      3 O3         2.6919    0.9602    3.1855 O.2       1 RES1    0.0000
      4 N1        -0.9723   -0.8854    6.1657 N.3       1 RES1    0.0000
      5 N2         4.7746    6.4987    1.6074 N.2       1 RES1    0.0000
      6 N3         5.8228    6.9350    1.9954 N.2       1 RES1    0.0000
      7 C1         7.3949   10.1425   -0.2016 C.ar      1 RES1    0.0000
      8 C2         6.2030    9.6303   -0.5815 C.ar      1 RES1    0.0000
      9 C3         8.0389    9.6174    0.8608 C.ar      1 RES1    0.0000
     10 C4         5.6574    8.5556    0.1013 C.ar      1 RES1    0.0000
     11 C5         7.5130    8.5404    1.5430 C.ar      1 RES1    0.0000
     12 C6         6.3139    8.0212    1.1571 C.ar      1 RES1    0.0000
     13 C7         4.2287    5.4521    2.4637 C.ar      1 RES1    0.0000
     14 C8         3.0616    4.9013    1.9954 C.ar      1 RES1    0.0000
     15 C9         4.7496    5.0572    3.6768 C.ar      1 RES1    0.0000
     16 C10        2.4304    3.9063    2.7205 C.ar      1 RES1    0.0000
     17 C11        4.1127    4.0528    4.4115 C.ar      1 RES1    0.0000
     18 C12        2.9751    3.4949    3.9021 C.ar      1 RES1    0.0000
     19 C13        2.1724    1.2915    4.1930 C.2       1 RES1    0.0000
     20 C14        1.3480    0.3843    5.0739 C.3       1 RES1    0.0000
     21 C15        0.4512   -0.4934    4.1978 C.3       1 RES1    0.0000
     22 C16        0.4704    1.1082    6.0851 C.3       1 RES1    0.0000
     23 C17       -0.3376   -1.5413    4.9834 C.3       1 RES1    0.0000
     24 C18       -0.3119    0.1641    6.9959 C.3       1 RES1    0.0000
     25 C19       -1.4487   -2.1002    4.1089 C.3       1 RES1    0.0000
     26 C20        0.5536   -2.6886    5.4508 C.3       1 RES1    0.0000
     27 C21       -1.4107    0.9564    7.7015 C.3       1 RES1    0.0000
     28 C22        0.5976   -0.5051    8.0302 C.3       1 RES1    0.0000
     29 H1         7.7761   10.8703   -0.6801 H         1 RES1    0.0000
     30 H2         5.7427   10.0065   -1.3213 H         1 RES1    0.0000
     31 H3         8.8625    9.9972    1.1415 H         1 RES1    0.0000
     32 H4         4.8237    8.1935   -0.1738 H         1 RES1    0.0000
     33 H5         7.9845    8.1630    2.2770 H         1 RES1    0.0000
     34 H6         2.6875    5.2025    1.1745 H         1 RES1    0.0000
     35 H7         5.5389    5.4662    4.0118 H         1 RES1    0.0000
     36 H8         1.6259    3.5160    2.3999 H         1 RES1    0.0000
     37 H9         4.4677    3.7645    5.2432 H         1 RES1    0.0000
     38 H10        1.9407   -0.1840    5.5518 H         1 RES1    0.0000
     39 H11       -0.1660    0.0691    3.7451 H         1 RES1    0.0000
     40 H12        0.9975   -0.9411    3.5624 H         1 RES1    0.0000
     41 H13        1.0266    1.6560    6.6244 H         1 RES1    0.0000
     42 H14       -0.1474    1.6537    5.6117 H         1 RES1    0.0000
     43 H15       -1.9418   -2.7483    4.5960 H         1 RES1    0.0000
     44 H16       -2.0268   -1.3935    3.8470 H         1 RES1    0.0000
     45 H17       -1.0717   -2.5046    3.3377 H         1 RES1    0.0000
     46 H18        0.0749   -3.2300    6.0671 H         1 RES1    0.0000
     47 H19        0.8154   -3.2136    4.7039 H         1 RES1    0.0000
     48 H20        1.3267   -2.3335    5.8754 H         1 RES1    0.0000
     49 H21       -1.7345    0.4583    8.4430 H         1 RES1    0.0000
     50 H22       -1.0612    1.7861    8.0056 H         1 RES1    0.0000
     51 H23       -2.1215    1.1169    7.0918 H         1 RES1    0.0000
     52 H24        0.7568    0.0984    8.7456 H         1 RES1    0.0000
     53 H25        0.1786   -1.2904    8.3651 H         1 RES1    0.0000
     54 H26        1.4233   -0.7372    7.6221 H         1 RES1    0.0000
@<TRIPOS>BOND
     1    1    4 1
     2    2   18 1
     3    3   19 2
     4    4   23 1
     5    5    6 2
     6    6   12 1
     7    7    8 ar
     8    8   10 ar
     9    9    7 ar
    10   10   12 ar
    11   11    9 ar
    12   12   11 ar
    13   13    5 1
    14   14   13 ar
    15   15   13 ar
    16   16   14 ar
    17   17   15 ar
    18   18   16 ar
    19   19    2 1
    20   20   19 1
    21   21   20 1
    22   22   20 1
    23   23   21 1
    24   24    4 1
    25   25   23 1
    26   26   23 1
    27   27   24 1
    28   28   24 1
    29   29    7 1
    30   30    8 1
    31   31    9 1
    32   32   10 1
    33   33   11 1
    34   34   14 1
    35   35   15 1
    36   36   16 1
    37   37   17 1
    38   38   20 1
    39   39   21 1
    40   40   21 1
    41   41   22 1
    42   42   22 1
    43   43   25 1
    44   44   25 1
    45   45   25 1
    46   46   26 1
    47   47   26 1
    48   48   26 1
    49   49   27 1
    50   50   27 1
    51   51   27 1
    52   52   28 1
    53   53   28 1
    54   54   28 1
    55   17   18 ar
    56   22   24 1
@<TRIPOS>SUBSTRUCTURE
     1 RES1 1

@<TRIPOS>CRYSIN
   5.7730   11.7200   30.0120  90.0000  93.3400  90.0000 231 1

