# MOL2 file generated by ConQuest
# Please check atom types

@<TRIPOS>MOLECULE
PEZGUW
    58    62     2
SMALL
NO_CHARGES
****
Generated from CSD

@<TRIPOS>ATOM
      1 O1         3.1607    0.7738    4.6497 O.2       1 RES1    0.0000
      2 O2        -0.4988   -1.0048    9.1115 O.3       1 RES1    0.0000
      3 O3        -0.8009   -7.2308    9.1533 O.2       1 RES1    0.0000
      4 O4        -2.5678   -6.7619   10.2766 O.2       1 RES1    0.0000
      5 N1         1.3208   -2.8491    8.0279 N.pl3     1 RES1    0.0000
      6 N2        -1.5624   -6.4224    9.6627 N.pl3     1 RES1    0.0000
      7 C1         3.5146   -0.4250    6.6583 C.2       1 RES1    0.0000
      8 C2         2.6863    0.0404    5.5120 C.2       1 RES1    0.0000
      9 C3         1.2648   -0.4042    5.4139 C.2       1 RES1    0.0000
     10 C4         0.7369   -1.0983    6.4265 C.2       1 RES1    0.0000
     11 C5         1.4713   -1.4298    7.6855 C.3       1 RES1    0.0000
     12 C6         2.9247   -1.1226    7.6312 C.2       1 RES1    0.0000
     13 C7         5.0048   -0.0497    6.7084 C.3       1 RES1    0.0000
     14 C8         5.7312   -0.5405    5.4536 C.3       1 RES1    0.0000
     15 C9         5.6922   -0.6733    7.9319 C.3       1 RES1    0.0000
     16 C10        5.1311    1.4760    6.8274 C.3       1 RES1    0.0000
     17 C11        0.4647   -0.0508    4.1507 C.3       1 RES1    0.0000
     18 C12        0.3178    1.4656    4.0317 C.3       1 RES1    0.0000
     19 C13       -0.9517   -0.6317    4.2196 C.3       1 RES1    0.0000
     20 C14        1.1560   -0.6594    2.9126 C.3       1 RES1    0.0000
     21 C15        0.8731   -0.6086    8.8756 C.3       1 RES1    0.0000
     22 C16        0.8376    0.8673    8.6334 C.2       1 RES1    0.0000
     23 C17        1.6605    1.7116    9.1783 C.2       1 RES1    0.0000
     24 C18        0.1685   -3.2788    8.6752 C.ar      1 RES1    0.0000
     25 C19       -0.6974   -2.3502    9.2598 C.ar      1 RES1    0.0000
     26 C20       -1.8208   -2.7510    9.9676 C.ar      1 RES1    0.0000
     27 C21       -2.1170   -4.0918   10.1074 C.ar      1 RES1    0.0000
     28 C22       -1.2662   -5.0088    9.5187 C.ar      1 RES1    0.0000
     29 C23       -0.1364   -4.6311    8.8088 C.ar      1 RES1    0.0000
     30 O5        -1.6096   -3.6564   14.4607 O.2       2 RES2    0.0000
     31 O6        -5.1117   -2.4865   19.2002 O.3       2 RES2    0.0000
     32 O7        -7.4933    3.0697   20.6701 O.2       2 RES2    0.0000
     33 O8        -5.6874    3.7072   19.6595 O.2       2 RES2    0.0000
     34 N3        -3.3455   -0.4885   18.3254 N.pl3     2 RES2    0.0000
     35 N4        -6.4308    2.8341   20.0854 N.pl3     2 RES2    0.0000
     36 C24       -3.4774   -2.5777   15.4086 C.2       2 RES2    0.0000
     37 C25       -2.0546   -3.0004   15.3961 C.2       2 RES2    0.0000
     38 C26       -1.1667   -2.6078   16.5298 C.2       2 RES2    0.0000
     39 C27       -1.7295   -2.0881   17.6259 C.2       2 RES2    0.0000
     40 C28       -3.1898   -1.8478   17.7867 C.3       2 RES2    0.0000
     41 C29       -3.9693   -2.0384   16.5235 C.2       2 RES2    0.0000
     42 C30       -4.3259   -2.8053   14.1538 C.3       2 RES2    0.0000
     43 C31       -4.4580   -4.3020   13.8740 C.3       2 RES2    0.0000
     44 C32       -5.7401   -2.2290   14.3208 C.3       2 RES2    0.0000
     45 C33       -3.6413   -2.1054   12.9407 C.3       2 RES2    0.0000
     46 C34        0.3380   -2.8457   16.4108 C.3       2 RES2    0.0000
     47 C35        1.0763   -2.3213   17.6468 C.3       2 RES2    0.0000
     48 C36        0.6251   -4.3424   16.2792 C.3       2 RES2    0.0000
     49 C37        0.8891   -2.1019   15.1810 C.3       2 RES2    0.0000
     50 C38       -3.7247   -2.8029   18.9058 C.3       2 RES2    0.0000
     51 C39       -3.7196   -4.2570   18.5216 C.2       2 RES2    0.0000
     52 C40       -2.9992   -5.1520   19.0833 C.2       2 RES2    0.0000
     53 C41       -4.5230   -0.1582   18.9789 C.ar      2 RES2    0.0000
     54 C42       -5.3671   -1.1676   19.4486 C.ar      2 RES2    0.0000
     55 C43       -6.5181   -0.8743   20.1690 C.ar      2 RES2    0.0000
     56 C44       -6.8679    0.4435   20.3965 C.ar      2 RES2    0.0000
     57 C45       -6.0414    1.4344   19.9017 C.ar      2 RES2    0.0000
     58 C46       -4.8717    1.1711   19.2085 C.ar      2 RES2    0.0000
@<TRIPOS>BOND
     1    1    8 2
     2    2   21 1
     3    3    6 2
     4    4    6 2
     5    5   11 1
     6    6   28 1
     7    7    8 1
     8    8    9 1
     9    9   10 2
    10   10   11 1
    11   11   12 1
    12   12    7 2
    13   13    7 1
    14   14   13 1
    15   15   13 1
    16   16   13 1
    17   17    9 1
    18   18   17 1
    19   19   17 1
    20   20   17 1
    21   21   11 1
    22   22   21 1
    23   23   22 2
    24   24    5 1
    25   25    2 1
    26   26   25 ar
    27   27   26 ar
    28   28   27 ar
    29   29   24 ar
    30   30   37 2
    31   31   50 1
    32   32   35 2
    33   33   35 2
    34   34   40 1
    35   35   57 1
    36   36   37 1
    37   37   38 1
    38   38   39 2
    39   39   40 1
    40   40   41 1
    41   41   36 2
    42   42   36 1
    43   43   42 1
    44   44   42 1
    45   45   42 1
    46   46   38 1
    47   47   46 1
    48   48   46 1
    49   49   46 1
    50   50   40 1
    51   51   50 1
    52   52   51 2
    53   53   34 1
    54   54   31 1
    55   55   54 ar
    56   56   55 ar
    57   57   56 ar
    58   58   53 ar
    59   24   25 ar
    60   28   29 ar
    61   53   54 ar
    62   57   58 ar
@<TRIPOS>SUBSTRUCTURE
     1 RES1 1
     2 RES2 30

@<TRIPOS>CRYSIN
  18.7260   11.5490   22.6270  90.0000 112.6700  90.0000 231 1

