# MOL2 file generated by ConQuest
# Please check atom types

@<TRIPOS>MOLECULE
PEZGAD
   110   112     3
SMALL
NO_CHARGES
****
Generated from CSD

@<TRIPOS>ATOM
      1 O1         8.3634    4.7604   12.9303 O.2       1 RES1    0.0000
      2 O2         1.5647    4.5839   16.5220 O.2       2 RES2    0.0000
      3 O3         0.6453    2.5648   16.8086 O.3       2 RES2    0.0000
      4 O4         2.3118   -0.7448   12.8417 O.2       2 RES2    0.0000
      5 O5         5.4302    9.4685   16.4708 O.2       1 RES1    0.0000
      6 O6         6.3533   10.0395   16.4677 Du        3 SUP3    0.0000
      7 O7         7.2690    8.3134   16.8820 O.3       1 RES1    0.0000
      8 O8         6.9173    7.9862   17.0246 Du        3 SUP3    0.0000
      9 N1         5.4750   11.4970   23.0735 N.2       1 RES1    0.0000
     10 N2         5.9959   10.4119   22.7812 N.2       1 RES1    0.0000
     11 N3         8.0142    5.6847   13.7415 N.3       1 RES1    0.0000
     12 N4        -0.2409    6.0285   23.0090 N.2       2 RES2    0.0000
     13 N5        -0.3922    4.8601   22.6256 N.2       2 RES2    0.0000
     14 N6         1.9082    0.1508   13.6598 N.3       2 RES2    0.0000
     15 C1         4.9680   12.3779   27.1292 C.ar      1 RES1    0.0000
     16 C2         5.5676   11.1858   26.7907 C.ar      1 RES1    0.0000
     17 C3         4.5485   13.2505   26.1558 C.ar      1 RES1    0.0000
     18 C4         5.7507   10.8533   25.4527 C.ar      1 RES1    0.0000
     19 C5         4.7324   12.9323   24.8267 C.ar      1 RES1    0.0000
     20 C6         5.3360   11.7352   24.4773 C.ar      1 RES1    0.0000
     21 C7         6.1011   10.1708   21.3767 C.ar      1 RES1    0.0000
     22 C8         6.7617    9.0130   20.9965 C.ar      1 RES1    0.0000
     23 C9         5.5664   11.0019   20.4119 C.ar      1 RES1    0.0000
     24 C10        6.8882    8.6855   19.6627 C.ar      1 RES1    0.0000
     25 C11        5.6736   10.6637   19.0801 C.ar      1 RES1    0.0000
     26 C12        6.3387    9.4998   18.6988 C.ar      1 RES1    0.0000
     27 C13        6.3531    9.1460   17.2547 C.2       1 RES1    0.0000
     28 C14        7.2144    7.7339   15.5454 C.3       1 RES1    0.0000
     29 C15        8.6721    7.5250   15.2167 C.3       1 RES1    0.0000
     30 C16        6.4546    6.4433   15.4725 C.3       1 RES1    0.0000
     31 C17        8.8978    6.8761   13.8511 C.3       1 RES1    0.0000
     32 C18        6.5732    5.7162   14.1249 C.3       1 RES1    0.0000
     33 C19       10.3421    6.3814   13.7716 C.3       1 RES1    0.0000
     34 C20        8.6292    7.8478   12.6955 C.3       1 RES1    0.0000
     35 C21        6.1035    4.2833   14.2856 C.3       1 RES1    0.0000
     36 C22        5.7632    6.4059   13.0106 C.3       1 RES1    0.0000
     37 C23       -1.1398    6.8388   27.0044 C.ar      2 RES2    0.0000
     38 C24       -0.4970    7.7617   26.2330 C.ar      2 RES2    0.0000
     39 C25       -1.5264    5.6268   26.4759 C.ar      2 RES2    0.0000
     40 C26       -0.2231    7.4739   24.8964 C.ar      2 RES2    0.0000
     41 C27       -1.2468    5.3199   25.1618 C.ar      2 RES2    0.0000
     42 C28       -0.5933    6.2478   24.3813 C.ar      2 RES2    0.0000
     43 C29       -0.0341    4.6455   21.2576 C.ar      2 RES2    0.0000
     44 C30        0.6215    5.5845   20.4828 C.ar      2 RES2    0.0000
     45 C31       -0.3703    3.4078   20.7253 C.ar      2 RES2    0.0000
     46 C32        0.9356    5.2919   19.1673 C.ar      2 RES2    0.0000
     47 C33       -0.0515    3.1169   19.4071 C.ar      2 RES2    0.0000
     48 C34        0.5971    4.0546   18.6273 C.ar      2 RES2    0.0000
     49 C35        0.9924    3.7897   17.2187 C.2       2 RES2    0.0000
     50 C36        0.9973    2.1829   15.4368 C.3       2 RES2    0.0000
     51 C37        2.4627    1.8274   15.3695 C.3       2 RES2    0.0000
     52 C38        0.1378    0.9786   15.1580 C.3       2 RES2    0.0000
     53 C39        2.8750    1.2177   14.0230 C.3       2 RES2    0.0000
     54 C40        0.4312    0.3140   13.8072 C.3       2 RES2    0.0000
     55 C41        4.2471    0.5589   14.1828 C.3       2 RES2    0.0000
     56 C42        2.9401    2.2675   12.9083 C.3       2 RES2    0.0000
     57 C43       -0.1279    1.1272   12.6402 C.3       2 RES2    0.0000
     58 C44       -0.1966   -1.0759   13.7911 C.3       2 RES2    0.0000
     59 H1         4.8183   12.5898   28.0174 H         1 RES1    0.0000
     60 H2         5.8901   10.5608   27.4083 H         1 RES1    0.0000
     61 H3         4.1161   14.0789   26.4234 H         1 RES1    0.0000
     62 H4         6.1728   10.0334   25.2302 H         1 RES1    0.0000
     63 H5         4.4766   13.4779   24.1411 H         1 RES1    0.0000
     64 H6         7.1615    8.4657   21.6686 H         1 RES1    0.0000
     65 H7         5.1117   11.7794   20.6768 H         1 RES1    0.0000
     66 H8         7.3767    7.9012   19.4089 H         1 RES1    0.0000
     67 H9         5.2698   11.2066   18.4149 H         1 RES1    0.0000
     68 H10        6.8062    8.4097   15.0050 H         1 RES1    0.0000
     69 H11        9.2000    8.4044   15.2291 H         1 RES1    0.0000
     70 H12        9.0612    6.9488   15.8857 H         1 RES1    0.0000
     71 H13        5.4905    6.6118   15.6389 H         1 RES1    0.0000
     72 H14        6.7945    5.8263   16.1552 H         1 RES1    0.0000
     73 H15       10.9602    7.1292   13.9385 H         1 RES1    0.0000
     74 H16       10.5266    5.6769   14.4049 H         1 RES1    0.0000
     75 H17       10.5448    6.0283   12.8585 H         1 RES1    0.0000
     76 H18        9.3817    8.4286   12.6411 H         1 RES1    0.0000
     77 H19        8.5903    7.3357   11.8781 H         1 RES1    0.0000
     78 H20        7.8128    8.4349   12.7883 H         1 RES1    0.0000
     79 H21        6.6416    3.7998   14.9619 H         1 RES1    0.0000
     80 H22        6.1520    3.7841   13.4472 H         1 RES1    0.0000
     81 H23        5.1817    4.2781   14.5702 H         1 RES1    0.0000
     82 H24        5.8768    7.3740   13.0509 H         1 RES1    0.0000
     83 H25        4.8571    6.1516   13.1664 H         1 RES1    0.0000
     84 H26        6.0280    6.0327   12.1385 H         1 RES1    0.0000
     85 H27       -1.3594    7.0556   27.9087 H         2 RES2    0.0000
     86 H28       -0.2318    8.6449   26.6000 H         2 RES2    0.0000
     87 H29       -2.0134    4.9781   26.9849 H         2 RES2    0.0000
     88 H30        0.1979    8.0929   24.3652 H         2 RES2    0.0000
     89 H31       -1.4972    4.4727   24.7456 H         2 RES2    0.0000
     90 H32        0.8582    6.3765   20.8399 H         2 RES2    0.0000
     91 H33       -0.8159    2.7820   21.2814 H         2 RES2    0.0000
     92 H34        1.4434    5.9413   18.6436 H         2 RES2    0.0000
     93 H35       -0.3294    2.2644   19.0511 H         2 RES2    0.0000
     94 H36        0.7840    2.9383   14.8578 H         2 RES2    0.0000
     95 H37        3.0383    2.6479   15.5122 H         2 RES2    0.0000
     96 H38        2.6199    1.1759   16.0352 H         2 RES2    0.0000
     97 H39        0.2874    0.3170   15.8722 H         2 RES2    0.0000
     98 H40       -0.8087    1.2631   15.1929 H         2 RES2    0.0000
     99 H41        4.8671    1.2436   14.4751 H         2 RES2    0.0000
    100 H42        4.5659    0.2000   13.3611 H         2 RES2    0.0000
    101 H43        4.1940   -0.1554   14.8533 H         2 RES2    0.0000
    102 H44        3.7320    2.8209   13.0419 H         2 RES2    0.0000
    103 H45        2.1671    2.8651   12.8834 H         2 RES2    0.0000
    104 H46        2.9747    1.7732   12.0502 H         2 RES2    0.0000
    105 H47        0.0615    2.0741   12.6796 H         2 RES2    0.0000
    106 H48       -1.0785    1.0232   12.6638 H         2 RES2    0.0000
    107 H49        0.2430    0.7597   11.8147 H         2 RES2    0.0000
    108 H50       -0.0459   -1.5286   12.9106 H         2 RES2    0.0000
    109 H51       -1.1404   -1.0621   13.9929 H         2 RES2    0.0000
    110 H52        0.2666   -1.6638   14.4434 H         2 RES2    0.0000
@<TRIPOS>BOND
     1    1   11 1
     2    2   49 2
     3    3   49 1
     4    4   14 1
     5    5   27 2
     6    7   27 1
     7    9   10 2
     8   10   21 1
     9   11   31 1
    10   12   13 2
    11   13   43 1
    12   14   53 1
    13   15   16 ar
    14   16   18 ar
    15   17   15 ar
    16   18   20 ar
    17   19   17 ar
    18   20    9 1
    19   21   22 ar
    20   22   24 ar
    21   23   21 ar
    22   24   26 ar
    23   25   23 ar
    24   26   25 ar
    25   27   26 1
    26   28    7 1
    27   29   28 1
    28   30   28 1
    29   31   29 1
    30   32   11 1
    31   33   31 1
    32   34   31 1
    33   35   32 1
    34   36   32 1
    35   37   38 ar
    36   38   40 ar
    37   39   37 ar
    38   40   42 ar
    39   41   39 ar
    40   42   12 1
    41   43   44 ar
    42   44   46 ar
    43   45   43 ar
    44   46   48 ar
    45   47   45 ar
    46   48   47 ar
    47   49   48 1
    48   50    3 1
    49   51   50 1
    50   52   50 1
    51   53   51 1
    52   54   14 1
    53   55   53 1
    54   56   53 1
    55   57   54 1
    56   58   54 1
    57   59   15 1
    58   60   16 1
    59   61   17 1
    60   62   18 1
    61   63   19 1
    62   64   22 1
    63   65   23 1
    64   66   24 1
    65   67   25 1
    66   68   28 1
    67   69   29 1
    68   70   29 1
    69   71   30 1
    70   72   30 1
    71   73   33 1
    72   74   33 1
    73   75   33 1
    74   76   34 1
    75   77   34 1
    76   78   34 1
    77   79   35 1
    78   80   35 1
    79   81   35 1
    80   82   36 1
    81   83   36 1
    82   84   36 1
    83   85   37 1
    84   86   38 1
    85   87   39 1
    86   88   40 1
    87   89   41 1
    88   90   44 1
    89   91   45 1
    90   92   46 1
    91   93   47 1
    92   94   50 1
    93   95   51 1
    94   96   51 1
    95   97   52 1
    96   98   52 1
    97   99   55 1
    98  100   55 1
    99  101   55 1
   100  102   56 1
   101  103   56 1
   102  104   56 1
   103  105   57 1
   104  106   57 1
   105  107   57 1
   106  108   58 1
   107  109   58 1
   108  110   58 1
   109   19   20 ar
   110   30   32 1
   111   41   42 ar
   112   52   54 1
@<TRIPOS>SUBSTRUCTURE
     1 RES1 1
     2 RES2 2
     3 SUP3 6

@<TRIPOS>CRYSIN
   8.2145   11.7060   23.3450  75.9060  85.6430  71.1900   2 1

