# MOL2 file generated by ConQuest
# Please check atom types

@<TRIPOS>MOLECULE
PEZGIK
    29    31     1
SMALL
NO_CHARGES
****
Generated from CSD

@<TRIPOS>ATOM
      1 O1         2.5714    4.8576   -1.4320 O.2       1 RES1    0.0000
      2 O2         4.6712    0.6761    2.1299 O.3       1 RES1    0.0000
      3 O3         7.5819   -2.1215    4.9376 O.2       1 RES1    0.0000
      4 O4         8.8259   -0.7693    6.0316 O.2       1 RES1    0.0000
      5 N1         5.2854    3.2889    2.8386 N.pl3     1 RES1    0.0000
      6 N2         7.9477   -0.9810    5.2156 N.pl3     1 RES1    0.0000
      7 C1         2.7499    4.8386    0.9177 C.2       1 RES1    0.0000
      8 C2         3.2209    4.5006   -0.4561 C.2       1 RES1    0.0000
      9 C3         4.4702    3.7076   -0.6233 C.2       1 RES1    0.0000
     10 C4         4.9351    3.0551    0.4416 C.2       1 RES1    0.0000
     11 C5         4.2895    3.0725    1.7828 C.3       1 RES1    0.0000
     12 C6         3.2530    4.1341    1.9263 C.2       1 RES1    0.0000
     13 C7         1.6846    5.9191    1.1085 C.3       1 RES1    0.0000
     14 C8         1.5262    6.2667    2.5987 C.3       1 RES1    0.0000
     15 C9         2.1167    7.2082    0.3998 C.3       1 RES1    0.0000
     16 C10        0.3429    5.4215    0.5743 C.3       1 RES1    0.0000
     17 C11        5.1301    3.6238   -2.0045 C.3       1 RES1    0.0000
     18 C12        6.4555    2.8687   -1.9372 C.3       1 RES1    0.0000
     19 C13        4.2055    2.8782   -2.9804 C.3       1 RES1    0.0000
     20 C14        5.4029    5.0456   -2.5297 C.3       1 RES1    0.0000
     21 C15        3.6442    1.6887    2.0790 C.3       1 RES1    0.0000
     22 C16        2.6645    1.2448    1.0359 C.2       1 RES1    0.0000
     23 C17        1.3719    1.2464    1.2030 C.2       1 RES1    0.0000
     24 C18        5.9643    2.2558    3.4111 C.ar      1 RES1    0.0000
     25 C19        5.6505    0.9320    3.0658 C.ar      1 RES1    0.0000
     26 C20        6.3107   -0.1295    3.6346 C.ar      1 RES1    0.0000
     27 C21        7.2915    0.1295    4.5705 C.ar      1 RES1    0.0000
     28 C22        7.6159    1.4202    4.9594 C.ar      1 RES1    0.0000
     29 C23        6.9623    2.4785    4.3760 C.ar      1 RES1    0.0000
@<TRIPOS>BOND
     1    1    8 2
     2    2   21 1
     3    3    6 2
     4    4    6 2
     5    5   11 1
     6    6   27 1
     7    7    8 1
     8    8    9 1
     9    9   10 2
    10   10   11 1
    11   11   12 1
    12   12    7 2
    13   13    7 1
    14   14   13 1
    15   15   13 1
    16   16   13 1
    17   17    9 1
    18   18   17 1
    19   19   17 1
    20   20   17 1
    21   21   11 1
    22   22   21 1
    23   23   22 2
    24   24    5 1
    25   25    2 1
    26   26   25 ar
    27   27   26 ar
    28   28   27 ar
    29   29   24 ar
    30   24   25 ar
    31   28   29 ar
@<TRIPOS>SUBSTRUCTURE
     1 RES1 1

@<TRIPOS>CRYSIN
   7.7510   15.7970   18.4790  90.0000 100.4430  90.0000  14 1

