# MOL2 file generated by ConQuest
# Please check atom types

@<TRIPOS>MOLECULE
PEZPUI
   137   138     2
SMALL
NO_CHARGES
****
Generated from CSD

@<TRIPOS>ATOM
      1 O1         4.9356   16.2103   10.9646 O.3       1 RES1    0.0000
      2 O2         4.3651   14.6378   13.2640 O.3       1 RES1    0.0000
      3 O3         6.7390    9.8688    1.6676 O.2       1 RES1    0.0000
      4 O4         8.7631   10.0162    2.2627 O.2       1 RES1    0.0000
      5 O5        -2.1030   17.3405    5.7095 O.2       1 RES1    0.0000
      6 O6        -2.8962   15.4370    6.3597 O.2       1 RES1    0.0000
      7 O7         8.5387   14.2927   -2.9022 O.2       1 RES1    0.0000
      8 O8         6.4503   13.6983   -3.0521 O.2       1 RES1    0.0000
      9 N1         6.5027    9.8440   10.3343 N.pl3     1 RES1    0.0000
     10 N2         4.8189   12.3755    7.1552 N.pl3     1 RES1    0.0000
     11 H1         5.3544   12.6760    6.2863 H         1 RES1    0.0000
     12 N3         5.3228   13.8610    5.0700 N.2       1 RES1    0.0000
     13 N4         7.8692   13.3766    5.4387 N.pl3     1 RES1    0.0000
     14 H2         7.0400   13.4175    5.9329 H         1 RES1    0.0000
     15 N5         7.5854    9.9192    2.5304 N.pl3     1 RES1    0.0000
     16 N6        -1.9645   16.1949    6.0996 N.pl3     1 RES1    0.0000
     17 N7         7.5515   14.0546   -2.4218 N.pl3     1 RES1    0.0000
     18 C1         8.1709   13.3911    8.3011 C.ar      1 RES1    0.0000
     19 C2         7.6625   14.6932    8.1726 C.ar      1 RES1    0.0000
     20 H3         7.9535   15.2413    7.4520 H         1 RES1    0.0000
     21 C3         6.7667   15.1763    9.0569 C.ar      1 RES1    0.0000
     22 H4         6.4857   16.0806    8.9850 H         1 RES1    0.0000
     23 C4         6.2347   14.3700   10.0926 C.ar      1 RES1    0.0000
     24 C5         5.3752   14.8969   11.0931 C.ar      1 RES1    0.0000
     25 C6         5.0569   14.1767   12.2054 C.ar      1 RES1    0.0000
     26 C7         5.4786   12.8015   12.3247 C.ar      1 RES1    0.0000
     27 C8         5.2316   12.0991   13.4996 C.ar      1 RES1    0.0000
     28 H5         4.8062   12.5366   14.2294 H         1 RES1    0.0000
     29 C9         5.5963   10.7896   13.6159 C.ar      1 RES1    0.0000
     30 H6         5.5134   10.3422   14.4497 H         1 RES1    0.0000
     31 C10        6.0863   10.1160   12.5129 C.ar      1 RES1    0.0000
     32 C11        6.5076    8.7367   12.2987 C.2       1 RES1    0.0000
     33 C12        6.7567    8.6372   10.9753 C.2       1 RES1    0.0000
     34 C13        7.1178    7.7056    9.9717 C.2       1 RES1    0.0000
     35 H7         7.3708    6.8036   10.1217 H         1 RES1    0.0000
     36 C14        7.0423    8.3063    8.7784 C.2       1 RES1    0.0000
     37 H8         7.2841    7.9127    7.9477 H         1 RES1    0.0000
     38 C15        6.5338    9.6551    8.9574 C.2       1 RES1    0.0000
     39 C16        6.0029   10.4211    7.9569 C.2       1 RES1    0.0000
     40 C17        5.0054   11.4676    8.1481 C.2       1 RES1    0.0000
     41 C18        3.9853   11.7010    9.0982 C.2       1 RES1    0.0000
     42 H9         3.8499   11.2245    9.9090 H         1 RES1    0.0000
     43 C19        3.2133   12.7569    8.6224 C.2       1 RES1    0.0000
     44 H10        2.4573   13.1293    9.0599 H         1 RES1    0.0000
     45 C20        3.7321   13.1801    7.3954 C.2       1 RES1    0.0000
     46 C21        3.3088   14.1064    6.4056 C.2       1 RES1    0.0000
     47 C22        4.0297   14.3532    5.2551 C.2       1 RES1    0.0000
     48 C23        3.6052   14.9610    4.0297 C.2       1 RES1    0.0000
     49 H11        2.7763   15.4011    3.8844 H         1 RES1    0.0000
     50 C24        4.5641   14.8060    3.1362 C.2       1 RES1    0.0000
     51 H12        4.5458   15.1014    2.2336 H         1 RES1    0.0000
     52 C25        5.6632   14.0971    3.7941 C.2       1 RES1    0.0000
     53 C26        6.9376   13.7479    3.2311 C.2       1 RES1    0.0000
     54 C27        7.9627   13.3867    4.0863 C.2       1 RES1    0.0000
     55 C28        9.3324   12.9870    3.7819 C.2       1 RES1    0.0000
     56 H13        9.7101   12.8887    2.9159 H         1 RES1    0.0000
     57 C29        9.9677   12.7777    4.9721 C.2       1 RES1    0.0000
     58 H14       10.8782   12.5253    5.0639 H         1 RES1    0.0000
     59 C30        9.0718   12.9933    6.0522 C.2       1 RES1    0.0000
     60 C31        9.2235   12.8797    7.3908 C.2       1 RES1    0.0000
     61 C32        7.6688   12.6069    9.3246 C.ar      1 RES1    0.0000
     62 H15        8.0295   11.7367    9.4531 H         1 RES1    0.0000
     63 C33        6.6561   13.0400   10.1721 C.ar      1 RES1    0.0000
     64 C34        6.1097   12.1858   11.2171 C.ar      1 RES1    0.0000
     65 C35        6.2115   10.7879   11.3027 C.ar      1 RES1    0.0000
     66 C36        3.6631   16.2784   10.3435 C.3       1 RES1    0.0000
     67 H16        3.3862   17.2163   10.2701 H         1 RES1    0.0000
     68 H17        3.7138   15.8816    9.4500 H         1 RES1    0.0000
     69 H18        3.0104   15.7862   10.8835 H         1 RES1    0.0000
     70 C37        4.1041   15.7827   13.5715 C.3       1 RES1    0.0000
     71 H19        3.5843   15.7887   14.4023 H         1 RES1    0.0000
     72 H20        4.9365   16.2832   13.7046 H         1 RES1    0.0000
     73 H21        3.5807   16.2021   12.8555 H         1 RES1    0.0000
     74 C38        6.6784    7.7124   13.2916 C.ar      1 RES1    0.0000
     75 C39        7.2207    8.0880   14.5981 C.ar      1 RES1    0.0000
     76 H22        7.3521    9.0039   14.8169 H         1 RES1    0.0000
     77 C40        7.5381    7.1037   15.5053 C.ar      1 RES1    0.0000
     78 H23        7.8852    7.3240   16.3636 H         1 RES1    0.0000
     79 C41        7.3324    5.7353   15.1198 C.ar      1 RES1    0.0000
     80 H24        7.5654    5.0442   15.7287 H         1 RES1    0.0000
     81 C42        6.8469    5.4185   13.9861 C.ar      1 RES1    0.0000
     82 H25        6.6934    4.5077   13.7643 H         1 RES1    0.0000
     83 C43        6.5415    6.4408   13.0651 C.ar      1 RES1    0.0000
     84 H26        6.2081    6.1791   12.2130 H         1 RES1    0.0000
     85 C44        6.4031   10.1770    6.5708 C.ar      1 RES1    0.0000
     86 C45        5.4757   10.1496    5.5076 C.ar      1 RES1    0.0000
     87 H27        4.5501   10.2083    5.7110 H         1 RES1    0.0000
     88 C46        5.8518   10.0412    4.2026 C.ar      1 RES1    0.0000
     89 H28        5.2056   10.0511    3.5065 H         1 RES1    0.0000
     90 C47        7.1920    9.9157    3.9165 C.ar      1 RES1    0.0000
     91 C48        8.1357    9.8820    4.9094 C.ar      1 RES1    0.0000
     92 H29        9.0535    9.7725    4.6906 H         1 RES1    0.0000
     93 C49        7.7521   10.0067    6.2144 C.ar      1 RES1    0.0000
     94 H30        8.4130    9.9773    6.8967 H         1 RES1    0.0000
     95 C50        1.9277   14.6855    6.4790 C.ar      1 RES1    0.0000
     96 C51        1.7314   16.0108    6.1562 C.ar      1 RES1    0.0000
     97 H31        2.4805   16.5784    6.0139 H         1 RES1    0.0000
     98 C52        0.4431   16.5231    6.0415 C.ar      1 RES1    0.0000
     99 H32        0.2964   17.4352    5.8166 H         1 RES1    0.0000
    100 C53       -0.6097   15.6714    6.2603 C.ar      1 RES1    0.0000
    101 C54       -0.4314   14.3894    6.6473 C.ar      1 RES1    0.0000
    102 H33       -1.1796   13.8353    6.8340 H         1 RES1    0.0000
    103 C55        0.8436   13.8974    6.7666 C.ar      1 RES1    0.0000
    104 H34        0.9772   13.0009    7.0512 H         1 RES1    0.0000
    105 C56        7.1069   13.8094    1.8098 C.ar      1 RES1    0.0000
    106 C57        7.3400   13.9078   -0.9501 C.ar      1 RES1    0.0000
    107 C58       10.4562   12.3539    7.9630 C.ar      1 RES1    0.0000
    108 C59       11.1395   11.2885    7.4138 C.ar      1 RES1    0.0000
    109 H35       10.7652   10.8312    6.6687 H         1 RES1    0.0000
    110 C60       12.3620   10.8646    7.9248 C.ar      1 RES1    0.0000
    111 H36       12.8255   10.1416    7.5193 H         1 RES1    0.0000
    112 C61       12.9045   11.5121    9.0416 C.ar      1 RES1    0.0000
    113 H37       13.7537   11.2504    9.3797 H         1 RES1    0.0000
    114 C62       12.2114   12.5201    9.6413 C.ar      1 RES1    0.0000
    115 H38       12.5656   12.9430   10.4154 H         1 RES1    0.0000
    116 C63       10.9735   12.9341    9.1196 C.ar      1 RES1    0.0000
    117 H39       10.4847   13.6187    9.5617 H         1 RES1    0.0000
    118 C64        6.1161   13.2349    0.9562 C.ar      1 RES1    0.0000
    119 H40        5.3544   12.8142    1.3386 H         1 RES1    0.0000
    120 C65        6.2495   13.2796   -0.4115 C.ar      1 RES1    0.0000
    121 H41        5.5947   12.8803   -0.9745 H         1 RES1    0.0000
    122 C66        8.2820   14.3575   -0.2433 C.ar      1 RES1    0.0000
    123 H42        9.0465   14.7358   -0.6609 H         1 RES1    0.0000
    124 C67        8.2101   14.3041    1.1872 C.ar      1 RES1    0.0000
    125 H43        8.9419   14.6161    1.7058 H         1 RES1    0.0000
    126 C68        3.1993   14.9077   13.4629 Du        2 SUP2    0.0000
    127 H44        3.0848   15.2245   14.3793 Du        2 SUP2    0.0000
    128 H45        2.9197   15.6151   12.8357 Du        2 SUP2    0.0000
    129 H46        2.6485   14.1117   13.3145 Du        2 SUP2    0.0000
    130 C69        7.0591   14.9893    1.2851 Du        2 SUP2    0.0000
    131 H47        6.8741   15.7399    1.8435 Du        2 SUP2    0.0000
    132 C70        7.2725   15.1927   -0.1469 Du        2 SUP2    0.0000
    133 H48        7.3643   16.0534   -0.5385 Du        2 SUP2    0.0000
    134 C71        7.9114   12.9721   -0.3901 Du        2 SUP2    0.0000
    135 H49        8.4801   12.3555   -0.8445 Du        2 SUP2    0.0000
    136 C72        7.6109   12.9035    1.1933 Du        2 SUP2    0.0000
    137 H50        7.8468   12.1118    1.6706 Du        2 SUP2    0.0000
@<TRIPOS>BOND
     1    1   24 1
     2    2   25 1
     3    3   15 2
     4    4   15 2
     5    5   16 2
     6    6   16 2
     7    7   17 2
     8    8   17 2
     9    9   33 1
    10   10   11 1
    11   12   47 1
    12   13   14 1
    13   15   90 1
    14   16  100 1
    15   17  106 1
    16   18   19 ar
    17   19   20 1
    18   21   19 ar
    19   22   21 1
    20   23   21 ar
    21   24   23 ar
    22   25   24 ar
    23   26   25 ar
    24   27   26 ar
    25   28   27 1
    26   29   27 ar
    27   30   29 1
    28   31   29 ar
    29   32   31 1
    30   33   32 2
    31   34   33 1
    32   35   34 1
    33   36   34 2
    34   37   36 1
    35   38    9 1
    36   39   38 2
    37   40   10 1
    38   41   40 2
    39   42   41 1
    40   43   41 1
    41   44   43 1
    42   45   10 1
    43   46   45 1
    44   47   46 2
    45   48   47 1
    46   49   48 1
    47   50   48 2
    48   51   50 1
    49   52   12 2
    50   53   52 1
    51   54   13 1
    52   55   54 1
    53   56   55 1
    54   57   55 2
    55   58   57 1
    56   59   13 1
    57   60   18 1
    58   61   18 ar
    59   62   61 1
    60   63   23 ar
    61   64   26 ar
    62   65    9 1
    63   66    1 1
    64   67   66 1
    65   68   66 1
    66   69   66 1
    67   70    2 1
    68   71   70 1
    69   72   70 1
    70   73   70 1
    71   74   32 1
    72   75   74 ar
    73   76   75 1
    74   77   75 ar
    75   78   77 1
    76   79   77 ar
    77   80   79 1
    78   81   79 ar
    79   82   81 1
    80   83   74 ar
    81   84   83 1
    82   85   39 1
    83   86   85 ar
    84   87   86 1
    85   88   86 ar
    86   89   88 1
    87   90   88 ar
    88   91   90 ar
    89   92   91 1
    90   93   85 ar
    91   94   93 1
    92   95   46 1
    93   96   95 ar
    94   97   96 1
    95   98   96 ar
    96   99   98 1
    97  100   98 ar
    98  101  100 ar
    99  102  101 1
   100  103   95 ar
   101  104  103 1
   102  105   53 1
   103  106  120 ar
   104  107   60 1
   105  108  107 ar
   106  109  108 1
   107  110  108 ar
   108  111  110 1
   109  112  110 ar
   110  113  112 1
   111  114  112 ar
   112  115  114 1
   113  116  107 ar
   114  117  116 1
   115  118  105 ar
   116  119  118 1
   117  120  118 ar
   118  121  120 1
   119  122  106 ar
   120  123  122 1
   121  124  105 ar
   122  125  124 1
   123   31   65 ar
   124   36   38 1
   125   39   40 1
   126   43   45 2
   127   50   52 1
   128   53   54 2
   129   57   59 1
   130   59   60 2
   131   61   63 ar
   132   63   64 ar
   133   64   65 ar
   134   81   83 ar
   135   91   93 ar
   136  101  103 ar
   137  114  116 ar
   138  122  124 ar
@<TRIPOS>SUBSTRUCTURE
     1 RES1 1
     2 SUP2 126

@<TRIPOS>CRYSIN
  13.8200   15.0890   16.7540  73.4000  69.8200  77.7000   2 1

