# MOL2 file generated by ConQuest
# Please check atom types

@<TRIPOS>MOLECULE
PEZPIV
    31    33     1
SMALL
NO_CHARGES
****
Generated from CSD

@<TRIPOS>ATOM
      1 C1         8.6238   -0.2883   18.0379 C.3       1 RES1    0.0000
      2 H1         8.4284   -0.9721   18.6835 H         1 RES1    0.0000
      3 H2         8.9603    0.4897   18.4890 H         1 RES1    0.0000
      4 H3         9.2831   -0.6116   17.4196 H         1 RES1    0.0000
      5 C2         7.3846    0.0635   17.2999 C.2       1 RES1    0.0000
      6 C3         6.0559    0.7750   15.8735 C.2       1 RES1    0.0000
      7 C4         4.0037    0.3956   16.6024 C.2       1 RES1    0.0000
      8 C5         2.9082   -0.0292   17.4865 C.ar      1 RES1    0.0000
      9 C6         1.5997    0.2124   17.0987 C.ar      1 RES1    0.0000
     10 H4         1.4270    0.6276   16.2862 H         1 RES1    0.0000
     11 C7         0.5597   -0.1584   17.9126 C.ar      1 RES1    0.0000
     12 H5        -0.3202    0.0058   17.6585 H         1 RES1    0.0000
     13 C8         0.8333   -0.7780   19.1138 C.ar      1 RES1    0.0000
     14 C9         2.1216   -1.0130   19.5188 C.ar      1 RES1    0.0000
     15 H6         2.2880   -1.4282   20.3335 H         1 RES1    0.0000
     16 C10        3.1717   -0.6298   18.7090 C.ar      1 RES1    0.0000
     17 H7         4.0490   -0.7721   18.9807 H         1 RES1    0.0000
     18 C11        5.3727    1.9420   13.7809 C.2       1 RES1    0.0000
     19 C12        4.1965    2.5010   13.0898 C.3       1 RES1    0.0000
     20 H8         4.4789    2.9484   12.2890 H         1 RES1    0.0000
     21 H9         3.7541    3.1272   13.6668 H         1 RES1    0.0000
     22 H10        3.5914    1.7909   12.8640 H         1 RES1    0.0000
     23 N1         7.3682    0.6926   16.0879 N.2       1 RES1    0.0000
     24 N2         5.1382    1.2560   14.9704 N.am      1 RES1    0.0000
     25 N3         3.8537    1.0173   15.4448 N.2       1 RES1    0.0000
     26 N4         5.3399    0.2350   16.8737 N.pl3     1 RES1    0.0000
     27 N5         6.1757   -0.2438   17.8432 N.2       1 RES1    0.0000
     28 N6        -0.2799   -1.2137   19.9821 N.pl3     1 RES1    0.0000
     29 O1         6.5274    2.0252   13.4068 O.2       1 RES1    0.0000
     30 O2        -1.3942   -0.9341   19.6321 O.2       1 RES1    0.0000
     31 O3        -0.0189   -1.8325   20.9757 O.2       1 RES1    0.0000
@<TRIPOS>BOND
     1    1    2 1
     2    3    1 1
     3    4    1 1
     4    5    1 1
     5    6   23 2
     6    7    8 1
     7    8    9 ar
     8    9   10 1
     9   11    9 ar
    10   12   11 1
    11   13   11 ar
    12   14   13 ar
    13   15   14 1
    14   16    8 ar
    15   17   16 1
    16   18   19 1
    17   19   20 1
    18   21   19 1
    19   22   19 1
    20   23    5 1
    21   24    6 1
    22   25    7 2
    23   26    6 1
    24   27    5 2
    25   28   13 1
    26   29   18 2
    27   30   28 2
    28   31   28 2
    29    7   26 1
    30   14   16 ar
    31   18   24 1
    32   24   25 1
    33   26   27 1
@<TRIPOS>SUBSTRUCTURE
     1 RES1 1

@<TRIPOS>CRYSIN
  12.6060    7.2980   27.7780  90.0000  90.0000  90.0000  61 1

