# MOL2 file generated by ConQuest
# Please check atom types

@<TRIPOS>MOLECULE
PEZQAP
   123   137     1
SMALL
NO_CHARGES
****
Generated from CSD

@<TRIPOS>ATOM
      1 C1         5.7013    1.2836    8.1425 C.ar      1 RES1    0.0000
      2 C2         7.0955    1.5894    8.0446 C.ar      1 RES1    0.0000
      3 C3         7.9134    1.6488    9.1522 C.ar      1 RES1    0.0000
      4 H1         8.8369    1.7030    9.0629 H         1 RES1    0.0000
      5 C4         7.3087    1.6242   10.4225 C.ar      1 RES1    0.0000
      6 O1         9.4346    1.4315   11.3792 O.3       1 RES1    0.0000
      7 C5         8.0974    1.5382   11.6255 C.ar      1 RES1    0.0000
      8 O2         8.2184    1.0621   13.9618 O.3       1 RES1    0.0000
      9 C6         7.4926    1.4112   12.8510 C.ar      1 RES1    0.0000
     10 C7         6.0571    1.5380   12.9865 C.ar      1 RES1    0.0000
     11 C8         5.4131    1.3706   14.2349 C.ar      1 RES1    0.0000
     12 H2         5.9166    1.1160   14.9742 H         1 RES1    0.0000
     13 C9         4.0627    1.5759   14.3809 C.ar      1 RES1    0.0000
     14 H3         3.6434    1.3904   15.1893 H         1 RES1    0.0000
     15 C10        3.3202    2.0710   13.2920 C.ar      1 RES1    0.0000
     16 C11        1.9592    2.5414   13.1942 C.2       1 RES1    0.0000
     17 C12        1.8261    3.0303   11.9141 C.2       1 RES1    0.0000
     18 C13        0.8807    3.6049   11.0024 C.2       1 RES1    0.0000
     19 H4        -0.0167    3.7701   11.1789 H         1 RES1    0.0000
     20 C14        1.5232    3.8662    9.8389 C.2       1 RES1    0.0000
     21 H5         1.1191    4.1878    9.0661 H         1 RES1    0.0000
     22 C15        2.9348    3.5692    9.9786 C.2       1 RES1    0.0000
     23 C16        3.9916    4.0775    9.2320 C.2       1 RES1    0.0000
     24 C17        5.1991    4.4833    9.9249 C.2       1 RES1    0.0000
     25 C18        5.2593    5.0502   11.2073 C.2       1 RES1    0.0000
     26 H6         4.5427    5.1511   11.7907 H         1 RES1    0.0000
     27 C19        6.5588    5.4325   11.4549 C.2       1 RES1    0.0000
     28 H7         6.8711    5.8486   12.2257 H         1 RES1    0.0000
     29 C20        7.3333    5.0795   10.3255 C.2       1 RES1    0.0000
     30 C21        8.7379    5.2253   10.1217 C.2       1 RES1    0.0000
     31 C22        9.4210    4.7251    9.0201 C.2       1 RES1    0.0000
     32 C23       10.8605    4.6634    8.8564 C.2       1 RES1    0.0000
     33 H8        11.4987    5.0552    9.4071 H         1 RES1    0.0000
     34 C24       11.0940    3.9272    7.7486 C.2       1 RES1    0.0000
     35 H9        11.9237    3.7134    7.3867 H         1 RES1    0.0000
     36 C25        9.7963    3.5365    7.2360 C.2       1 RES1    0.0000
     37 C26        9.5780    2.6961    6.0821 C.2       1 RES1    0.0000
     38 C27        8.4044    2.0141    5.8095 C.2       1 RES1    0.0000
     39 C28        7.9009    1.6620    4.4888 C.2       1 RES1    0.0000
     40 H10        8.3998    1.6934    3.7045 H         1 RES1    0.0000
     41 C29        6.6064    1.2821    4.5657 C.2       1 RES1    0.0000
     42 H11        6.0590    1.0488    3.8511 H         1 RES1    0.0000
     43 C30        6.2297    1.3042    5.9550 C.2       1 RES1    0.0000
     44 C31        5.1921    1.0281    6.8138 C.2       1 RES1    0.0000
     45 C32        5.1103    1.3728    9.3967 C.ar      1 RES1    0.0000
     46 H12        4.1917    1.2548    9.4836 H         1 RES1    0.0000
     47 C33        5.8844    1.6386   10.5299 C.ar      1 RES1    0.0000
     48 C34        5.2882    1.8352   11.8226 C.ar      1 RES1    0.0000
     49 C35        3.9618    2.2529   12.0522 C.ar      1 RES1    0.0000
     50 N1         3.0365    2.9255   11.2243 N.pl3     1 RES1    0.0000
     51 N2         6.4691    4.5209    9.4143 N.pl3     1 RES1    0.0000
     52 H13        6.6759    4.1771    8.6136 H         1 RES1    0.0000
     53 N3         8.8088    4.0415    7.9841 N.2       1 RES1    0.0000
     54 N4         7.3647    1.7065    6.6753 N.pl3     1 RES1    0.0000
     55 C36        0.9515    2.5696   14.2655 C.ar      1 RES1    0.0000
     56 C37        0.2692    3.7533   14.5541 C.ar      1 RES1    0.0000
     57 H14        0.4247    4.5131   14.0405 H         1 RES1    0.0000
     58 C38       -0.6386    3.8045   15.6004 C.ar      1 RES1    0.0000
     59 H15       -1.0748    4.6025   15.7964 H         1 RES1    0.0000
     60 C39       -0.8999    2.6734   16.3557 C.ar      1 RES1    0.0000
     61 H16       -1.5135    2.7100   17.0536 H         1 RES1    0.0000
     62 C40       -0.2430    1.4853   16.0676 C.ar      1 RES1    0.0000
     63 H17       -0.4237    0.7214   16.5660 H         1 RES1    0.0000
     64 C41        0.6821    1.4375   15.0372 C.ar      1 RES1    0.0000
     65 H18        1.1283    0.6416   14.8579 H         1 RES1    0.0000
     66 C42        3.8105    4.4017    7.8048 C.ar      1 RES1    0.0000
     67 C43        2.8781    3.7067    7.0182 C.ar      1 RES1    0.0000
     68 H19        2.3683    3.0332    7.4059 H         1 RES1    0.0000
     69 C44        2.7017    4.0024    5.6753 C.ar      1 RES1    0.0000
     70 H20        2.0577    3.5613    5.1704 H         1 RES1    0.0000
     71 O3         2.5908    4.5995    3.0238 O.2       1 RES1    0.0000
     72 N5         3.3917    5.2574    3.6750 N.pl3     1 RES1    0.0000
     73 C45        3.5117    4.9745    5.1038 C.ar      1 RES1    0.0000
     74 O4         4.1236    6.1180    3.1907 O.2       1 RES1    0.0000
     75 C46        4.4550    5.6684    5.8398 C.ar      1 RES1    0.0000
     76 H21        4.9928    6.3093    5.4333 H         1 RES1    0.0000
     77 C47        4.5858    5.3970    7.1842 C.ar      1 RES1    0.0000
     78 H22        5.1981    5.8813    7.6911 H         1 RES1    0.0000
     79 C48        9.5101    5.9220   11.1881 C.ar      1 RES1    0.0000
     80 C49       10.3112    7.0235   10.8699 C.ar      1 RES1    0.0000
     81 H23       10.3702    7.3072    9.9871 H         1 RES1    0.0000
     82 C50       11.0174    7.6957   11.8511 C.ar      1 RES1    0.0000
     83 H24       11.5485    8.4281   11.6362 H         1 RES1    0.0000
     84 O5        12.3038    8.9555   13.8914 O.2       1 RES1    0.0000
     85 N6        11.6406    7.9820   14.2149 N.pl3     1 RES1    0.0000
     86 C51       10.9168    7.2549   13.1634 C.ar      1 RES1    0.0000
     87 O6        11.5330    7.5824   15.3699 O.2       1 RES1    0.0000
     88 C52       10.1358    6.1683   13.5122 C.ar      1 RES1    0.0000
     89 H25       10.0803    5.8918   14.3990 H         1 RES1    0.0000
     90 C53        9.4408    5.5024   12.5256 C.ar      1 RES1    0.0000
     91 H26        8.9195    4.7657   12.7483 H         1 RES1    0.0000
     92 C54       10.6225    2.6605    5.0299 C.ar      1 RES1    0.0000
     93 C55       10.9739    1.4436    4.4305 C.ar      1 RES1    0.0000
     94 H27       10.5904    0.6530    4.7338 H         1 RES1    0.0000
     95 C56       11.8864    1.4074    3.3902 C.ar      1 RES1    0.0000
     96 H28       12.1225    0.6012    2.9923 H         1 RES1    0.0000
     97 O7        13.9961    1.5206    1.6450 O.2       1 RES1    0.0000
     98 N7        13.3780    2.5740    1.8371 N.pl3     1 RES1    0.0000
     99 C57       12.4388    2.6000    2.9563 C.ar      1 RES1    0.0000
    100 O8        13.4942    3.5755    1.1483 O.2       1 RES1    0.0000
    101 C58       12.1234    3.8220    3.5278 C.ar      1 RES1    0.0000
    102 H29       12.5027    4.6094    3.2106 H         1 RES1    0.0000
    103 C59       11.2307    3.8388    4.5818 C.ar      1 RES1    0.0000
    104 H30       11.0313    4.6447    4.9999 H         1 RES1    0.0000
    105 C60        3.8771    0.4970    6.4395 C.ar      1 RES1    0.0000
    106 C61        3.3013    0.8260    5.2059 C.ar      1 RES1    0.0000
    107 H31        3.7493    1.3974    4.6255 H         1 RES1    0.0000
    108 C62        2.0649    0.3048    4.8414 C.ar      1 RES1    0.0000
    109 H32        1.6868    0.5331    4.0232 H         1 RES1    0.0000
    110 C63        1.3920   -0.5581    5.6992 C.ar      1 RES1    0.0000
    111 H33        0.5585   -0.8966    5.4620 H         1 RES1    0.0000
    112 C64        1.9677   -0.9096    6.9049 C.ar      1 RES1    0.0000
    113 H34        1.5242   -1.4992    7.4712 H         1 RES1    0.0000
    114 C65        3.1988   -0.3924    7.2789 C.ar      1 RES1    0.0000
    115 H35        3.5757   -0.6378    8.0926 H         1 RES1    0.0000
    116 C66       10.4127    1.7989   12.3387 C.3       1 RES1    0.0000
    117 H36       11.2755    1.8288   11.9198 H         1 RES1    0.0000
    118 H37       10.4230    1.1521   13.0479 H         1 RES1    0.0000
    119 H38       10.2008    2.6641   12.6974 H         1 RES1    0.0000
    120 C67        8.3882    2.0808   14.9523 C.3       1 RES1    0.0000
    121 H39        8.4320    1.6774   15.8219 H         1 RES1    0.0000
    122 H40        7.6447    2.6870   14.9185 H         1 RES1    0.0000
    123 H41        9.2018    2.5614   14.7814 H         1 RES1    0.0000
@<TRIPOS>BOND
     1    1    2 ar
     2    2    3 ar
     3    3    4 1
     4    5    3 ar
     5    6    7 1
     6    7    5 ar
     7    8    9 1
     8    9    7 ar
     9   10    9 ar
    10   11   10 ar
    11   12   11 1
    12   13   11 ar
    13   14   13 1
    14   15   13 ar
    15   16   15 1
    16   17   16 2
    17   18   17 1
    18   19   18 1
    19   20   18 2
    20   21   20 1
    21   22   20 1
    22   23   22 2
    23   24   23 1
    24   25   24 2
    25   26   25 1
    26   27   25 1
    27   28   27 1
    28   29   27 2
    29   30   29 1
    30   31   30 2
    31   32   31 1
    32   33   32 1
    33   34   32 2
    34   35   34 1
    35   36   34 1
    36   37   36 1
    37   38   37 2
    38   39   38 1
    39   40   39 1
    40   41   39 2
    41   42   41 1
    42   43   41 1
    43   44    1 1
    44   45    1 ar
    45   46   45 1
    46   47    5 ar
    47   48   10 ar
    48   49   15 ar
    49   50   17 1
    50   51   24 1
    51   52   51 1
    52   53   31 1
    53   54    2 1
    54   55   16 1
    55   56   55 ar
    56   57   56 1
    57   58   56 ar
    58   59   58 1
    59   60   58 ar
    60   61   60 1
    61   62   60 ar
    62   63   62 1
    63   64   55 ar
    64   65   64 1
    65   66   23 1
    66   67   66 ar
    67   68   67 1
    68   69   67 ar
    69   70   69 1
    70   71   72 2
    71   72   73 1
    72   73   69 ar
    73   74   72 2
    74   75   73 ar
    75   76   75 1
    76   77   66 ar
    77   78   77 1
    78   79   30 1
    79   80   79 ar
    80   81   80 1
    81   82   80 ar
    82   83   82 1
    83   84   85 2
    84   85   86 1
    85   86   82 ar
    86   87   85 2
    87   88   86 ar
    88   89   88 1
    89   90   79 ar
    90   91   90 1
    91   92   37 1
    92   93   92 ar
    93   94   93 1
    94   95   93 ar
    95   96   95 1
    96   97   98 2
    97   98   99 1
    98   99   95 ar
    99  100   98 2
   100  101   99 ar
   101  102  101 1
   102  103   92 ar
   103  104  103 1
   104  105   44 1
   105  106  105 ar
   106  107  106 1
   107  108  106 ar
   108  109  108 1
   109  110  108 ar
   110  111  110 1
   111  112  110 ar
   112  113  112 1
   113  114  105 ar
   114  115  114 1
   115  116    6 1
   116  117  116 1
   117  118  116 1
   118  119  116 1
   119  120    8 1
   120  121  120 1
   121  122  120 1
   122  123  120 1
   123   22   50 1
   124   29   51 1
   125   36   53 2
   126   38   54 1
   127   43   44 2
   128   43   54 1
   129   45   47 ar
   130   47   48 ar
   131   48   49 ar
   132   49   50 1
   133   62   64 ar
   134   75   77 ar
   135   88   90 ar
   136  101  103 ar
   137  112  114 ar
@<TRIPOS>SUBSTRUCTURE
     1 RES1 1

@<TRIPOS>CRYSIN
  12.7851   13.5259   16.0687  88.9840  82.6220  74.7710   2 1

