# MOL2 file generated by ConQuest
# Please check atom types

@<TRIPOS>MOLECULE
PHAZOX
    16    18     1
SMALL
USER_CHARGES
****
Generated from CSD

@<TRIPOS>ATOM
      1 C1         0.0573    0.6708    1.1910 C.ar      1 RES1    0.0000
      2 C2         0.1765    1.3783    2.4414 C.ar      1 RES1    0.0000
      3 C3         1.3583    1.9346    2.8082 C.ar      1 RES1    0.0000
      4 C4         2.5208    1.8160    1.9870 C.ar      1 RES1    0.0000
      5 C5         2.4364    1.1329    0.7811 C.ar      1 RES1    0.0000
      6 C6         1.2450    0.5562    0.3623 C.ar      1 RES1    0.0000
      7 N1        -1.1051    0.1227    0.8093 N.pl3     1 RES1    1.0000
      8 O1        -2.1879    0.2495    1.5637 O.2       1 RES1   -1.0000
      9 N1B        1.1051   -0.1227   -0.8093 N.pl3     1 RES1    1.0000
     10 C6B       -1.2450   -0.5562   -0.3623 C.ar      1 RES1    0.0000
     11 C1B       -0.0573   -0.6708   -1.1910 C.ar      1 RES1    0.0000
     12 O1B        2.1879   -0.2495   -1.5637 O.2       1 RES1   -1.0000
     13 C5B       -2.4364   -1.1329   -0.7811 C.ar      1 RES1    0.0000
     14 C2B       -0.1765   -1.3783   -2.4414 C.ar      1 RES1    0.0000
     15 C4B       -2.5208   -1.8160   -1.9870 C.ar      1 RES1    0.0000
     16 C3B       -1.3583   -1.9346   -2.8082 C.ar      1 RES1    0.0000
@<TRIPOS>BOND
     1    1    2 ar
     2    2    3 ar
     3    3    4 ar
     4    4    5 ar
     5    5    6 ar
     6    6    1 ar
     7    7    1 ar
     8    8    7 1
     9    9    6 ar
    10   10    7 ar
    11   11    9 ar
    12   12    9 1
    13   13   10 ar
    14   14   11 ar
    15   15   13 ar
    16   16   14 ar
    17   10   11 ar
    18   15   16 ar
@<TRIPOS>SUBSTRUCTURE
     1 RES1 1

@<TRIPOS>CRYSIN
   7.7500    4.0900   15.3600  90.0000 104.8000  90.0000  14 1

