# MOL2 file generated by ConQuest
# Please check atom types

@<TRIPOS>MOLECULE
PHTHIA
    58    62     2
SMALL
NO_CHARGES
****
Generated from CSD

@<TRIPOS>ATOM
      1 N1        18.7530    4.5081    1.2905 N.pl3     1 RES1    0.0000
      2 N2        18.0374    3.6076    0.7557 N.2       1 RES1    0.0000
      3 N3        16.6866    3.8990    0.8720 N.am      1 RES1    0.0000
      4 C1        15.7907    2.9006    1.2983 C.2       1 RES1    0.0000
      5 C2        14.4399    3.4775    1.0681 C.ar      1 RES1    0.0000
      6 C3        13.1973    2.9605    1.3913 C.ar      1 RES1    0.0000
      7 C4        12.0878    3.6986    0.9836 C.ar      1 RES1    0.0000
      8 C5        12.2265    4.8628    0.2837 C.ar      1 RES1    0.0000
      9 C6        13.4552    5.3913   -0.0566 C.ar      1 RES1    0.0000
     10 C7        14.5730    4.6590    0.3666 C.ar      1 RES1    0.0000
     11 C8        16.0375    4.9388    0.1790 C.2       1 RES1    0.0000
     12 O1        16.5729    5.8013   -0.4596 O.2       1 RES1    0.0000
     13 O2        16.1124    1.8286    1.7796 O.2       1 RES1    0.0000
     14 O3        18.3203    5.5237    1.8393 O.2       1 RES1    0.0000
     15 C9        20.1953    4.3009    1.2557 C.ar      1 RES1    0.0000
     16 C10       20.9886    5.3038    1.7556 C.ar      1 RES1    0.0000
     17 C11       22.3810    5.1288    1.7626 C.ar      1 RES1    0.0000
     18 C12       22.9024    3.9393    1.2704 C.ar      1 RES1    0.0000
     19 C13       22.1092    2.9398    0.7852 C.ar      1 RES1    0.0000
     20 C14       20.7195    3.1275    0.7441 C.ar      1 RES1    0.0000
     21 H1        13.1002    2.0347    1.9385 H         1 RES1    0.0000
     22 H2        11.0976    3.3394    1.2247 H         1 RES1    0.0000
     23 H3        11.3278    5.3856   -0.0124 H         1 RES1    0.0000
     24 H4        13.5523    6.3114   -0.6162 H         1 RES1    0.0000
     25 H5        20.5309    6.1939    2.1610 H         1 RES1    0.0000
     26 H6        23.0245    5.9199    2.1168 H         1 RES1    0.0000
     27 H7        23.9731    3.7930    1.2952 H         1 RES1    0.0000
     28 H8        22.5446    2.0186    0.4255 H         1 RES1    0.0000
     29 H9        20.0649    2.3802    0.3193 H         1 RES1    0.0000
     30 N4         9.2531    7.4456    3.0399 N.pl3     2 RES2    0.0000
     31 N5         9.8577    6.4242    2.7718 N.2       2 RES2    0.0000
     32 N6        11.2584    6.6154    3.0810 N.am      2 RES2    0.0000
     33 C15       12.1100    7.5262    2.4664 C.2       2 RES2    0.0000
     34 C16       13.4608    7.1232    2.8919 C.ar      2 RES2    0.0000
     35 C17       14.6978    7.6402    2.5656 C.ar      2 RES2    0.0000
     36 C18       15.8212    6.9965    3.0539 C.ar      2 RES2    0.0000
     37 C19       15.7158    5.8243    3.8375 C.ar      2 RES2    0.0000
     38 C20       14.4538    5.3211    4.1483 C.ar      2 RES2    0.0000
     39 C21       13.3470    5.9820    3.6554 C.ar      2 RES2    0.0000
     40 C22       11.9103    5.6009    3.7871 C.2       2 RES2    0.0000
     41 O4        11.3833    4.6682    4.3382 O.2       2 RES2    0.0000
     42 O5        11.7744    8.4209    1.7238 O.2       2 RES2    0.0000
     43 O6         9.6386    8.5568    3.5352 O.2       2 RES2    0.0000
     44 C23        7.7358    7.3765    2.8090 C.ar      2 RES2    0.0000
     45 C24        6.9620    8.4060    3.2329 C.ar      2 RES2    0.0000
     46 C25        5.5973    8.2920    3.0593 C.ar      2 RES2    0.0000
     47 C26        5.0592    7.1715    2.4524 C.ar      2 RES2    0.0000
     48 C27        5.8497    6.1421    2.0222 C.ar      2 RES2    0.0000
     49 C28        7.2449    6.2561    2.1912 C.ar      2 RES2    0.0000
     50 H10       14.7894    8.5246    1.9517 H         2 RES2    0.0000
     51 H11       16.8031    7.3857    2.8330 H         2 RES2    0.0000
     52 H12       16.6061    5.3107    4.1685 H         2 RES2    0.0000
     53 H13       14.3456    4.4563    4.7847 H         2 RES2    0.0000
     54 H14        7.4086    9.2592    3.7228 H         2 RES2    0.0000
     55 H15        4.9511    9.1049    3.3554 H         2 RES2    0.0000
     56 H16        3.9858    7.0932    2.3393 H         2 RES2    0.0000
     57 H17        5.4087    5.2762    1.5510 H         2 RES2    0.0000
     58 H18        7.9161    5.4788    1.8556 H         2 RES2    0.0000
@<TRIPOS>BOND
     1    1    2 un
     2    2    3 1
     3    3    4 1
     4    4    5 1
     5    5    6 ar
     6    6    7 ar
     7    7    8 ar
     8    8    9 ar
     9    9   10 ar
    10   10    5 ar
    11   11    3 1
    12   12   11 2
    13   13    4 2
    14   14    1 un
    15   15    1 1
    16   16   15 ar
    17   17   16 ar
    18   18   17 ar
    19   19   18 ar
    20   20   15 ar
    21   21    6 1
    22   22    7 1
    23   23    8 1
    24   24    9 1
    25   25   16 1
    26   26   17 1
    27   27   18 1
    28   28   19 1
    29   29   20 1
    30   30   31 un
    31   31   32 1
    32   32   33 1
    33   33   34 1
    34   34   35 ar
    35   35   36 ar
    36   36   37 ar
    37   37   38 ar
    38   38   39 ar
    39   39   34 ar
    40   40   32 1
    41   41   40 2
    42   42   33 2
    43   43   30 un
    44   44   30 1
    45   45   44 ar
    46   46   45 ar
    47   47   46 ar
    48   48   47 ar
    49   49   44 ar
    50   50   35 1
    51   51   36 1
    52   52   37 1
    53   53   38 1
    54   54   45 1
    55   55   46 1
    56   56   47 1
    57   57   48 1
    58   58   49 1
    59   10   11 1
    60   19   20 ar
    61   39   40 1
    62   48   49 ar
@<TRIPOS>SUBSTRUCTURE
     1 RES1 1
     2 RES2 30

@<TRIPOS>CRYSIN
  27.7370   11.5150    7.7510  90.0000  90.0000  90.0000  29 4

