# MOL2 file generated by ConQuest
# Please check atom types

@<TRIPOS>MOLECULE
PIBCAG
   124   109     2
SMALL
NO_CHARGES
****
Generated from CSD

@<TRIPOS>ATOM
      1 C1         3.1222    3.0927    4.8259 C.ar      1 RES1    0.0000
      2 C2         3.4517    1.6710    5.2374 C.3       1 RES1    0.0000
      3 C3         4.5672    1.6406    6.2732 C.ar      1 RES1    0.0000
      4 C4         4.3604    1.2395    7.6015 C.ar      1 RES1    0.0000
      5 C5         5.3606    1.4671    8.5540 C.ar      1 RES1    0.0000
      6 C6         6.5506    2.0824    8.2002 C.ar      1 RES1    0.0000
      7 C7         6.8074    2.4296    6.8772 C.ar      1 RES1    0.0000
      8 C8         8.0559    3.1776    6.4721 C.3       1 RES1    0.0000
      9 C9         7.7254    4.5810    6.0139 C.ar      1 RES1    0.0000
     10 C10        6.9196    5.3892    6.8117 C.ar      1 RES1    0.0000
     11 C11        6.5718    6.6695    6.4200 C.ar      1 RES1    0.0000
     12 C12        6.9905    7.1399    5.1897 C.ar      1 RES1    0.0000
     13 C13        7.7615    6.3511    4.3404 C.ar      1 RES1    0.0000
     14 C14        8.0306    6.8242    2.9210 C.3       1 RES1    0.0000
     15 C15        6.7070    7.1432    2.2506 C.ar      1 RES1    0.0000
     16 C16        6.3373    8.4580    2.0056 C.ar      1 RES1    0.0000
     17 C17        5.0430    8.7737    1.6245 C.ar      1 RES1    0.0000
     18 C18        4.0885    7.7753    1.5250 C.ar      1 RES1    0.0000
     19 C19        4.4201    6.4385    1.7397 C.ar      1 RES1    0.0000
     20 C20        3.3703    5.3548    1.7329 C.3       1 RES1    0.0000
     21 C21        3.0694    4.8598    3.1404 C.ar      1 RES1    0.0000
     22 C22        2.5991    5.7415    4.1112 C.ar      1 RES1    0.0000
     23 C23        2.3710    5.3161    5.4120 C.ar      1 RES1    0.0000
     24 C24        2.6552    4.0089    5.7662 C.ar      1 RES1    0.0000
     25 C25        5.8212    2.1539    5.9260 C.ar      1 RES1    0.0000
     26 C26        8.1525    5.0870    4.7814 C.ar      1 RES1    0.0000
     27 C27        5.7525    6.1367    2.0419 C.ar      1 RES1    0.0000
     28 C28        3.2831    3.5310    3.5043 C.ar      1 RES1    0.0000
     29 O1         6.0583    2.5016    4.6172 O.3       1 RES1    0.0000
     30 C29        6.2492    1.4191    3.6959 C.3       1 RES1    0.0000
     31 C30        7.6765    0.9649    3.6460 C.3       1 RES1    0.0000
     32 C31        7.8388   -0.1471    2.5907 C.3       1 RES1    0.0000
     33 O2         8.9194    4.2933    3.9333 O.3       1 RES1    0.0000
     34 C32       10.3322    4.3720    4.2083 C.3       1 RES1    0.0000
     35 C33       11.0867    3.6465    3.1309 C.3       1 RES1    0.0000
     36 C34       11.0141    4.3215    1.7783 C.3       1 RES1    0.0000
     37 O3         6.0974    4.8195    2.2528 O.3       1 RES1    0.0000
     38 C35        6.9252    4.2414    1.2337 C.3       1 RES1    0.0000
     39 C36        6.1246    3.6866    0.0866 C.3       1 RES1    0.0000
     40 C37        7.0233    3.0189   -0.9452 C.3       1 RES1    0.0000
     41 O4         3.6596    2.6106    2.5335 O.3       1 RES1    0.0000
     42 C38        2.5261    1.8939    2.0186 C.3       1 RES1    0.0000
     43 C39        2.9926    0.7358    1.1994 C.3       1 RES1    0.0000
     44 C40        1.8202   -0.1078    0.7336 C.3       1 RES1    0.0000
     45 C41        3.1241    0.5341    8.0370 C.ar      1 RES1    0.0000
     46 C42        2.6987   -0.6241    7.3730 C.ar      1 RES1    0.0000
     47 C43        1.6001   -1.3382    7.8139 C.ar      1 RES1    0.0000
     48 C44        0.9266   -0.8795    8.9307 C.ar      1 RES1    0.0000
     49 C45        1.3090    0.2631    9.6118 C.ar      1 RES1    0.0000
     50 C46        2.4079    0.9675    9.1530 C.ar      1 RES1    0.0000
     51 N1        -0.2187   -1.6395    9.4359 N.pl3     1 RES1    0.0000
     52 O5        -0.8782   -1.1620   10.3471 O.2       1 RES1    0.0000
     53 O6        -0.4749   -2.7153    8.9150 O.2       1 RES1    0.0000
     54 H1         3.7187    1.1678    4.4647 H         1 RES1    0.0000
     55 H2         2.6672    1.2528    5.5998 H         1 RES1    0.0000
     56 H3         5.2203    1.1936    9.4634 H         1 RES1    0.0000
     57 H4         7.2059    2.2716    8.8759 H         1 RES1    0.0000
     58 H5         8.4962    2.7046    5.7622 H         1 RES1    0.0000
     59 H6         8.6604    3.2182    7.2167 H         1 RES1    0.0000
     60 H7         6.5990    5.0510    7.6510 H         1 RES1    0.0000
     61 H8         6.0441    7.2262    6.9973 H         1 RES1    0.0000
     62 H9         6.7452    8.0267    4.9158 H         1 RES1    0.0000
     63 H10        8.5758    7.6140    2.9449 H         1 RES1    0.0000
     64 H11        8.4780    6.1300    2.4316 H         1 RES1    0.0000
     65 H12        6.9869    9.1584    2.1013 H         1 RES1    0.0000
     66 H13        4.8081    9.6839    1.4297 H         1 RES1    0.0000
     67 H14        3.1835    8.0077    1.3045 H         1 RES1    0.0000
     68 H15        3.6719    4.6205    1.1930 H         1 RES1    0.0000
     69 H16        2.5651    5.6918    1.3333 H         1 RES1    0.0000
     70 H17        2.4303    6.6569    3.8766 H         1 RES1    0.0000
     71 H18        2.0175    5.9260    6.0636 H         1 RES1    0.0000
     72 H19        2.5285    3.7284    6.6755 H         1 RES1    0.0000
     73 H20       10.5161    3.9644    5.0578 H         1 RES1    0.0000
     74 H21       10.6042    5.2926    4.2249 H         1 RES1    0.0000
     75 H22       10.7563    2.7480    3.0584 H         1 RES1    0.0000
     76 H23       12.0056    3.5514    3.3923 H         1 RES1    0.0000
     77 H24       11.5301    3.8202    1.1425 H         1 RES1    0.0000
     78 H25       10.0997    4.3604    1.4888 H         1 RES1    0.0000
     79 H26       11.3668    5.2118    1.8456 H         1 RES1    0.0000
     80 H27        7.4628    3.5438    1.6157 H         1 RES1    0.0000
     81 H28        7.5381    4.9035    0.9056 H         1 RES1    0.0000
     82 H29        5.6298    4.3956   -0.3309 H         1 RES1    0.0000
     83 H30        5.4896    3.0479    0.4188 H         1 RES1    0.0000
     84 H31        6.4889    2.6998   -1.6760 H         1 RES1    0.0000
     85 H32        7.6636    3.6557   -1.2712 H         1 RES1    0.0000
     86 H33        7.4836    2.2813   -0.5389 H         1 RES1    0.0000
     87 H34        1.9981    2.4805    1.4721 H         1 RES1    0.0000
     88 H35        1.9908    1.5746    2.7487 H         1 RES1    0.0000
     89 H36        3.5890    0.1941    1.7213 H         1 RES1    0.0000
     90 H37        3.4778    1.0582    0.4365 H         1 RES1    0.0000
     91 H38        2.1388   -0.8115    0.1637 H         1 RES1    0.0000
     92 H39        1.3773   -0.4886    1.4954 H         1 RES1    0.0000
     93 H40        1.2028    0.4434    0.2469 H         1 RES1    0.0000
     94 H41        3.1784   -0.9270    6.5986 H         1 RES1    0.0000
     95 H42        1.3124   -2.1318    7.3565 H         1 RES1    0.0000
     96 H43        0.8229    0.5602   10.3845 H         1 RES1    0.0000
     97 H44        2.6817    1.7663    9.6095 H         1 RES1    0.0000
     98 H45        5.9695    1.6919    2.8191 H         1 RES1    0.0000
     99 H46        5.6874    0.6822    3.9471 H         1 RES1    0.0000
    100 H47        7.9355    0.6288    4.5072 H         1 RES1    0.0000
    101 H48        8.2408    1.7070    3.4186 H         1 RES1    0.0000
    102 H49        8.7719   -0.3450    2.4751 H         1 RES1    0.0000
    103 H50        7.3791   -0.9372    2.8836 H         1 RES1    0.0000
    104 H51        7.4692    0.1472    1.7551 H         1 RES1    0.0000
    105 C47        7.0068    1.5722    4.0668 Du        2 SUP2    0.0000
    106 C48        6.3542    0.5615    3.1706 Du        2 SUP2    0.0000
    107 C49        7.4192   -0.1548    2.3183 Du        2 SUP2    0.0000
    108 C50        6.7580    1.7569    3.6114 Du        2 SUP2    0.0000
    109 C51        6.5864    0.2783    3.7813 Du        2 SUP2    0.0000
    110 C52        7.2843   -0.4701    2.6287 Du        2 SUP2    0.0000
    111 H52        7.4627    1.1197    4.7799 Du        2 SUP2    0.0000
    112 H53        7.6757    2.0520    3.5730 Du        2 SUP2    0.0000
    113 H54        5.7262    1.0037    2.5939 Du        2 SUP2    0.0000
    114 H55        5.8843   -0.0834    3.7048 Du        2 SUP2    0.0000
    115 H56        6.9934   -0.7984    1.7469 Du        2 SUP2    0.0000
    116 H57        7.8863    0.4896    1.7807 Du        2 SUP2    0.0000
    117 H58        8.0433   -0.6024    2.8944 Du        2 SUP2    0.0000
    118 H59        7.6924    1.9762    3.6430 Du        2 SUP2    0.0000
    119 H60        6.4437    2.0181    2.7429 Du        2 SUP2    0.0000
    120 H61        5.6508    0.0631    3.7814 Du        2 SUP2    0.0000
    121 H62        6.9688    0.0059    4.6183 Du        2 SUP2    0.0000
    122 H63        6.7977   -0.3304    1.8136 Du        2 SUP2    0.0000
    123 H64        8.1803   -0.1368    2.5268 Du        2 SUP2    0.0000
    124 H65        7.3145   -1.4087    2.8274 Du        2 SUP2    0.0000
@<TRIPOS>BOND
     1    1    2 1
     2    2    3 1
     3    3    4 ar
     4    4    5 ar
     5    5    6 ar
     6    6    7 ar
     7    7    8 1
     8    8    9 1
     9    9   10 ar
    10   10   11 ar
    11   11   12 ar
    12   12   13 ar
    13   13   14 1
    14   14   15 1
    15   15   16 ar
    16   16   17 ar
    17   17   18 ar
    18   18   19 ar
    19   19   20 1
    20   20   21 1
    21   21   22 ar
    22   22   23 ar
    23   23   24 ar
    24   24    1 ar
    25   25    3 ar
    26   26    9 ar
    27   27   15 ar
    28   28    1 ar
    29   29   25 1
    30   30   29 1
    31   31   30 1
    32   32   31 1
    33   33   26 1
    34   34   33 1
    35   35   34 1
    36   36   35 1
    37   37   27 1
    38   38   37 1
    39   39   38 1
    40   40   39 1
    41   41   28 1
    42   42   41 1
    43   43   42 1
    44   44   43 1
    45   45    4 1
    46   46   45 ar
    47   47   46 ar
    48   48   47 ar
    49   49   48 ar
    50   50   45 ar
    51   51   48 1
    52   52   51 2
    53   53   51 2
    54   54    2 1
    55   55    2 1
    56   56    5 1
    57   57    6 1
    58   58    8 1
    59   59    8 1
    60   60   10 1
    61   61   11 1
    62   62   12 1
    63   63   14 1
    64   64   14 1
    65   65   16 1
    66   66   17 1
    67   67   18 1
    68   68   20 1
    69   69   20 1
    70   70   22 1
    71   71   23 1
    72   72   24 1
    73   73   34 1
    74   74   34 1
    75   75   35 1
    76   76   35 1
    77   77   36 1
    78   78   36 1
    79   79   36 1
    80   80   38 1
    81   81   38 1
    82   82   39 1
    83   83   39 1
    84   84   40 1
    85   85   40 1
    86   86   40 1
    87   87   42 1
    88   88   42 1
    89   89   43 1
    90   90   43 1
    91   91   44 1
    92   92   44 1
    93   93   44 1
    94   94   46 1
    95   95   47 1
    96   96   49 1
    97   97   50 1
    98   98   30 1
    99   99   30 1
   100  100   31 1
   101  101   31 1
   102  102   32 1
   103  103   32 1
   104  104   32 1
   105    7   25 ar
   106   13   26 ar
   107   19   27 ar
   108   21   28 ar
   109   49   50 ar
@<TRIPOS>SUBSTRUCTURE
     1 RES1 1
     2 SUP2 105

@<TRIPOS>CRYSIN
  11.6871   12.8055   14.7108  94.2460  91.3670 113.9350   2 1

