# MOL2 file generated by ConQuest
# Please check atom types

@<TRIPOS>MOLECULE
PIBGOX
    46    48     1
SMALL
USER_CHARGES
****
Generated from CSD

@<TRIPOS>ATOM
      1 O1         4.0728   -0.5550    3.4264 O.2       1 RES1    0.0000
      2 O2         2.2005   -2.7622    2.3608 O.2       1 RES1   -1.0000
      3 N1         4.8826   -2.2884    4.6569 N.am      1 RES1    0.0000
      4 N2         1.7563   -2.4872    3.5407 N.pl3     1 RES1    1.0000
      5 C1         4.8062   -7.3491    3.9435 C.ar      1 RES1    0.0000
      6 C2         5.3774   -7.0731    5.1365 C.ar      1 RES1    0.0000
      7 C3         5.3613   -5.7974    5.6283 C.ar      1 RES1    0.0000
      8 C4         4.7472   -4.7766    4.9200 C.ar      1 RES1    0.0000
      9 C5         4.1857   -5.0466    3.6945 C.ar      1 RES1    0.0000
     10 C6         4.2054   -6.3354    3.2027 C.ar      1 RES1    0.0000
     11 C7         4.6456   -3.4046    5.5656 C.3       1 RES1    0.0000
     12 C8         6.2776   -1.9763    4.3361 C.3       1 RES1    0.0000
     13 C9         7.0546   -1.4403    5.5129 C.ar      1 RES1    0.0000
     14 C10        8.3652   -1.8157    5.7214 C.ar      1 RES1    0.0000
     15 C11        9.0894   -1.2767    6.7637 C.ar      1 RES1    0.0000
     16 C12        8.5317   -0.3583    7.6056 C.ar      1 RES1    0.0000
     17 C13        7.2290    0.0191    7.4154 C.ar      1 RES1    0.0000
     18 C14        6.4985   -0.5179    6.3842 C.ar      1 RES1    0.0000
     19 C15        3.8918   -1.5377    4.1337 C.2       1 RES1    0.0000
     20 C16        2.4967   -1.9612    4.4565 C.2       1 RES1    0.0000
     21 C17        0.3574   -2.8314    3.7856 C.ar      1 RES1    0.0000
     22 C18       -0.1365   -3.9736    3.2412 C.ar      1 RES1    0.0000
     23 C19       -1.4781   -4.2908    3.4770 C.ar      1 RES1    0.0000
     24 C20       -2.2576   -3.4979    4.2227 C.ar      1 RES1    0.0000
     25 C21       -1.7504   -2.3898    4.7864 C.ar      1 RES1    0.0000
     26 C22       -0.4185   -2.0365    4.5850 C.ar      1 RES1    0.0000
     27 H1         4.8652   -8.1601    3.6227 H         1 RES1    0.0000
     28 H2         5.9669   -7.8188    5.6465 H         1 RES1    0.0000
     29 H3         5.6116   -5.6207    6.5471 H         1 RES1    0.0000
     30 H4         3.8171   -4.3561    3.1876 H         1 RES1    0.0000
     31 H5         3.8166   -6.4438    2.4084 H         1 RES1    0.0000
     32 H6         5.2883   -3.3624    6.2031 H         1 RES1    0.0000
     33 H7         3.7509   -3.3423    5.9703 H         1 RES1    0.0000
     34 H8         6.6844   -2.8003    4.0072 H         1 RES1    0.0000
     35 H9         6.2367   -1.2747    3.6126 H         1 RES1    0.0000
     36 H10        8.7600   -2.5092    5.1709 H         1 RES1    0.0000
     37 H11        9.9364   -1.5256    6.9114 H         1 RES1    0.0000
     38 H12        9.0158    0.0000    8.3180 H         1 RES1    0.0000
     39 H13        6.8443    0.6424    8.0043 H         1 RES1    0.0000
     40 H14        5.6314   -0.2108    6.2638 H         1 RES1    0.0000
     41 H15        2.1518   -1.8368    5.3126 H         1 RES1    0.0000
     42 H16        0.5293   -4.4765    2.6310 H         1 RES1    0.0000
     43 H17       -1.7633   -5.1389    3.0054 H         1 RES1    0.0000
     44 H18       -3.2118   -3.7037    4.3816 H         1 RES1    0.0000
     45 H19       -2.2441   -1.7866    5.4441 H         1 RES1    0.0000
     46 H20       -0.0689   -1.2546    4.9179 H         1 RES1    0.0000
@<TRIPOS>BOND
     1    1   19 2
     2    2    4 1
     3    3   11 1
     4    4   20 2
     5    5    6 ar
     6    6    7 ar
     7    7    8 ar
     8    8    9 ar
     9    9   10 ar
    10   10    5 ar
    11   11    8 1
    12   12    3 1
    13   13   12 1
    14   14   13 ar
    15   15   14 ar
    16   16   15 ar
    17   17   16 ar
    18   18   13 ar
    19   19    3 1
    20   20   19 1
    21   21    4 1
    22   22   21 ar
    23   23   22 ar
    24   24   23 ar
    25   25   24 ar
    26   26   21 ar
    27   27    5 1
    28   28    6 1
    29   29    7 1
    30   30    9 1
    31   31   10 1
    32   32   11 1
    33   33   11 1
    34   34   12 1
    35   35   12 1
    36   36   14 1
    37   37   15 1
    38   38   16 1
    39   39   17 1
    40   40   18 1
    41   41   20 1
    42   42   22 1
    43   43   23 1
    44   44   24 1
    45   45   25 1
    46   46   26 1
    47   17   18 ar
    48   25   26 ar
@<TRIPOS>SUBSTRUCTURE
     1 RES1 1

@<TRIPOS>CRYSIN
  18.2780   10.0370   10.1438  90.0000  93.9900  90.0000  14 1

