# MOL2 file generated by ConQuest
# Please check atom types

@<TRIPOS>MOLECULE
PIBVEE
    53    56     1
SMALL
NO_CHARGES
****
Generated from CSD

@<TRIPOS>ATOM
      1 O1         5.0255    3.8526    1.4937 O.2       1 RES1    0.0000
      2 O2         8.2102   -0.8125    4.3228 O.2       1 RES1    0.0000
      3 O3         3.6856    3.5087    5.1176 O.3       1 RES1    0.0000
      4 N1         7.0109    2.7704    1.4734 N.am      1 RES1    0.0000
      5 C1         7.5748    1.0266    3.0008 C.2       1 RES1    0.0000
      6 C2         6.2114    1.0904    3.6503 C.3       1 RES1    0.0000
      7 H1         6.3492    1.0237    4.6187 H         1 RES1    0.0000
      8 N2         4.9915    4.0080    5.2417 N.2       1 RES1    0.0000
      9 C3         8.5009   -0.0281    3.4244 C.2       1 RES1    0.0000
     10 C4         5.8044    3.0575    2.0261 C.2       1 RES1    0.0000
     11 C5         5.8358    3.5042    4.4265 C.2       1 RES1    0.0000
     12 C6         5.4934    2.4463    3.3796 C.3       1 RES1    0.0000
     13 H2         4.5277    2.2858    3.4210 H         1 RES1    0.0000
     14 C7         9.2797    1.8876    1.3517 C.3       1 RES1    0.0000
     15 H3         9.5456    2.8111    1.2204 H         1 RES1    0.0000
     16 H4         9.2133    1.4737    0.4771 H         1 RES1    0.0000
     17 C8         7.9323    1.8590    2.0051 C.2       1 RES1    0.0000
     18 C9         5.3471   -0.6343    1.9753 C.ar      1 RES1    0.0000
     19 H5         5.9521   -0.3137    1.3450 H         1 RES1    0.0000
     20 C10        7.7661    4.9487    3.6922 C.ar      1 RES1    0.0000
     21 H6         7.2641    5.2332    2.9632 H         1 RES1    0.0000
     22 C11        7.2305    4.0227    4.5868 C.ar      1 RES1    0.0000
     23 C12        9.0469    5.4448    3.8898 C.ar      1 RES1    0.0000
     24 H7         9.4090    6.0525    3.2850 H         1 RES1    0.0000
     25 C13        7.9817    3.6143    5.6885 C.ar      1 RES1    0.0000
     26 H8         7.6287    2.9976    6.2890 H         1 RES1    0.0000
     27 C14        9.7873    5.0349    4.9882 C.ar      1 RES1    0.0000
     28 H9        10.6441    5.3713    5.1196 H         1 RES1    0.0000
     29 C15        5.3096   -0.0710    3.2436 C.ar      1 RES1    0.0000
     30 C16        9.7924   -0.1680    2.6559 C.3       1 RES1    0.0000
     31 H10        9.6392   -0.7440    1.8901 H         1 RES1    0.0000
     32 H11       10.4488   -0.6024    3.2238 H         1 RES1    0.0000
     33 C17       10.3695    1.1662    2.1640 C.3       1 RES1    0.0000
     34 C18       11.5914    0.9163    1.2771 C.3       1 RES1    0.0000
     35 H12       11.3358    0.3783    0.5246 H         1 RES1    0.0000
     36 H13       12.2669    0.4590    1.7836 H         1 RES1    0.0000
     37 H14       11.9381    1.7552    0.9666 H         1 RES1    0.0000
     38 C19        3.5332   -1.6012    3.8309 C.ar      1 RES1    0.0000
     39 H15        2.9231   -1.9183    4.4578 H         1 RES1    0.0000
     40 C20        9.2588    4.1299    5.8901 C.ar      1 RES1    0.0000
     41 H16        9.7563    3.8653    6.6300 H         1 RES1    0.0000
     42 C21       10.7965    2.0144    3.3608 C.3       1 RES1    0.0000
     43 H17       11.1546    2.8488    3.0504 H         1 RES1    0.0000
     44 H18       11.4674    1.5454    3.8618 H         1 RES1    0.0000
     45 H19       10.0365    2.1818    3.9218 H         1 RES1    0.0000
     46 C22        4.3872   -0.5662    4.1606 C.ar      1 RES1    0.0000
     47 H20        4.3444   -0.1936    5.0119 H         1 RES1    0.0000
     48 C23        3.5858   -2.1650    2.5658 C.ar      1 RES1    0.0000
     49 H21        3.0188   -2.8667    2.3434 H         1 RES1    0.0000
     50 C24        4.4840   -1.6791    1.6379 C.ar      1 RES1    0.0000
     51 H22        4.5147   -2.0492    0.7853 H         1 RES1    0.0000
     52 H23        7.2209    3.3221    0.8465 H         1 RES1    0.0000
     53 H24        3.2945    3.9603    5.7201 H         1 RES1    0.0000
@<TRIPOS>BOND
     1    1   10 2
     2    2    9 2
     3    3    8 1
     4    4   10 1
     5    5    6 1
     6    6    7 1
     7    8   11 2
     8    9    5 1
     9   10   12 1
    10   11   12 1
    11   12    6 1
    12   13   12 1
    13   14   15 1
    14   16   14 1
    15   17    4 1
    16   18   19 1
    17   20   21 1
    18   22   11 1
    19   23   20 ar
    20   24   23 1
    21   25   22 ar
    22   26   25 1
    23   27   23 ar
    24   28   27 1
    25   29    6 1
    26   30    9 1
    27   31   30 1
    28   32   30 1
    29   33   14 1
    30   34   33 1
    31   35   34 1
    32   36   34 1
    33   37   34 1
    34   38   39 1
    35   40   25 ar
    36   41   40 1
    37   42   33 1
    38   43   42 1
    39   44   42 1
    40   45   42 1
    41   46   29 ar
    42   47   46 1
    43   48   38 ar
    44   49   48 1
    45   50   18 ar
    46   51   50 1
    47   52    4 1
    48   53    3 1
    49    5   17 2
    50   14   17 1
    51   18   29 ar
    52   20   22 ar
    53   27   40 ar
    54   30   33 1
    55   38   46 ar
    56   48   50 ar
@<TRIPOS>SUBSTRUCTURE
     1 RES1 1

@<TRIPOS>CRYSIN
   9.6423   17.9281   12.2046  90.0000 111.8040  90.0000  14 1

