# MOL2 file generated by ConQuest
# Please check atom types

@<TRIPOS>MOLECULE
PICANO
    15    15     1
SMALL
USER_CHARGES
****
Generated from CSD

@<TRIPOS>ATOM
      1 C1         3.3149    1.5525    3.8178 C.ar      1 RES1    0.0000
      2 C2         2.0698    1.5525    4.4279 C.ar      1 RES1    0.0000
      3 C3         1.9243    1.5525    5.7952 C.ar      1 RES1    0.0000
      4 C4         3.0616    1.5525    6.5574 C.ar      1 RES1    0.0000
      5 C5         4.2846    1.5525    5.9077 C.ar      1 RES1    0.0000
      6 C6         3.4615    1.5525    2.3257 C.2       1 RES1    0.0000
      7 H1         5.3027    1.5525    2.8846 H         1 RES1    0.0000
      8 H2         1.2848    1.5525    3.8942 H         1 RES1    0.0000
      9 H3         1.0573    1.5525    6.1298 H         1 RES1    0.0000
     10 H4         2.9574    1.5525    7.5721 H         1 RES1    0.0000
     11 H5         5.0709    1.5525    6.4183 H         1 RES1    0.0000
     12 N1         4.4111    1.5525    4.5685 N.pl3     1 RES1    1.0000
     13 O1         2.4663    1.5525    1.6175 O.2       1 RES1    0.0000
     14 O2         4.6946    1.5525    1.8620 O.3       1 RES1    0.0000
     15 O3         5.6478    1.5525    4.0529 O.2       1 RES1   -1.0000
@<TRIPOS>BOND
     1    1    2 ar
     2    2    3 ar
     3    3    4 ar
     4    4    5 ar
     5    5   11 1
     6    6    1 1
     7    7   14 1
     8    8    2 1
     9    9    3 1
    10   10    4 1
    11   12    1 ar
    12   13    6 2
    13   14    6 1
    14   15   12 1
    15    5   12 ar
@<TRIPOS>SUBSTRUCTURE
     1 RES1 1

@<TRIPOS>CRYSIN
   6.8300    6.2100    8.1600  90.0000 117.9000  90.0000  11 1

