# MOL2 file generated by ConQuest
# Please check atom types

@<TRIPOS>MOLECULE
PICFOW
    28    28     1
SMALL
NO_CHARGES
****
Generated from CSD

@<TRIPOS>ATOM
      1 O1         1.4181    6.4232   17.0837 O.2       1 RES1    0.0000
      2 O2        -3.8069    2.5130   21.9573 O.2       1 RES1    0.0000
      3 O3        -3.6106    0.6013   21.0074 O.2       1 RES1    0.0000
      4 N1         0.0599    4.1471   17.3061 N.3       1 RES1    0.0000
      5 N2        -3.3544    1.7959   21.0828 N.pl3     1 RES1    0.0000
      6 C1        -0.8015    3.5024   18.1806 C.ar      1 RES1    0.0000
      7 C2        -1.1481    2.1577   18.1353 C.ar      1 RES1    0.0000
      8 C3        -1.9761    1.6130   19.0757 C.ar      1 RES1    0.0000
      9 C4        -2.4709    2.3880   20.0878 C.ar      1 RES1    0.0000
     10 C5        -2.1538    3.7234   20.1537 C.ar      1 RES1    0.0000
     11 C6        -1.3227    4.2563   19.2209 C.ar      1 RES1    0.0000
     12 C7         1.7656    6.0088   15.9624 C.2       1 RES1    0.0000
     13 C8         1.3685    4.7352   15.4498 C.2       1 RES1    0.0000
     14 C9         0.5555    3.8524   16.0717 C.2       1 RES1    0.0000
     15 C10        0.1729    2.5761   15.3952 C.3       1 RES1    0.0000
     16 C11        2.6020    6.8811   15.0823 C.3       1 RES1    0.0000
     17 H1         0.3188    4.8549   17.5266 H         1 RES1    0.0000
     18 H2        -0.8043    1.6578   17.5266 H         1 RES1    0.0000
     19 H3        -2.2148    0.7499   19.0531 H         1 RES1    0.0000
     20 H4        -2.5271    4.1971   20.7869 H         1 RES1    0.0000
     21 H5        -1.1155    5.0786   19.2416 H         1 RES1    0.0000
     22 H6         1.7034    4.5129   14.6055 H         1 RES1    0.0000
     23 H7         3.4450    7.0258   15.4913 H         1 RES1    0.0000
     24 H8         2.4013    7.7100   15.2463 H         1 RES1    0.0000
     25 H9         3.1171    6.4469   14.5678 H         1 RES1    0.0000
     26 H10        0.4678    2.6446   14.5867 H         1 RES1    0.0000
     27 H11        0.5285    1.8025   15.8305 H         1 RES1    0.0000
     28 H12       -0.8332    2.4209   15.4913 H         1 RES1    0.0000
@<TRIPOS>BOND
     1    1   12 2
     2    2    5 2
     3    3    5 2
     4    4    6 1
     5    5    9 1
     6    6    7 ar
     7    7    8 ar
     8    8    9 ar
     9    9   10 ar
    10   10   11 ar
    11   11    6 ar
    12   12   13 1
    13   13   14 2
    14   14    4 1
    15   15   14 1
    16   16   12 1
    17   17    4 1
    18   18    7 1
    19   19    8 1
    20   20   10 1
    21   21   11 1
    22   22   13 1
    23   23   16 1
    24   24   16 1
    25   25   16 1
    26   26   15 1
    27   27   15 1
    28   28   15 1
@<TRIPOS>SUBSTRUCTURE
     1 RES1 1

@<TRIPOS>CRYSIN
   4.3700   13.1570   18.8760  90.0000  93.2400  90.0000 231 1

