# MOL2 file generated by ConQuest
# Please check atom types

@<TRIPOS>MOLECULE
PICGUF
    33    35     1
SMALL
NO_CHARGES
****
Generated from CSD

@<TRIPOS>ATOM
      1 C1         0.9410    2.1403    3.4756 C.ar      1 RES1    0.0000
      2 C2         1.0715    3.5239   -2.6366 C.ar      1 RES1    0.0000
      3 H1         1.1636    2.6495   -2.9389 H         1 RES1    0.0000
      4 C3         1.0051    2.9120    1.1126 C.2       1 RES1    0.0000
      5 H2         0.7111    3.7548    1.3745 H         1 RES1    0.0000
      6 N1         0.9373    4.2695   -4.9690 N.pl3     1 RES1    0.0000
      7 C4         0.9314    4.5572   -3.5288 C.ar      1 RES1    0.0000
      8 C5         1.0729    3.8031   -1.2694 C.ar      1 RES1    0.0000
      9 C6         1.2402    2.6653   -0.3135 C.2       1 RES1    0.0000
     10 C7         0.9145    5.1216   -0.8624 C.ar      1 RES1    0.0000
     11 H3         0.9189    5.3239    0.0454 H         1 RES1    0.0000
     12 C8         1.2144    1.0712    4.3293 C.ar      1 RES1    0.0000
     13 H4         1.5637    0.2885    3.9694 H         1 RES1    0.0000
     14 C9         1.1930    1.9868    2.0493 C.2       1 RES1    0.0000
     15 H5         1.5173    1.1618    1.7656 H         1 RES1    0.0000
     16 O1         0.1540    2.6231    7.4746 O.3       1 RES1    0.0000
     17 C10        0.4141    3.3255    4.0127 C.ar      1 RES1    0.0000
     18 H6         0.2248    4.0568    3.4712 H         1 RES1    0.0000
     19 C11        0.7612    5.8647   -3.1364 C.ar      1 RES1    0.0000
     20 H7         0.6566    6.5434   -3.7633 H         1 RES1    0.0000
     21 O2        -0.2984    4.4098    6.0946 O.3       1 RES1    0.0000
     22 C12        0.4672    2.2954    6.1861 C.ar      1 RES1    0.0000
     23 O3         1.0538    5.2017   -5.7441 O.2       1 RES1    0.0000
     24 O4         1.5622    1.5629   -0.7277 O.2       1 RES1    0.0000
     25 C13        0.1886    3.3662    5.3538 C.ar      1 RES1    0.0000
     26 C14        0.9838    1.1347    5.7032 C.ar      1 RES1    0.0000
     27 H8         1.1746    0.4163    6.2624 H         1 RES1    0.0000
     28 C15        0.7502    6.1373   -1.7843 C.ar      1 RES1    0.0000
     29 H9         0.6308    7.0118   -1.4914 H         1 RES1    0.0000
     30 O5         0.8401    3.1110   -5.3241 O.2       1 RES1    0.0000
     31 C16       -0.4348    3.9245    7.4240 C.3       1 RES1    0.0000
     32 H10       -1.3728    3.8770    7.6677 H         1 RES1    0.0000
     33 H11        0.0140    4.5195    8.0442 H         1 RES1    0.0000
@<TRIPOS>BOND
     1    1   12 ar
     2    2    3 1
     3    4    5 1
     4    6    7 1
     5    7    2 ar
     6    8    2 ar
     7    9    4 1
     8   10    8 ar
     9   11   10 1
    10   12   13 1
    11   14    1 1
    12   15   14 1
    13   16   22 1
    14   17    1 ar
    15   18   17 1
    16   19    7 ar
    17   20   19 1
    18   21   25 1
    19   22   25 ar
    20   23    6 2
    21   24    9 2
    22   25   17 ar
    23   26   12 ar
    24   27   26 1
    25   28   10 ar
    26   29   28 1
    27   30    6 2
    28   31   16 1
    29   32   31 1
    30   33   31 1
    31    4   14 2
    32    8    9 1
    33   19   28 ar
    34   21   31 1
    35   22   26 ar
@<TRIPOS>SUBSTRUCTURE
     1 RES1 1

@<TRIPOS>CRYSIN
   7.3690   11.3130   16.2280  90.0000  90.0000  90.0000  19 1

