# MOL2 file generated by ConQuest
# Please check atom types

@<TRIPOS>MOLECULE
PICRAC11
    37    37     2
SMALL
NO_CHARGES
****
Generated from CSD

@<TRIPOS>ATOM
      1 O1         0.2306   17.8242    1.8729 O.3       1 RES1    0.0000
      2 O2         1.8154   19.6843    1.1385 O.2       1 RES1    0.0000
      3 O3         1.8728   20.1647   -0.8840 O.2       1 RES1    0.0000
      4 O4         1.0864   16.8597   -4.2003 O.2       1 RES1    0.0000
      5 O5        -0.0834   15.0895   -3.7243 O.2       1 RES1    0.0000
      6 O6        -1.4967   14.2953    0.7353 O.2       1 RES1    0.0000
      7 O7        -1.2958   15.7804    2.2595 O.2       1 RES1    0.0000
      8 N1         1.5912   19.3858   -0.0087 N.pl3     1 RES1    0.0000
      9 N2         0.4696   16.1153   -3.4193 N.pl3     1 RES1    0.0000
     10 N3        -1.1170   15.3861    1.1093 N.pl3     1 RES1    0.0000
     11 C1         0.2649   17.4013    0.6343 C.ar      1 RES1    0.0000
     12 C2         1.0179   18.1208   -0.3526 C.ar      1 RES1    0.0000
     13 C3         1.0012   17.7362   -1.6650 C.ar      1 RES1    0.0000
     14 C4         0.3872   16.5459   -2.0186 C.ar      1 RES1    0.0000
     15 C5        -0.3094   15.7823   -1.1356 C.ar      1 RES1    0.0000
     16 C6        -0.3677   16.2167    0.1787 C.ar      1 RES1    0.0000
     17 H1        -0.1111   17.3955    2.2051 H         1 RES1    0.0000
     18 H2         1.2596   18.3332   -2.2342 H         1 RES1    0.0000
     19 H3        -0.7317   14.9651   -1.3308 H         1 RES1    0.0000
     20 O8         1.9700   11.7444    0.7674 O.3       2 RES2    0.0000
     21 O9         1.6292   13.4457   -1.0831 O.2       2 RES2    0.0000
     22 O10        3.2649   14.2398   -2.2420 O.2       2 RES2    0.0000
     23 O11        7.6930   12.5405   -1.7126 O.2       2 RES2    0.0000
     24 O12        8.1413   11.2239   -0.0602 O.2       2 RES2    0.0000
     25 O13        4.6616    9.3159    2.4654 O.2       2 RES2    0.0000
     26 O14        2.8897   10.3914    2.8132 O.2       2 RES2    0.0000
     27 N4         2.8268   13.5145   -1.3949 N.pl3     2 RES2    0.0000
     28 N5         7.3614   11.8745   -0.7577 N.pl3     2 RES2    0.0000
     29 N6         3.8808   10.1866    2.1759 N.pl3     2 RES2    0.0000
     30 C7         3.2825   11.8209    0.3856 C.ar      2 RES2    0.0000
     31 C8         3.7502   12.6362   -0.6635 C.ar      2 RES2    0.0000
     32 C9         5.0867   12.6897   -1.0345 C.ar      2 RES2    0.0000
     33 C10        5.9527   11.8898   -0.3740 C.ar      2 RES2    0.0000
     34 C11        5.5581   11.0248    0.6742 C.ar      2 RES2    0.0000
     35 C12        4.2281   11.0459    1.0355 C.ar      2 RES2    0.0000
     36 H4         5.4275   13.2045   -1.7874 H         2 RES2    0.0000
     37 H5         6.2333   10.2766    1.1074 H         2 RES2    0.0000
@<TRIPOS>BOND
     1    1   11 1
     2    2    8 2
     3    3    8 2
     4    4    9 2
     5    5    9 2
     6    6   10 2
     7    7   10 2
     8    8   12 1
     9    9   14 1
    10   10   16 1
    11   11   12 ar
    12   12   13 ar
    13   13   14 ar
    14   14   15 ar
    15   15   16 ar
    16   16   11 ar
    17   17    1 1
    18   18   13 1
    19   19   15 1
    20   20   30 1
    21   21   27 2
    22   22   27 2
    23   23   28 2
    24   24   28 2
    25   25   29 2
    26   26   29 2
    27   27   31 1
    28   28   33 1
    29   29   35 1
    30   30   31 ar
    31   31   32 ar
    32   32   33 ar
    33   33   34 ar
    34   34   35 ar
    35   35   30 ar
    36   36   32 1
    37   37   34 1
@<TRIPOS>SUBSTRUCTURE
     1 RES1 1
     2 RES2 20

@<TRIPOS>CRYSIN
   9.2620   19.1370    9.7140  90.0000  90.0000  90.0000  29 1

