# MOL2 file generated by ConQuest
# Please check atom types

@<TRIPOS>MOLECULE
PICRAC16
    38    38     2
SMALL
NO_CHARGES
****
Generated from CSD

@<TRIPOS>ATOM
      1 O1         5.8735    6.0633    7.4568 O.2       1 RES1    0.0000
      2 O2         4.3508    8.0928    7.0996 O.3       1 RES1    0.0000
      3 H1         4.8932    7.6205    7.5332 H         1 RES1    0.0000
      4 O3         2.7426    9.9738    6.3598 O.2       1 RES1    0.0000
      5 C1         4.3223    7.6880    5.8446 C.ar      1 RES1    0.0000
      6 O4         6.0497    4.5701    5.9308 O.2       1 RES1    0.0000
      7 N1         3.0088    9.7263    5.2030 N.pl3     1 RES1    0.0000
      8 N2         5.6716    5.6563    6.3069 N.pl3     1 RES1    0.0000
      9 O5         3.5595    7.2214    0.9667 O.2       1 RES1    0.0000
     10 C2         3.5990    8.0663    3.5340 C.ar      1 RES1    0.0000
     11 H2         3.1401    8.5978    2.8934 H         1 RES1    0.0000
     12 C3         3.6614    8.4523    4.8572 C.ar      1 RES1    0.0000
     13 C4         4.2177    6.8936    3.1647 C.ar      1 RES1    0.0000
     14 O6         4.7087    5.4524    1.4340 O.2       1 RES1    0.0000
     15 N3         4.1507    6.4845    1.7533 N.pl3     1 RES1    0.0000
     16 O7         2.7812   10.5041    4.2950 O.2       1 RES1    0.0000
     17 C5         4.8996    6.1009    4.0511 C.ar      1 RES1    0.0000
     18 H3         5.3301    5.3034    3.7681 H         1 RES1    0.0000
     19 C6         4.9382    6.5069    5.3744 C.ar      1 RES1    0.0000
     20 O8         1.5062   15.9050    3.4233 O.2       2 RES2    0.0000
     21 N4         1.8339   16.5462    4.4086 N.pl3     2 RES2    0.0000
     22 O9         7.2209   16.7065    5.8867 O.3       2 RES2    0.0000
     23 H4         7.7074   16.3292    5.3147 H         2 RES2    0.0000
     24 O10        5.9460   14.2324    2.8356 O.2       2 RES2    0.0000
     25 C7         3.6458   17.3567    5.8328 C.ar      2 RES2    0.0000
     26 H5         3.0189   17.9040    6.2912 H         2 RES2    0.0000
     27 O11        1.0473   17.1731    5.1188 O.2       2 RES2    0.0000
     28 C8         4.1286   15.7577    4.0893 C.ar      2 RES2    0.0000
     29 H6         3.8321   15.1997    3.3792 H         2 RES2    0.0000
     30 N5         6.3793   14.9563    3.7064 N.pl3     2 RES2    0.0000
     31 C9         4.9712   17.3552    6.1962 C.ar      2 RES2    0.0000
     32 O12        7.5890   15.0105    3.9865 O.2       2 RES2    0.0000
     33 N6         5.3219   18.1925    7.3598 N.pl3     2 RES2    0.0000
     34 C10        5.9313   16.6054    5.5155 C.ar      2 RES2    0.0000
     35 C11        5.4586   15.8028    4.4557 C.ar      2 RES2    0.0000
     36 C12        3.2456   16.5518    4.7926 C.ar      2 RES2    0.0000
     37 O13        6.3361   17.9989    7.9553 O.2       2 RES2    0.0000
     38 O14        4.5279   19.0571    7.6830 O.2       2 RES2    0.0000
@<TRIPOS>BOND
     1    1    8 2
     2    2    3 1
     3    4    7 2
     4    5    2 1
     5    6    8 2
     6    7   12 1
     7    8   19 1
     8    9   15 2
     9   10   11 1
    10   12    5 ar
    11   13   10 ar
    12   14   15 2
    13   15   13 1
    14   16    7 2
    15   17   13 ar
    16   18   17 1
    17   19    5 ar
    18   20   21 2
    19   21   27 2
    20   22   23 1
    21   24   30 2
    22   25   26 1
    23   28   29 1
    24   30   32 2
    25   31   25 ar
    26   33   31 1
    27   34   22 1
    28   35   28 ar
    29   36   21 1
    30   37   33 2
    31   38   33 2
    32   10   12 ar
    33   17   19 ar
    34   25   36 ar
    35   28   36 ar
    36   30   35 1
    37   31   34 ar
    38   34   35 ar
@<TRIPOS>SUBSTRUCTURE
     1 RES1 1
     2 RES2 20

@<TRIPOS>CRYSIN
   9.1788   18.7929    9.7948  90.0000  90.0000  90.0000  29 1

