# MOL2 file generated by ConQuest
# Please check atom types

@<TRIPOS>MOLECULE
PICRAC18
    38    38     2
SMALL
NO_CHARGES
****
Generated from CSD

@<TRIPOS>ATOM
      1 O1         5.9067    6.1625    7.4272 O.2       1 RES1    0.0000
      2 O2         4.3930    8.1944    7.0545 O.3       1 RES1    0.0000
      3 H1         4.8220    7.6642    7.5101 H         1 RES1    0.0000
      4 O3         2.7823   10.0690    6.3100 O.2       1 RES1    0.0000
      5 C1         4.3625    7.7730    5.7948 C.ar      1 RES1    0.0000
      6 O4         6.1119    4.6769    5.9012 O.2       1 RES1    0.0000
      7 N1         3.0292    9.7972    5.1567 N.pl3     1 RES1    0.0000
      8 N2         5.7171    5.7559    6.2729 N.pl3     1 RES1    0.0000
      9 O5         3.5488    7.2553    0.9494 O.2       1 RES1    0.0000
     10 C2         3.6209    8.1339    3.5048 C.ar      1 RES1    0.0000
     11 H2         3.1688    8.6493    2.8784 H         1 RES1    0.0000
     12 C3         3.6884    8.5297    4.8152 C.ar      1 RES1    0.0000
     13 C4         4.2358    6.9567    3.1321 C.ar      1 RES1    0.0000
     14 O6         4.7222    5.5018    1.4197 O.2       1 RES1    0.0000
     15 N3         4.1563    6.5288    1.7339 N.pl3     1 RES1    0.0000
     16 O7         2.7740   10.5587    4.2698 O.2       1 RES1    0.0000
     17 C5         4.9330    6.1812    4.0317 C.ar      1 RES1    0.0000
     18 H3         5.3565    5.3992    3.7604 H         1 RES1    0.0000
     19 C6         4.9857    6.5939    5.3352 C.ar      1 RES1    0.0000
     20 O8         1.5525   16.0794    3.4258 O.2       2 RES2    0.0000
     21 N4         1.8780   16.7303    4.4015 N.pl3     2 RES2    0.0000
     22 O9         7.2677   16.8935    5.8943 O.3       2 RES2    0.0000
     23 H4         7.7033   16.2811    5.5675 H         2 RES2    0.0000
     24 O10        6.0028   14.3927    2.8745 O.2       2 RES2    0.0000
     25 C7         3.6986   17.5517    5.8211 C.ar      2 RES2    0.0000
     26 H5         3.0856   18.0973    6.2573 H         2 RES2    0.0000
     27 O11        1.0966   17.3671    5.0942 O.2       2 RES2    0.0000
     28 C8         4.1739   15.9331    4.1058 C.ar      2 RES2    0.0000
     29 H6         3.8863   15.3835    3.4131 H         2 RES2    0.0000
     30 N5         6.4319   15.1153    3.7507 N.pl3     2 RES2    0.0000
     31 C9         5.0227   17.5515    6.1870 C.ar      2 RES2    0.0000
     32 O12        7.6284   15.1629    4.0366 O.2       2 RES2    0.0000
     33 N6         5.3704   18.4092    7.3345 N.pl3     2 RES2    0.0000
     34 C10        5.9760   16.7794    5.5157 C.ar      2 RES2    0.0000
     35 C11        5.5035   15.9750    4.4727 C.ar      2 RES2    0.0000
     36 C12        3.2936   16.7195    4.7859 C.ar      2 RES2    0.0000
     37 O13        6.3634   18.2057    7.9404 O.2       2 RES2    0.0000
     38 O14        4.5955   19.2726    7.6438 O.2       2 RES2    0.0000
@<TRIPOS>BOND
     1    1    8 2
     2    2    3 1
     3    4    7 2
     4    5    2 1
     5    6    8 2
     6    7   12 1
     7    8   19 1
     8    9   15 2
     9   10   11 1
    10   12    5 ar
    11   13   10 ar
    12   14   15 2
    13   15   13 1
    14   16    7 2
    15   17   13 ar
    16   18   17 1
    17   19    5 ar
    18   20   21 2
    19   21   27 2
    20   22   23 1
    21   24   30 2
    22   25   26 1
    23   28   29 1
    24   30   32 2
    25   31   25 ar
    26   33   31 1
    27   34   22 1
    28   35   28 ar
    29   36   21 1
    30   37   33 2
    31   38   33 2
    32   10   12 ar
    33   17   19 ar
    34   25   36 ar
    35   28   36 ar
    36   30   35 1
    37   31   34 ar
    38   34   35 ar
@<TRIPOS>SUBSTRUCTURE
     1 RES1 1
     2 RES2 20

@<TRIPOS>CRYSIN
   9.2465   19.0178    9.7572  90.0000  90.0000  90.0000  29 1

