# MOL2 file generated by ConQuest
# Please check atom types

@<TRIPOS>MOLECULE
PICRAC19
    38    38     2
SMALL
NO_CHARGES
****
Generated from CSD

@<TRIPOS>ATOM
      1 O1         5.9129    6.2183    7.4030 O.2       1 RES1    0.0000
      2 O2         4.4068    8.2629    7.0178 O.3       1 RES1    0.0000
      3 H1         4.7998    7.7175    7.4876 H         1 RES1    0.0000
      4 O3         2.8100   10.1246    6.2862 O.2       1 RES1    0.0000
      5 C1         4.3744    7.8267    5.7706 C.ar      1 RES1    0.0000
      6 O4         6.1418    4.7413    5.8884 O.2       1 RES1    0.0000
      7 N1         3.0361    9.8421    5.1247 N.pl3     1 RES1    0.0000
      8 N2         5.7368    5.8187    6.2502 N.pl3     1 RES1    0.0000
      9 O5         3.5236    7.2691    0.9465 O.2       1 RES1    0.0000
     10 C2         3.6228    8.1794    3.4894 C.ar      1 RES1    0.0000
     11 H2         3.1640    8.6911    2.8630 H         1 RES1    0.0000
     12 C3         3.6988    8.5814    4.7833 C.ar      1 RES1    0.0000
     13 C4         4.2400    6.9950    3.1149 C.ar      1 RES1    0.0000
     14 O6         4.7155    5.5347    1.4028 O.2       1 RES1    0.0000
     15 N3         4.1409    6.5619    1.7287 N.pl3     1 RES1    0.0000
     16 O7         2.7349   10.5807    4.2463 O.2       1 RES1    0.0000
     17 C5         4.9388    6.2204    4.0060 C.ar      1 RES1    0.0000
     18 H3         5.3586    5.4350    3.7365 H         1 RES1    0.0000
     19 C6         4.9963    6.6474    5.3095 C.ar      1 RES1    0.0000
     20 O8         1.5774   16.1863    3.4194 O.2       2 RES2    0.0000
     21 N4         1.8990   16.8455    4.3873 N.pl3     2 RES2    0.0000
     22 O9         7.2780   17.0142    5.9088 O.3       2 RES2    0.0000
     23 H4         7.7312   16.4546    5.5167 H         2 RES2    0.0000
     24 O10        6.0176   14.5094    2.8902 O.2       2 RES2    0.0000
     25 C7         3.7173   17.6786    5.8066 C.ar      2 RES2    0.0000
     26 H5         3.1029   18.2273    6.2386 H         2 RES2    0.0000
     27 O11        1.1214   17.4875    5.0683 O.2       2 RES2    0.0000
     28 C8         4.1918   16.0559    4.1130 C.ar      2 RES2    0.0000
     29 H6         3.9036   15.5059    3.4213 H         2 RES2    0.0000
     30 N5         6.4467   15.2299    3.7638 N.pl3     2 RES2    0.0000
     31 C9         5.0296   17.6830    6.1763 C.ar      2 RES2    0.0000
     32 O12        7.6385   15.2702    4.0566 O.2       2 RES2    0.0000
     33 N6         5.3911   18.5416    7.3155 N.pl3     2 RES2    0.0000
     34 C10        5.9824   16.9068    5.5099 C.ar      2 RES2    0.0000
     35 C11        5.5190   16.0904    4.4836 C.ar      2 RES2    0.0000
     36 C12        3.3142   16.8470    4.7813 C.ar      2 RES2    0.0000
     37 O13        6.3790   18.3307    7.9332 O.2       2 RES2    0.0000
     38 O14        4.6163   19.4135    7.6180 O.2       2 RES2    0.0000
@<TRIPOS>BOND
     1    1    8 2
     2    2    3 1
     3    4    7 2
     4    5    2 1
     5    6    8 2
     6    7   12 1
     7    8   19 1
     8    9   15 2
     9   10   11 1
    10   12    5 ar
    11   13   10 ar
    12   14   15 2
    13   15   13 1
    14   16    7 2
    15   17   13 ar
    16   18   17 1
    17   19    5 ar
    18   20   21 2
    19   21   27 2
    20   22   23 1
    21   24   30 2
    22   25   26 1
    23   28   29 1
    24   30   32 2
    25   31   25 ar
    26   33   31 1
    27   34   22 1
    28   35   28 ar
    29   36   21 1
    30   37   33 2
    31   38   33 2
    32   10   12 ar
    33   17   19 ar
    34   25   36 ar
    35   28   36 ar
    36   30   35 1
    37   31   34 ar
    38   34   35 ar
@<TRIPOS>SUBSTRUCTURE
     1 RES1 1
     2 RES2 20

@<TRIPOS>CRYSIN
   9.2678   19.1644    9.7280  90.0000  90.0000  90.0000  29 1

