# MOL2 file generated by ConQuest
# Please check atom types

@<TRIPOS>MOLECULE
PICRAC13
    38    38     2
SMALL
NO_CHARGES
****
Generated from CSD

@<TRIPOS>ATOM
      1 C1         4.8322    1.6953    3.1176 C.ar      1 RES1    0.0000
      2 C2         4.2180    2.8823    3.5926 C.ar      1 RES1    0.0000
      3 C3         4.2493    3.2786    4.9200 C.ar      1 RES1    0.0000
      4 C4         4.9235    2.4792    5.8096 C.ar      1 RES1    0.0000
      5 C5         5.5449    1.3014    5.4330 C.ar      1 RES1    0.0000
      6 C6         5.4861    0.9228    4.1081 C.ar      1 RES1    0.0000
      7 N1         3.4888    3.7415    2.6630 N.pl3     1 RES1    0.0000
      8 N2         4.9794    2.8761    7.2231 N.pl3     1 RES1    0.0000
      9 N3         6.1335   -0.3513    3.7577 N.pl3     1 RES1    0.0000
     10 O1         4.8082    1.3029    1.8596 O.3       1 RES1    0.0000
     11 O2         3.2752    3.3276    1.5156 O.2       1 RES1    0.0000
     12 O3         3.1193    4.8328    3.0434 O.2       1 RES1    0.0000
     13 O4         4.4205    3.9115    7.5462 O.2       1 RES1    0.0000
     14 O5         5.5684    2.1324    8.0086 O.2       1 RES1    0.0000
     15 O6         6.4129   -0.5883    2.5916 O.2       1 RES1    0.0000
     16 O7         6.3487   -1.1352    4.6733 O.2       1 RES1    0.0000
     17 H1         4.2909    1.7921    1.5469 H         1 RES1    0.0000
     18 H2         3.8161    4.0868    5.1594 H         1 RES1    0.0000
     19 H3         5.9707    0.7662    6.0797 H         1 RES1    0.0000
     20 C7         7.7884    7.1677    3.4804 C.ar      2 RES2    0.0000
     21 C8         8.2658    6.3737    4.5456 C.ar      2 RES2    0.0000
     22 C9         9.6006    6.3345    4.9098 C.ar      2 RES2    0.0000
     23 C10       10.4839    7.1236    4.2010 C.ar      2 RES2    0.0000
     24 C11       10.0835    7.9247    3.1495 C.ar      2 RES2    0.0000
     25 C12        8.7570    7.9148    2.7962 C.ar      2 RES2    0.0000
     26 N4         7.3474    5.5313    5.3034 N.pl3     2 RES2    0.0000
     27 N5        11.8992    7.1152    4.5749 N.pl3     2 RES2    0.0000
     28 N6         8.4092    8.7481    1.6207 N.pl3     2 RES2    0.0000
     29 O8         6.5051    7.2701    3.1152 O.3       2 RES2    0.0000
     30 O9         6.1390    5.5881    5.0351 O.2       2 RES2    0.0000
     31 O10        7.7909    4.8121    6.1825 O.2       2 RES2    0.0000
     32 O11       12.2249    6.4812    5.5673 O.2       2 RES2    0.0000
     33 O12       12.6812    7.7444    3.8603 O.2       2 RES2    0.0000
     34 O13        7.3816    8.5457    1.0270 O.2       2 RES2    0.0000
     35 O14        9.2025    9.6071    1.2874 O.2       2 RES2    0.0000
     36 H4         6.0163    6.8226    3.7007 H         2 RES2    0.0000
     37 H5         9.9146    5.7836    5.5902 H         2 RES2    0.0000
     38 H6        10.8002    8.6072    2.6923 H         2 RES2    0.0000
@<TRIPOS>BOND
     1    1    2 ar
     2    2    3 ar
     3    3    4 ar
     4    4    5 ar
     5    5    6 ar
     6    6    1 ar
     7    7    2 1
     8    8    4 1
     9    9    6 1
    10   10    1 1
    11   11    7 2
    12   12    7 2
    13   13    8 2
    14   14    8 2
    15   15    9 2
    16   16    9 2
    17   17   10 1
    18   18    3 1
    19   19    5 1
    20   20   21 ar
    21   21   22 ar
    22   22   23 ar
    23   23   24 ar
    24   24   25 ar
    25   25   20 ar
    26   26   21 1
    27   27   23 1
    28   28   25 1
    29   29   20 1
    30   30   26 2
    31   31   26 2
    32   32   27 2
    33   33   27 2
    34   34   28 2
    35   35   28 2
    36   36   29 1
    37   37   22 1
    38   38   24 1
@<TRIPOS>SUBSTRUCTURE
     1 RES1 1
     2 RES2 20

@<TRIPOS>CRYSIN
   9.1295   18.6869    9.7902  90.0000  90.0000  90.0000  29 1

