# MOL2 file generated by ConQuest
# Please check atom types

@<TRIPOS>MOLECULE
PICRAC14
    38    38     2
SMALL
NO_CHARGES
****
Generated from CSD

@<TRIPOS>ATOM
      1 O1         5.8539    6.0224    7.4671 O.2       1 RES1    0.0000
      2 O2         4.3247    8.0490    7.1214 O.3       1 RES1    0.0000
      3 H1         4.8725    7.5806    7.5524 H         1 RES1    0.0000
      4 O3         2.7188    9.9401    6.3885 O.2       1 RES1    0.0000
      5 C1         4.2991    7.6517    5.8630 C.ar      1 RES1    0.0000
      6 O4         6.0109    4.5184    5.9335 O.2       1 RES1    0.0000
      7 N1         2.9963    9.7053    5.2221 N.pl3     1 RES1    0.0000
      8 N2         5.6421    5.6102    6.3147 N.pl3     1 RES1    0.0000
      9 O5         3.5596    7.2206    0.9682 O.2       1 RES1    0.0000
     10 C2         3.5870    8.0534    3.5454 C.ar      1 RES1    0.0000
     11 H2         3.1315    8.5887    2.9065 H         1 RES1    0.0000
     12 C3         3.6454    8.4286    4.8723 C.ar      1 RES1    0.0000
     13 C4         4.2087    6.8762    3.1701 C.ar      1 RES1    0.0000
     14 O6         4.7090    5.4403    1.4288 O.2       1 RES1    0.0000
     15 N3         4.1540    6.4782    1.7541 N.pl3     1 RES1    0.0000
     16 O7         2.7818   10.4864    4.3078 O.2       1 RES1    0.0000
     17 C5         4.8789    6.0722    4.0619 C.ar      1 RES1    0.0000
     18 H3         5.3034    5.2707    3.7786 H         1 RES1    0.0000
     19 C6         4.9136    6.4735    5.3858 C.ar      1 RES1    0.0000
     20 O8         1.4726   15.8389    3.4073 O.2       2 RES2    0.0000
     21 N4         1.7985   16.4718    4.3999 N.pl3     2 RES2    0.0000
     22 O9         7.1914   16.6195    5.8747 O.3       2 RES2    0.0000
     23 H4         7.6734   16.1862    5.3417 H         2 RES2    0.0000
     24 O10        5.9041   14.1649    2.8007 O.2       2 RES2    0.0000
     25 C7         3.6135   17.2774    5.8277 C.ar      2 RES2    0.0000
     26 H5         2.9890   17.8228    6.2922 H         2 RES2    0.0000
     27 O11        1.0143   17.1006    5.1123 O.2       2 RES2    0.0000
     28 C8         4.0937   15.6842    4.0736 C.ar      2 RES2    0.0000
     29 H6         3.7952   15.1313    3.3612 H         2 RES2    0.0000
     30 N5         6.3460   14.8786    3.6826 N.pl3     2 RES2    0.0000
     31 C9         4.9428   17.2678    6.1873 C.ar      2 RES2    0.0000
     32 O12        7.5557   14.9338    3.9609 O.2       2 RES2    0.0000
     33 N6         5.2906   18.0971    7.3633 N.pl3     2 RES2    0.0000
     34 C10        5.9059   16.5107    5.5053 C.ar      2 RES2    0.0000
     35 C11        5.4248   15.7221    4.4391 C.ar      2 RES2    0.0000
     36 C12        3.2118   16.4793    4.7801 C.ar      2 RES2    0.0000
     37 O13        6.3113   17.8841    7.9581 O.2       2 RES2    0.0000
     38 O14        4.5109   18.9614    7.6925 O.2       2 RES2    0.0000
@<TRIPOS>BOND
     1    1    8 2
     2    2    3 1
     3    4    7 2
     4    5    2 1
     5    6    8 2
     6    7   12 1
     7    8   19 1
     8    9   15 2
     9   10   11 1
    10   12    5 ar
    11   13   10 ar
    12   14   15 2
    13   15   13 1
    14   16    7 2
    15   17   13 ar
    16   18   17 1
    17   19    5 ar
    18   20   21 2
    19   21   27 2
    20   22   23 1
    21   24   30 2
    22   25   26 1
    23   28   29 1
    24   30   32 2
    25   31   25 ar
    26   33   31 1
    27   34   22 1
    28   35   28 ar
    29   36   21 1
    30   37   33 2
    31   38   33 2
    32   10   12 ar
    33   17   19 ar
    34   25   36 ar
    35   28   36 ar
    36   30   35 1
    37   31   34 ar
    38   34   35 ar
@<TRIPOS>SUBSTRUCTURE
     1 RES1 1
     2 RES2 20

@<TRIPOS>CRYSIN
   9.1296   18.7037    9.7994  90.0000  90.0000  90.0000  29 1

