# MOL2 file generated by ConQuest
# Please check atom types

@<TRIPOS>MOLECULE
PICRAC15
    38    38     2
SMALL
NO_CHARGES
****
Generated from CSD

@<TRIPOS>ATOM
      1 O1         5.8609    6.0419    7.4604 O.2       1 RES1    0.0000
      2 O2         4.3332    8.0697    7.1109 O.3       1 RES1    0.0000
      3 H1         4.9077    7.6279    7.5346 H         1 RES1    0.0000
      4 O3         2.7287    9.9562    6.3748 O.2       1 RES1    0.0000
      5 C1         4.3094    7.6682    5.8515 C.ar      1 RES1    0.0000
      6 O4         6.0274    4.5462    5.9269 O.2       1 RES1    0.0000
      7 N1         3.0004    9.7147    5.2108 N.pl3     1 RES1    0.0000
      8 N2         5.6505    5.6327    6.3119 N.pl3     1 RES1    0.0000
      9 O5         3.5584    7.2228    0.9659 O.2       1 RES1    0.0000
     10 C2         3.5904    8.0618    3.5405 C.ar      1 RES1    0.0000
     11 H2         3.1331    8.5971    2.9018 H         1 RES1    0.0000
     12 C3         3.6517    8.4385    4.8689 C.ar      1 RES1    0.0000
     13 C4         4.2134    6.8859    3.1663 C.ar      1 RES1    0.0000
     14 O6         4.7037    5.4505    1.4293 O.2       1 RES1    0.0000
     15 N3         4.1484    6.4858    1.7526 N.pl3     1 RES1    0.0000
     16 O7         2.7800   10.4946    4.3027 O.2       1 RES1    0.0000
     17 C5         4.8857    6.0897    4.0568 C.ar      1 RES1    0.0000
     18 H3         5.3120    5.2883    3.7746 H         1 RES1    0.0000
     19 C6         4.9242    6.4909    5.3783 C.ar      1 RES1    0.0000
     20 O8         1.4901   15.8686    3.4131 O.2       2 RES2    0.0000
     21 N4         1.8167   16.5042    4.4046 N.pl3     2 RES2    0.0000
     22 O9         7.2046   16.6568    5.8848 O.3       2 RES2    0.0000
     23 H4         7.6876   16.2287    5.3470 H         2 RES2    0.0000
     24 O10        5.9222   14.1926    2.8234 O.2       2 RES2    0.0000
     25 C7         3.6307   17.3135    5.8300 C.ar      2 RES2    0.0000
     26 H5         3.0059   17.8615    6.2914 H         2 RES2    0.0000
     27 O11        1.0309   17.1309    5.1119 O.2       2 RES2    0.0000
     28 C8         4.1109   15.7145    4.0832 C.ar      2 RES2    0.0000
     29 H6         3.8136   15.1601    3.3710 H         2 RES2    0.0000
     30 N5         6.3594   14.9089    3.6992 N.pl3     2 RES2    0.0000
     31 C9         4.9534   17.3062    6.1895 C.ar      2 RES2    0.0000
     32 O12        7.5669   14.9624    3.9804 O.2       2 RES2    0.0000
     33 N6         5.3093   18.1378    7.3592 N.pl3     2 RES2    0.0000
     34 C10        5.9121   16.5507    5.5106 C.ar      2 RES2    0.0000
     35 C11        5.4364   15.7559    4.4496 C.ar      2 RES2    0.0000
     36 C12        3.2264   16.5091    4.7876 C.ar      2 RES2    0.0000
     37 O13        6.3219   17.9303    7.9578 O.2       2 RES2    0.0000
     38 O14        4.5244   19.0076    7.6825 O.2       2 RES2    0.0000
@<TRIPOS>BOND
     1    1    8 2
     2    2    3 1
     3    4    7 2
     4    5    2 1
     5    6    8 2
     6    7   12 1
     7    8   19 1
     8    9   15 2
     9   10   11 1
    10   12    5 ar
    11   13   10 ar
    12   14   15 2
    13   15   13 1
    14   16    7 2
    15   17   13 ar
    16   18   17 1
    17   19    5 ar
    18   20   21 2
    19   21   27 2
    20   22   23 1
    21   24   30 2
    22   25   26 1
    23   28   29 1
    24   30   32 2
    25   31   25 ar
    26   33   31 1
    27   34   22 1
    28   35   28 ar
    29   36   21 1
    30   37   33 2
    31   38   33 2
    32   10   12 ar
    33   17   19 ar
    34   25   36 ar
    35   28   36 ar
    36   30   35 1
    37   31   34 ar
    38   34   35 ar
@<TRIPOS>SUBSTRUCTURE
     1 RES1 1
     2 RES2 20

@<TRIPOS>CRYSIN
   9.1476   18.7463    9.7966  90.0000  90.0000  90.0000  29 1

