# MOL2 file generated by ConQuest
# Please check atom types

@<TRIPOS>MOLECULE
PICRIC
    34    36     1
SMALL
NO_CHARGES
****
Generated from CSD

@<TRIPOS>ATOM
      1 N1         4.2335    4.6353    2.8952 N.pl3     1 RES1    0.0000
      2 N2         4.4135    5.9849    2.9810 N.2       1 RES1    0.0000
      3 N3         2.2307    3.0508    4.2980 N.pl3     1 RES1    0.0000
      4 N4         5.7686    1.2435    7.1398 N.pl3     1 RES1    0.0000
      5 O1         1.7330    4.1280    4.0436 O.2       1 RES1    0.0000
      6 O2         1.6233    2.0068    4.3103 O.2       1 RES1    0.0000
      7 O3         6.9599    1.1238    7.3667 O.2       1 RES1    0.0000
      8 O4         4.9076    0.6229    7.7328 O.2       1 RES1    0.0000
      9 O5         1.8597    2.5173   -1.8703 O.2       1 RES1    0.0000
     10 C1         3.9723    6.4597    1.8238 C.2       1 RES1    0.0000
     11 C2         3.5082    5.4293    0.9803 C.2       1 RES1    0.0000
     12 C3         3.6940    4.2571    1.6974 C.2       1 RES1    0.0000
     13 C4         4.5922    3.8175    4.0023 C.ar      1 RES1    0.0000
     14 C5         3.6575    3.0040    4.6466 C.ar      1 RES1    0.0000
     15 C6         4.0333    2.1429    5.6663 C.ar      1 RES1    0.0000
     16 H1         3.3955    1.5532    6.0719 H         1 RES1    0.0000
     17 C7         5.3546    2.1547    6.0610 C.ar      1 RES1    0.0000
     18 C8         6.2974    2.9781    5.4879 C.ar      1 RES1    0.0000
     19 H2         7.2080    2.9686    5.8044 H         1 RES1    0.0000
     20 C9         5.9034    3.8007    4.4457 C.ar      1 RES1    0.0000
     21 H3         6.5436    4.3772    4.0253 H         1 RES1    0.0000
     22 C10        3.4715    2.9050    1.3287 C.2       1 RES1    0.0000
     23 H4         3.7343    2.2354    1.9713 H         1 RES1    0.0000
     24 C11        2.9248    2.4673    0.1757 C.2       1 RES1    0.0000
     25 H5         2.8895    1.5119    0.0946 H         1 RES1    0.0000
     26 C12        2.3909    3.1899   -0.9892 C.2       1 RES1    0.0000
     27 C13        2.4683    4.6245   -1.1569 C.2       1 RES1    0.0000
     28 H6         2.1162    4.9462   -1.9979 H         1 RES1    0.0000
     29 C14        2.9492    5.5714   -0.3410 C.2       1 RES1    0.0000
     30 H7         2.9157    6.4692   -0.6822 H         1 RES1    0.0000
     31 C15        3.9919    7.9166    1.5251 C.3       1 RES1    0.0000
     32 H8         4.3719    8.3817    2.2796 H         1 RES1    0.0000
     33 H9         4.5230    8.0823    0.7435 H         1 RES1    0.0000
     34 H10        3.0948    8.2280    1.3667 H         1 RES1    0.0000
@<TRIPOS>BOND
     1    1    2 1
     2    2   10 2
     3    3    5 2
     4    4    7 2
     5    6    3 2
     6    8    4 2
     7    9   26 2
     8   10   11 1
     9   11   12 2
    10   12    1 1
    11   13    1 1
    12   14    3 1
    13   15   14 ar
    14   16   15 1
    15   17    4 1
    16   18   17 ar
    17   19   18 1
    18   20   13 ar
    19   21   20 1
    20   22   12 1
    21   23   22 1
    22   24   22 2
    23   25   24 1
    24   26   24 1
    25   27   26 1
    26   28   27 1
    27   29   11 1
    28   30   29 1
    29   31   10 1
    30   32   31 1
    31   33   31 1
    32   34   31 1
    33   13   14 ar
    34   15   17 ar
    35   18   20 ar
    36   27   29 2
@<TRIPOS>SUBSTRUCTURE
     1 RES1 1

@<TRIPOS>CRYSIN
   7.7190    9.1180   11.1130  78.7600  69.8800  76.1400   2 1

