# MOL2 file generated by ConQuest
# Please check atom types

@<TRIPOS>MOLECULE
PICRAC17
    38    38     2
SMALL
NO_CHARGES
****
Generated from CSD

@<TRIPOS>ATOM
      1 O1         5.8837    6.1009    7.4476 O.2       1 RES1    0.0000
      2 O2         4.3654    8.1387    7.0845 O.3       1 RES1    0.0000
      3 H1         4.9065    7.6776    7.5132 H         1 RES1    0.0000
      4 O3         2.7550   10.0109    6.3437 O.2       1 RES1    0.0000
      5 C1         4.3323    7.7263    5.8289 C.ar      1 RES1    0.0000
      6 O4         6.0696    4.6164    5.9229 O.2       1 RES1    0.0000
      7 N1         3.0145    9.7570    5.1928 N.pl3     1 RES1    0.0000
      8 N2         5.6868    5.6981    6.2938 N.pl3     1 RES1    0.0000
      9 O5         3.5510    7.2391    0.9591 O.2       1 RES1    0.0000
     10 C2         3.6025    8.0962    3.5232 C.ar      1 RES1    0.0000
     11 H2         3.1443    8.6165    2.8890 H         1 RES1    0.0000
     12 C3         3.6697    8.4880    4.8414 C.ar      1 RES1    0.0000
     13 C4         4.2246    6.9215    3.1562 C.ar      1 RES1    0.0000
     14 O6         4.7151    5.4805    1.4240 O.2       1 RES1    0.0000
     15 N3         4.1491    6.5123    1.7469 N.pl3     1 RES1    0.0000
     16 O7         2.7781   10.5317    4.2865 O.2       1 RES1    0.0000
     17 C5         4.9074    6.1379    4.0458 C.ar      1 RES1    0.0000
     18 H3         5.3316    5.3464    3.7688 H         1 RES1    0.0000
     19 C6         4.9534    6.5481    5.3631 C.ar      1 RES1    0.0000
     20 O8         1.5303   15.9794    3.4282 O.2       2 RES2    0.0000
     21 N4         1.8533   16.6309    4.4118 N.pl3     2 RES2    0.0000
     22 O9         7.2364   16.7875    5.8954 O.3       2 RES2    0.0000
     23 H4         7.7149   16.3659    5.3640 H         2 RES2    0.0000
     24 O10        5.9638   14.3010    2.8577 O.2       2 RES2    0.0000
     25 C7         3.6624   17.4423    5.8397 C.ar      2 RES2    0.0000
     26 H5         3.0431   17.9849    6.2928 H         2 RES2    0.0000
     27 O11        1.0674   17.2557    5.1125 O.2       2 RES2    0.0000
     28 C8         4.1464   15.8369    4.0976 C.ar      2 RES2    0.0000
     29 H6         3.8574   15.2872    3.3920 H         2 RES2    0.0000
     30 N5         6.3972   15.0265    3.7307 N.pl3     2 RES2    0.0000
     31 C9         4.9920   17.4365    6.1979 C.ar      2 RES2    0.0000
     32 O12        7.5998   15.0831    4.0086 O.2       2 RES2    0.0000
     33 N6         5.3371   18.2843    7.3546 N.pl3     2 RES2    0.0000
     34 C10        5.9490   16.6829    5.5196 C.ar      2 RES2    0.0000
     35 C11        5.4770   15.8813    4.4695 C.ar      2 RES2    0.0000
     36 C12        3.2612   16.6258    4.7945 C.ar      2 RES2    0.0000
     37 O13        6.3484   18.0888    7.9565 O.2       2 RES2    0.0000
     38 O14        4.5531   19.1524    7.6698 O.2       2 RES2    0.0000
@<TRIPOS>BOND
     1    1    8 2
     2    2    3 1
     3    4    7 2
     4    5    2 1
     5    6    8 2
     6    7   12 1
     7    8   19 1
     8    9   15 2
     9   10   11 1
    10   12    5 ar
    11   13   10 ar
    12   14   15 2
    13   15   13 1
    14   16    7 2
    15   17   13 ar
    16   18   17 1
    17   19    5 ar
    18   20   21 2
    19   21   27 2
    20   22   23 1
    21   24   30 2
    22   25   26 1
    23   28   29 1
    24   30   32 2
    25   31   25 ar
    26   33   31 1
    27   34   22 1
    28   35   28 ar
    29   36   21 1
    30   37   33 2
    31   38   33 2
    32   10   12 ar
    33   17   19 ar
    34   25   36 ar
    35   28   36 ar
    36   30   35 1
    37   31   34 ar
    38   34   35 ar
@<TRIPOS>SUBSTRUCTURE
     1 RES1 1
     2 RES2 20

@<TRIPOS>CRYSIN
   9.2019   18.8917    9.7866  90.0000  90.0000  90.0000  29 1

