# MOL2 file generated by ConQuest
# Please check atom types

@<TRIPOS>MOLECULE
PICRAC12
    38    38     2
SMALL
NO_CHARGES
****
Generated from CSD

@<TRIPOS>ATOM
      1 O1         1.9526    2.0978    9.6051 O.3       1 RES1    0.0000
      2 H1         1.4512    2.5990    8.9432 H         1 RES1    0.0000
      3 O2         1.5862    3.7938    7.6968 O.2       1 RES1    0.0000
      4 O3         3.2386    4.5739    6.5426 O.2       1 RES1    0.0000
      5 O4         7.6831    2.8967    7.1330 O.2       1 RES1    0.0000
      6 O5         8.1397    1.6215    8.8304 O.2       1 RES1    0.0000
      7 O6         4.6420   -0.2620   11.4045 O.2       1 RES1    0.0000
      8 O7         2.8400    0.8127   11.6859 O.2       1 RES1    0.0000
      9 N1         2.7986    3.8522    7.4183 N.pl3     1 RES1    0.0000
     10 N2         7.3562    2.2527    8.1224 N.pl3     1 RES1    0.0000
     11 N3         3.8586    0.6085   11.0829 N.pl3     1 RES1    0.0000
     12 C1         3.2423    2.2061    9.2334 C.ar      1 RES1    0.0000
     13 C2         3.7190    3.0073    8.1704 C.ar      1 RES1    0.0000
     14 C3         5.0554    3.0423    7.8076 C.ar      1 RES1    0.0000
     15 H2         5.3520    3.5972    7.0967 H         1 RES1    0.0000
     16 C4         5.9426    2.2500    8.5038 C.ar      1 RES1    0.0000
     17 C5         5.5385    1.4372    9.5531 C.ar      1 RES1    0.0000
     18 H3         6.1621    0.8870   10.0110 H         1 RES1    0.0000
     19 C6         4.2094    1.4483    9.9120 C.ar      1 RES1    0.0000
     20 O8         4.3527    8.1068    5.9223 O.3       2 RES2    0.0000
     21 H4         4.8864    7.6840    6.2367 H         2 RES2    0.0000
     22 O9         2.7408    9.9969    5.1894 O.2       2 RES2    0.0000
     23 O10        2.7895   10.5399    3.1105 O.2       2 RES2    0.0000
     24 O11        3.5683    7.2557   -0.2255 O.2       2 RES2    0.0000
     25 O12        4.7210    5.4707    0.2383 O.2       2 RES2    0.0000
     26 O13        6.0510    4.5708    4.7471 O.2       2 RES2    0.0000
     27 O14        5.8811    6.0709    6.2739 O.2       2 RES2    0.0000
     28 N4         3.0117    9.7521    4.0234 N.pl3     2 RES2    0.0000
     29 N5         4.1626    6.5120    0.5619 N.pl3     2 RES2    0.0000
     30 N6         5.6772    5.6624    5.1256 N.pl3     2 RES2    0.0000
     31 C7         4.3261    7.7073    4.6657 C.ar      2 RES2    0.0000
     32 C8         3.6675    8.4761    3.6743 C.ar      2 RES2    0.0000
     33 C9         3.6042    8.0949    2.3486 C.ar      2 RES2    0.0000
     34 H5         3.1458    8.6275    1.7102 H         2 RES2    0.0000
     35 C10        4.2241    6.9152    1.9740 C.ar      2 RES2    0.0000
     36 C11        4.9066    6.1165    2.8693 C.ar      2 RES2    0.0000
     37 H6         5.3355    5.3166    2.5888 H         2 RES2    0.0000
     38 C12        4.9424    6.5229    4.1911 C.ar      2 RES2    0.0000
@<TRIPOS>BOND
     1    1    2 1
     2    3    9 2
     3    4    9 2
     4    5   10 2
     5    6   10 2
     6    7   11 2
     7    8   11 2
     8    9   13 1
     9   10   16 1
    10   11   19 1
    11   12    1 1
    12   13   12 ar
    13   14   13 ar
    14   15   14 1
    15   16   14 ar
    16   17   16 ar
    17   18   17 1
    18   19   12 ar
    19   20   21 1
    20   22   28 2
    21   23   28 2
    22   24   29 2
    23   25   29 2
    24   26   30 2
    25   27   30 2
    26   28   32 1
    27   29   35 1
    28   30   38 1
    29   31   20 1
    30   32   31 ar
    31   33   32 ar
    32   34   33 1
    33   35   33 ar
    34   36   35 ar
    35   37   36 1
    36   38   31 ar
    37   17   19 ar
    38   36   38 ar
@<TRIPOS>SUBSTRUCTURE
     1 RES1 1
     2 RES2 20

@<TRIPOS>CRYSIN
   9.1849   18.8333    9.8061  90.0000  90.0000  90.0000  29 1

