# MOL2 file generated by ConQuest
# Please check atom types

@<TRIPOS>MOLECULE
PICRAC
    35    35     2
SMALL
NO_CHARGES
****
Generated from CSD

@<TRIPOS>ATOM
      1 C1         4.3707    1.7482    0.4736 C.ar      1 RES1    0.0000
      2 C2         4.9916    2.9303    0.9326 C.ar      1 RES1    0.0000
      3 C3         4.9324    3.3530    2.2377 C.ar      1 RES1    0.0000
      4 C4         4.2319    2.5841    3.1247 C.ar      1 RES1    0.0000
      5 C5         3.6239    1.4077    2.7511 C.ar      1 RES1    0.0000
      6 C6         3.6933    1.0061    1.4585 C.ar      1 RES1    0.0000
      7 N1         5.7292    3.7623   -0.0068 N.pl3     1 RES1    0.0000
      8 N2         4.1393    3.0163    4.5104 N.pl3     1 RES1    0.0000
      9 N3         3.0233   -0.2659    1.1140 N.pl3     1 RES1    0.0000
     10 O1         4.4040    1.3255   -0.7676 O.3       1 RES1    0.0000
     11 O2         5.9105    3.3511   -1.1490 O.2       1 RES1    0.0000
     12 O3         6.1234    4.8353    0.3600 O.2       1 RES1    0.0000
     13 O4         2.7586   -1.0233    1.9825 O.2       1 RES1    0.0000
     14 O5         2.8040   -0.5413   -0.0349 O.2       1 RES1    0.0000
     15 H1         4.7380    2.1996   -1.4362 H         1 RES1    0.0000
     16 H2         5.3118    4.2079    2.5133 H         1 RES1    0.0000
     17 H3         3.3222    0.8990    3.2800 H         1 RES1    0.0000
     18 O6         4.7075    4.0396    4.8316 O.2       1 RES1    0.0000
     19 O7         3.5211    2.3125    5.2887 O.2       1 RES1    0.0000
     20 C7         3.2768    7.3123    5.5885 C.ar      2 RES2    0.0000
     21 C8         3.7405    6.4955    6.6065 C.ar      2 RES2    0.0000
     22 C9         5.0693    6.4592    6.9879 C.ar      2 RES2    0.0000
     23 C10        5.9494    7.2530    6.3173 C.ar      2 RES2    0.0000
     24 C11        5.5543    8.0831    5.2867 C.ar      2 RES2    0.0000
     25 C12        4.2300    8.0869    4.9190 C.ar      2 RES2    0.0000
     26 N4         2.8262    5.6425    7.3382 N.pl3     2 RES2    0.0000
     27 N5         7.3643    7.2568    6.7026 N.pl3     2 RES2    0.0000
     28 N6         3.8784    8.9400    3.7826 N.pl3     2 RES2    0.0000
     29 O8         1.9794    7.4098    5.1994 O.3       2 RES2    0.0000
     30 O9         1.6324    5.6673    7.0354 O.2       2 RES2    0.0000
     31 O10        3.2417    4.9176    8.2028 O.2       2 RES2    0.0000
     32 O11        7.6817    6.5950    7.6700 O.2       2 RES2    0.0000
     33 O12        8.1417    7.8861    6.0194 O.2       2 RES2    0.0000
     34 O13        4.6381    9.8160    3.4886 O.2       2 RES2    0.0000
     35 O14        2.8817    8.7506    3.1693 O.2       2 RES2    0.0000
@<TRIPOS>BOND
     1    1    2 ar
     2    2    3 ar
     3    3    4 ar
     4    4    5 ar
     5    5    6 ar
     6    6    1 ar
     7    7    2 1
     8    8    4 1
     9    9    6 1
    10   10    1 1
    11   11    7 2
    12   12    7 2
    13   13    9 2
    14   14    9 2
    15   15   10 1
    16   16    3 1
    17   17    5 1
    18   18    8 2
    19   19    8 2
    20   20   21 ar
    21   21   22 ar
    22   22   23 ar
    23   23   24 ar
    24   24   25 ar
    25   25   20 ar
    26   26   21 1
    27   27   23 1
    28   28   25 1
    29   29   20 1
    30   30   26 2
    31   31   26 2
    32   32   27 2
    33   33   27 2
    34   34   28 2
    35   35   28 2
@<TRIPOS>SUBSTRUCTURE
     1 RES1 1
     2 RES2 20

@<TRIPOS>CRYSIN
   9.2540   19.1270    9.7040  90.0000  90.0000  90.0000  29 1

