# MOL2 file generated by ConQuest
# Please check atom types

@<TRIPOS>MOLECULE
PIDDAK
    57    59     1
SMALL
NO_CHARGES
****
Generated from CSD

@<TRIPOS>ATOM
      1 C1         4.7089    3.7718   16.2135 C.3       1 RES1    0.0000
      2 C2         4.2690    2.8253   17.3073 C.ar      1 RES1    0.0000
      3 C3         2.9637    2.7665   17.7810 C.ar      1 RES1    0.0000
      4 C4         2.6416    1.8967   18.8198 C.ar      1 RES1    0.0000
      5 C5         6.2063    5.7236   15.7736 C.3       1 RES1    0.0000
      6 C6         3.6127    1.0913   19.3931 C.ar      1 RES1    0.0000
      7 C7         4.9150    1.1371   18.9234 C.ar      1 RES1    0.0000
      8 C8         5.2387    1.9977   17.8816 C.ar      1 RES1    0.0000
      9 O1         3.6236    3.9946   15.2590 O.3       1 RES1    0.0000
     10 C9         3.8164    5.9450   16.4335 C.3       1 RES1    0.0000
     11 O2         7.3879    4.9795   16.0501 O.3       1 RES1    0.0000
     12 C10        5.1104    5.1748   16.6822 C.3       1 RES1    0.0000
     13 C11        5.7702    5.5768   14.3138 C.3       1 RES1    0.0000
     14 C12        4.2983    5.9422   14.0537 C.3       1 RES1    0.0000
     15 C13        3.8569    5.4385   12.6846 C.3       1 RES1    0.0000
     16 C14        2.5316    5.9966   12.1881 C.3       1 RES1    0.0000
     17 C15        2.1528    5.4815   10.8030 C.3       1 RES1    0.0000
     18 C16        0.8509    6.0626   10.2712 C.3       1 RES1    0.0000
     19 C17        0.4707    5.5295    8.8964 C.3       1 RES1    0.0000
     20 C18       -0.8460    6.0747    8.3556 C.3       1 RES1    0.0000
     21 C19       -1.2172    5.4779    7.0050 C.3       1 RES1    0.0000
     22 C20       -2.5764    5.8963    6.4695 C.3       1 RES1    0.0000
     23 C21       -2.9345    5.2099    5.1573 C.3       1 RES1    0.0000
     24 N1         3.3840    5.4353   15.1183 N.3       1 RES1    0.0000
     25 H1         5.4825    3.3677   15.7198 H         1 RES1    0.0000
     26 H2         7.9842    5.2092   15.5386 H         1 RES1    0.0000
     27 H3         3.1054    5.7322   17.1122 H         1 RES1    0.0000
     28 H4         3.9233    6.9145   16.3618 H         1 RES1    0.0000
     29 H5         5.3838    5.1948   17.6006 H         1 RES1    0.0000
     30 H6         2.2808    3.2817   17.3190 H         1 RES1    0.0000
     31 H7         1.7172    1.8486   19.1544 H         1 RES1    0.0000
     32 H8         6.3588    6.6852   15.9916 H         1 RES1    0.0000
     33 H9         3.3837    0.5159   20.1391 H         1 RES1    0.0000
     34 H10        5.9000    4.6216   14.0497 H         1 RES1    0.0000
     35 H11        6.3509    6.1192   13.7405 H         1 RES1    0.0000
     36 H12        4.1696    6.9073   14.1128 H         1 RES1    0.0000
     37 H13        5.5833    0.5876   19.3396 H         1 RES1    0.0000
     38 H14        6.1576    2.0493   17.5395 H         1 RES1    0.0000
     39 H15        3.8347    4.4353   12.7578 H         1 RES1    0.0000
     40 H16        4.5433    5.6678   12.0390 H         1 RES1    0.0000
     41 H17        1.8008    5.7394   12.8543 H         1 RES1    0.0000
     42 H18        2.5681    6.9790   12.1552 H         1 RES1    0.0000
     43 H19        2.8936    5.6678   10.1917 H         1 RES1    0.0000
     44 H20        2.0754    4.4497   10.8554 H         1 RES1    0.0000
     45 H21        0.9297    7.0722   10.2449 H         1 RES1    0.0000
     46 H22        0.1322    5.8612   10.9007 H         1 RES1    0.0000
     47 H23        0.4308    4.5356    8.9391 H         1 RES1    0.0000
     48 H24        1.2254    5.7179    8.2321 H         1 RES1    0.0000
     49 H25       -1.5600    5.8684    8.9943 H         1 RES1    0.0000
     50 H26       -0.8120    7.0793    8.2853 H         1 RES1    0.0000
     51 H27       -1.2345    4.4926    7.1214 H         1 RES1    0.0000
     52 H28       -0.5095    5.6964    6.3612 H         1 RES1    0.0000
     53 H29       -2.6151    6.9073    6.3415 H         1 RES1    0.0000
     54 H30       -3.2709    5.6606    7.1608 H         1 RES1    0.0000
     55 H31       -2.2491    5.4313    4.4627 H         1 RES1    0.0000
     56 H32       -3.8628    5.4671    4.8467 H         1 RES1    0.0000
     57 H33       -2.9359    4.1989    5.2485 H         1 RES1    0.0000
@<TRIPOS>BOND
     1    1    2 1
     2    2    3 ar
     3    3    4 ar
     4    4    6 ar
     5    5   11 1
     6    6    7 ar
     7    7    8 ar
     8    8    2 ar
     9    9    1 1
    10   10   12 1
    11   11   26 1
    12   12    1 1
    13   13    5 1
    14   14   13 1
    15   15   14 1
    16   16   15 1
    17   17   16 1
    18   18   17 1
    19   19   18 1
    20   20   19 1
    21   21   20 1
    22   22   21 1
    23   23   22 1
    24   24    9 1
    25   25    1 1
    26   27   10 1
    27   28   10 1
    28   29   12 1
    29   30    3 1
    30   31    4 1
    31   32    5 1
    32   33    6 1
    33   34   13 1
    34   35   13 1
    35   36   14 1
    36   37    7 1
    37   38    8 1
    38   39   15 1
    39   40   15 1
    40   41   16 1
    41   42   16 1
    42   43   17 1
    43   44   17 1
    44   45   18 1
    45   46   18 1
    46   47   19 1
    47   48   19 1
    48   49   20 1
    49   50   20 1
    50   51   21 1
    51   52   21 1
    52   53   22 1
    53   54   22 1
    54   55   23 1
    55   56   23 1
    56   57   23 1
    57    5   12 1
    58   10   24 1
    59   14   24 1
@<TRIPOS>SUBSTRUCTURE
     1 RES1 1

@<TRIPOS>CRYSIN
   6.6892    7.1653   19.7476  90.0000  94.2200  90.0000   4 1

