# MOL2 file generated by ConQuest
# Please check atom types

@<TRIPOS>MOLECULE
PIDLAP
    61    65     1
SMALL
NO_CHARGES
****
Generated from CSD

@<TRIPOS>ATOM
      1 O1         2.8879    4.3132    8.2418 O.3       1 RES1    0.0000
      2 O2         5.7286    4.4132    8.3663 O.3       1 RES1    0.0000
      3 O3         5.6085    2.2900    6.7305 O.2       1 RES1    0.0000
      4 N1         2.9583    3.0454    8.8067 N.2       1 RES1    0.0000
      5 N2         6.0869    0.1748    7.2748 N.am      1 RES1    0.0000
      6 N3         5.5998    1.4074   10.3877 N.2       1 RES1    0.0000
      7 C1         5.1584    4.6748   10.6503 C.ar      1 RES1    0.0000
      8 C2         5.7491    5.9173   10.5984 C.ar      1 RES1    0.0000
      9 C3         5.5479    6.8566   11.5940 C.ar      1 RES1    0.0000
     10 C4         4.7384    6.5534   12.6718 C.ar      1 RES1    0.0000
     11 C5         4.1724    5.3248   12.7429 C.ar      1 RES1    0.0000
     12 C6         4.3783    4.3870   11.7500 C.ar      1 RES1    0.0000
     13 C7         7.4663    2.9568   10.8473 C.ar      1 RES1    0.0000
     14 C8         8.4862    3.8147   10.4698 C.ar      1 RES1    0.0000
     15 C9         9.4473    4.2199   11.3738 C.ar      1 RES1    0.0000
     16 C10        9.4263    3.7724   12.6704 C.ar      1 RES1    0.0000
     17 C11        8.4107    2.9370   13.0466 C.ar      1 RES1    0.0000
     18 C12        7.4485    2.5113   12.1562 C.ar      1 RES1    0.0000
     19 C13        3.3682    0.5208   10.4233 C.ar      1 RES1    0.0000
     20 C14        3.8182   -0.7715   10.6873 C.ar      1 RES1    0.0000
     21 C15        2.9418   -1.7702   11.0251 C.ar      1 RES1    0.0000
     22 C16        1.5879   -1.5072   11.1263 C.ar      1 RES1    0.0000
     23 C17        1.1373   -0.2308   10.9102 C.ar      1 RES1    0.0000
     24 C18        2.0078    0.7682   10.5464 C.ar      1 RES1    0.0000
     25 C19        7.1157    1.9813    8.5755 C.3       1 RES1    0.0000
     26 C20        6.2072    1.4728    7.4773 C.2       1 RES1    0.0000
     27 C21        5.2909   -0.3400    6.1492 C.3       1 RES1    0.0000
     28 C22        5.4720   -1.8294    6.2149 C.3       1 RES1    0.0000
     29 C23        5.7766   -2.0948    7.6783 C.3       1 RES1    0.0000
     30 C24        6.6147   -0.9206    8.0996 C.3       1 RES1    0.0000
     31 C25        4.0901    2.8299    9.3688 C.2       1 RES1    0.0000
     32 C26        4.3580    1.5530   10.0663 C.2       1 RES1    0.0000
     33 C27        6.4021    2.5214    9.8516 C.3       1 RES1    0.0000
     34 C28        5.3465    3.6746    9.5110 C.3       1 RES1    0.0000
     35 H1         2.1296    4.2644    7.8233 H         1 RES1    0.0000
     36 H2         6.2789    6.1332    9.8748 H         1 RES1    0.0000
     37 H3         5.9083    7.8323   11.5708 H         1 RES1    0.0000
     38 H4         4.6848    7.2355   13.2804 H         1 RES1    0.0000
     39 H5         3.6203    5.0141   13.3488 H         1 RES1    0.0000
     40 H6         3.9478    3.5865   11.7760 H         1 RES1    0.0000
     41 H7         5.6937    3.7670    7.6728 H         1 RES1    0.0000
     42 H8         7.7159    1.2491    8.9448 H         1 RES1    0.0000
     43 H9         7.6243    2.6736    8.2199 H         1 RES1    0.0000
     44 H10        4.4385   -0.1556    6.2641 H         1 RES1    0.0000
     45 H11        5.5148    0.1132    5.3067 H         1 RES1    0.0000
     46 H12        4.7223   -2.3567    5.9085 H         1 RES1    0.0000
     47 H13        6.2851   -2.1160    5.7033 H         1 RES1    0.0000
     48 H14        4.8311   -2.1829    8.1789 H         1 RES1    0.0000
     49 H15        6.1219   -2.9875    7.8917 H         1 RES1    0.0000
     50 H16        6.5243   -0.6560    9.0679 H         1 RES1    0.0000
     51 H17        7.4821   -0.9334    7.8780 H         1 RES1    0.0000
     52 H18        8.5227    4.1801    9.4919 H         1 RES1    0.0000
     53 H19       10.1512    4.8243   11.1058 H         1 RES1    0.0000
     54 H20       10.0541    4.1074   13.2531 H         1 RES1    0.0000
     55 H21        8.3613    2.6017   13.8685 H         1 RES1    0.0000
     56 H22        6.7202    1.8842   12.4051 H         1 RES1    0.0000
     57 H23        4.8318   -0.9700   10.5997 H         1 RES1    0.0000
     58 H24        3.2330   -2.7151   11.0784 H         1 RES1    0.0000
     59 H25        0.9509   -2.2687   11.3246 H         1 RES1    0.0000
     60 H26        0.1298    0.0517   11.0784 H         1 RES1    0.0000
     61 H27        1.6768    1.6089   10.4493 H         1 RES1    0.0000
@<TRIPOS>BOND
     1    1    4 1
     2    2   34 1
     3    3   26 2
     4    4   31 2
     5    5   26 1
     6    6   32 2
     7    7    8 ar
     8    8    9 ar
     9    9   10 ar
    10   10   11 ar
    11   11   12 ar
    12   12    7 ar
    13   13   14 ar
    14   14   15 ar
    15   15   16 ar
    16   16   17 ar
    17   17   18 ar
    18   18   13 ar
    19   19   20 ar
    20   20   21 ar
    21   21   22 ar
    22   22   23 ar
    23   23   24 ar
    24   24   19 ar
    25   25   26 1
    26   27    5 1
    27   28   27 1
    28   29   28 1
    29   30    5 1
    30   31   32 1
    31   32   19 1
    32   33    6 1
    33   34    7 1
    34   35    1 1
    35   36    8 1
    36   37    9 1
    37   38   10 1
    38   39   11 1
    39   40   12 1
    40   41    2 1
    41   42   25 1
    42   43   25 1
    43   44   27 1
    44   45   27 1
    45   46   28 1
    46   47   28 1
    47   48   29 1
    48   49   29 1
    49   50   30 1
    50   51   30 1
    51   52   14 1
    52   53   15 1
    53   54   16 1
    54   55   17 1
    55   56   18 1
    56   57   20 1
    57   58   21 1
    58   59   22 1
    59   60   23 1
    60   61   24 1
    61   13   33 1
    62   25   33 1
    63   29   30 1
    64   31   34 1
    65   33   34 1
@<TRIPOS>SUBSTRUCTURE
     1 RES1 1

@<TRIPOS>CRYSIN
   8.8320    9.7500   14.1240 101.9600  96.4400  97.1600   2 1

