# MOL2 file generated by ConQuest
# Please check atom types

@<TRIPOS>MOLECULE
PIDLAQ
    36    37     1
SMALL
USER_CHARGES
****
Generated from CSD

@<TRIPOS>ATOM
      1 O1         1.3787    7.1991    2.2165 O.2       1 RES1   -1.0000
      2 O2         4.9224    4.2836    1.6432 O.2       1 RES1    0.0000
      3 N1         2.5741    6.7370    2.1154 N.pl3     1 RES1    1.0000
      4 N2         4.2483    5.3580    1.8116 N.3       1 RES1    0.0000
      5 C1        -0.5537    0.9168    2.1718 C.1       1 RES1    0.0000
      6 C2         0.2900    2.0871    2.0978 C.ar      1 RES1    0.0000
      7 C3         1.9910    4.3102    1.9740 C.ar      1 RES1    0.0000
      8 C4         2.9103    5.4463    1.9530 C.2       1 RES1    0.0000
      9 C5         3.7576    7.6592    2.1516 C.3       1 RES1    0.0000
     10 C6         4.9474    6.6713    1.9311 C.3       1 RES1    0.0000
     11 C7        -1.2240   -0.0539    2.2333 C.1       1 RES1    0.0000
     12 C8        -0.0212    3.2508    2.7965 C.ar      1 RES1    0.0000
     13 C9         0.8109    4.3557    2.7258 C.ar      1 RES1    0.0000
     14 C10        2.2981    3.1463    1.2686 C.ar      1 RES1    0.0000
     15 C11        1.4471    2.0587    1.3191 C.ar      1 RES1    0.0000
     16 H1        -1.7618   -0.8354    2.2838 H         1 RES1    0.0000
     17 H2        -0.8117    3.2841    3.3226 H         1 RES1    0.0000
     18 H3         0.5851    5.1511    3.1938 H         1 RES1    0.0000
     19 H4         3.0948    3.1050    0.7526 H         1 RES1    0.0000
     20 H5         1.6455    1.2793    0.8132 H         1 RES1    0.0000
     21 C12        3.5821    8.6871    1.0447 C.3       1 RES1    0.0000
     22 H6         4.3161    9.2904    1.0421 H         1 RES1    0.0000
     23 H7         2.7756    9.1704    1.1794 H         1 RES1    0.0000
     24 H8         3.5436    8.2312    0.2130 H         1 RES1    0.0000
     25 C13        3.7569    8.3396    3.5061 C.3       1 RES1    0.0000
     26 H9         4.4966    8.9333    3.5667 H         1 RES1    0.0000
     27 H10        2.9493    8.8265    3.6206 H         1 RES1    0.0000
     28 H11        3.8268    7.6774    4.1838 H         1 RES1    0.0000
     29 C14        5.7604    6.8694    0.6684 C.3       1 RES1    0.0000
     30 H12        6.2256    7.6970    0.7063 H         1 RES1    0.0000
     31 H13        6.3847    6.1596    0.5716 H         1 RES1    0.0000
     32 H14        5.1675    6.8726   -0.0741 H         1 RES1    0.0000
     33 C15        5.8790    6.5543    3.1357 C.3       1 RES1    0.0000
     34 H15        6.3522    7.3690    3.2603 H         1 RES1    0.0000
     35 H16        6.4967    5.8453    2.9968 H         1 RES1    0.0000
     36 H17        5.3554    6.3725    3.9076 H         1 RES1    0.0000
@<TRIPOS>BOND
     1    1    3 1
     2    2    4 1
     3    3    8 2
     4    4    8 1
     5    5    6 1
     6    6   12 ar
     7    7    8 1
     8    9    3 1
     9   10    4 1
    10   11    5 3
    11   12   13 ar
    12   13    7 ar
    13   14    7 ar
    14   15    6 ar
    15   16   11 1
    16   17   12 1
    17   18   13 1
    18   19   14 1
    19   20   15 1
    20   21    9 1
    21   22   21 1
    22   23   21 1
    23   24   21 1
    24   25    9 1
    25   26   25 1
    26   27   25 1
    27   28   25 1
    28   29   10 1
    29   30   29 1
    30   31   29 1
    31   32   29 1
    32   33   10 1
    33   34   33 1
    34   35   33 1
    35   36   33 1
    36    9   10 1
    37   14   15 ar
@<TRIPOS>SUBSTRUCTURE
     1 RES1 1

@<TRIPOS>CRYSIN
   8.0924   19.9703    8.9073  90.0000 109.0790  90.0000  14 1

