# MOL2 file generated by ConQuest
# Please check atom types

@<TRIPOS>MOLECULE
PIDLEU
    35    36     1
SMALL
USER_CHARGES
****
Generated from CSD

@<TRIPOS>ATOM
      1 O1         1.5567    5.5630    5.6845 O.2       1 RES1   -1.0000
      2 O2         1.5661    1.9365    2.7972 O.2       1 RES1    0.0000
      3 N1         0.7890    2.8011    6.6966 N.ar      1 RES1    0.0000
      4 N2         1.4417    4.8681    4.6062 N.pl3     1 RES1    1.0000
      5 N3         1.5013    3.1506    3.2265 N.3       1 RES1    0.0000
      6 C1         2.0407    0.2028    9.0574 C.1       1 RES1    0.0000
      7 C2         1.9120    0.9984    7.8554 C.ar      1 RES1    0.0000
      8 C3         1.6411    2.6023    5.6671 C.ar      1 RES1    0.0000
      9 C4         1.5039    3.5264    4.5267 C.2       1 RES1    0.0000
     10 C5         1.4945    5.5257    3.2457 C.3       1 RES1    0.0000
     11 C6         1.2167    4.3106    2.3071 C.3       1 RES1    0.0000
     12 C7         2.1821   -0.4331   10.0547 C.1       1 RES1    0.0000
     13 C8         0.9364    1.9906    7.7550 C.ar      1 RES1    0.0000
     14 C9         2.6082    1.6120    5.6562 C.ar      1 RES1    0.0000
     15 C10        2.7581    0.7958    6.7625 C.ar      1 RES1    0.0000
     16 H1         2.2912   -0.9395   10.8509 H         1 RES1    0.0000
     17 H2         0.3357    2.0989    8.4834 H         1 RES1    0.0000
     18 H3         3.1518    1.4890    4.8865 H         1 RES1    0.0000
     19 H4         3.4236    0.1181    6.7848 H         1 RES1    0.0000
     20 C11        0.4661    6.6415    3.1804 C.3       1 RES1    0.0000
     21 H5         0.5019    7.0565    2.3264 H         1 RES1    0.0000
     22 H6         0.6586    7.2840    3.8530 H         1 RES1    0.0000
     23 H7        -0.4022    6.2843    3.3229 H         1 RES1    0.0000
     24 C12        2.9123    6.1068    3.1307 C.3       1 RES1    0.0000
     25 H8         3.0120    6.5448    2.2937 H         1 RES1    0.0000
     26 H9         3.0589    6.7292    3.8335 H         1 RES1    0.0000
     27 H10        3.5446    5.4007    3.1964 H         1 RES1    0.0000
     28 C13        2.1336    4.2276    1.0925 C.3       1 RES1    0.0000
     29 H11        1.9580    4.9593    0.5127 H         1 RES1    0.0000
     30 H12        3.0393    4.2608    1.3787 H         1 RES1    0.0000
     31 H13        1.9768    3.4125    0.6307 H         1 RES1    0.0000
     32 C14       -0.2394    4.1750    1.8768 C.3       1 RES1    0.0000
     33 H14       -0.4678    4.8891    1.2932 H         1 RES1    0.0000
     34 H15       -0.8026    4.1994    2.6417 H         1 RES1    0.0000
     35 H16       -0.3553    3.3474    1.4248 H         1 RES1    0.0000
@<TRIPOS>BOND
     1    1    4 1
     2    2    5 1
     3    3    8 ar
     4    4    9 2
     5    5    9 1
     6    6    7 1
     7    7   13 ar
     8    8    9 1
     9   10    4 1
    10   11    5 1
    11   12    6 3
    12   13    3 ar
    13   14    8 ar
    14   15    7 ar
    15   16   12 1
    16   17   13 1
    17   18   14 1
    18   19   15 1
    19   20   10 1
    20   21   20 1
    21   22   20 1
    22   23   20 1
    23   24   10 1
    24   25   24 1
    25   26   24 1
    26   27   24 1
    27   28   11 1
    28   29   28 1
    29   30   28 1
    30   31   28 1
    31   32   11 1
    32   33   32 1
    33   34   32 1
    34   35   32 1
    35   10   11 1
    36   14   15 ar
@<TRIPOS>SUBSTRUCTURE
     1 RES1 1

@<TRIPOS>CRYSIN
   8.5206   15.7718   19.9660  90.0000  90.0000  90.0000  61 1

