# MOL2 file generated by ConQuest
# Please check atom types

@<TRIPOS>MOLECULE
PIDLIZ
    30    31     1
SMALL
NO_CHARGES
****
Generated from CSD

@<TRIPOS>ATOM
      1 N1         3.0574    4.1998    0.8612 N.pl3     1 RES1    0.0000
      2 H1         3.4986    3.9146    0.1387 H         1 RES1    0.0000
      3 N2         3.4553    5.4191    1.4392 N.pl3     1 RES1    0.0000
      4 H2         2.7692    5.9781    1.4147 H         1 RES1    0.0000
      5 N3         1.1300    4.3308    2.0949 N.ar      1 RES1    0.0000
      6 N4         2.1693    1.6250   -0.2420 N.pl3     1 RES1    0.0000
      7 O1         3.0916    2.1749   -0.8529 O.2       1 RES1    0.0000
      8 O2         1.8420    0.4488   -0.4566 O.2       1 RES1    0.0000
      9 C1         1.8796    3.6353    1.2175 C.ar      1 RES1    0.0000
     10 C2         3.9687    5.3186    2.7643 C.ar      1 RES1    0.0000
     11 C3         1.4329    2.3753    0.7421 C.ar      1 RES1    0.0000
     12 C4         0.2363    1.8498    1.2173 C.ar      1 RES1    0.0000
     13 H3        -0.0615    0.9966    0.9261 H         1 RES1    0.0000
     14 C5        -0.5102    2.5770    2.1120 C.ar      1 RES1    0.0000
     15 H4        -1.3331    2.2380    2.4453 H         1 RES1    0.0000
     16 C6        -0.0340    3.8257    2.5211 C.ar      1 RES1    0.0000
     17 C7        -0.8122    4.6976    3.4580 C.3       1 RES1    0.0000
     18 H5        -0.2620    4.9079    4.2420 H         1 RES1    0.0000
     19 H6        -1.6219    4.2278    3.7448 H         1 RES1    0.0000
     20 H7        -1.0603    5.5283    3.0001 H         1 RES1    0.0000
     21 C8         4.6519    4.1860    3.1930 C.ar      1 RES1    0.0000
     22 H8         4.7445    3.4329    2.6203 H         1 RES1    0.0000
     23 C9         5.1986    4.1714    4.4745 C.ar      1 RES1    0.0000
     24 H9         5.6650    3.4004    4.7754 H         1 RES1    0.0000
     25 C10        5.0720    5.2616    5.3140 C.ar      1 RES1    0.0000
     26 H10        5.4534    5.2397    6.1837 H         1 RES1    0.0000
     27 C11        4.3890    6.3829    4.8840 C.ar      1 RES1    0.0000
     28 H11        4.2967    7.1320    5.4603 H         1 RES1    0.0000
     29 C12        3.8377    6.4167    3.6112 C.ar      1 RES1    0.0000
     30 H12        3.3705    7.1897    3.3180 H         1 RES1    0.0000
@<TRIPOS>BOND
     1    1    2 1
     2    3    1 1
     3    4    3 1
     4    5    9 ar
     5    6    7 2
     6    8    6 2
     7    9    1 1
     8   10    3 1
     9   11    6 1
    10   12   11 ar
    11   13   12 1
    12   14   12 ar
    13   15   14 1
    14   16    5 ar
    15   17   16 1
    16   18   17 1
    17   19   17 1
    18   20   17 1
    19   21   10 ar
    20   22   21 1
    21   23   21 ar
    22   24   23 1
    23   25   23 ar
    24   26   25 1
    25   27   25 ar
    26   28   27 1
    27   29   10 ar
    28   30   29 1
    29    9   11 ar
    30   14   16 ar
    31   27   29 ar
@<TRIPOS>SUBSTRUCTURE
     1 RES1 1

@<TRIPOS>CRYSIN
  16.7910    6.6350   21.7040  90.0000 100.5400  90.0000  15 1

