# MOL2 file generated by ConQuest
# Please check atom types

@<TRIPOS>MOLECULE
PIDRIF
    79    77     2
SMALL
NO_CHARGES
****
Generated from CSD

@<TRIPOS>ATOM
      1 O1        -1.9574    8.9511   10.3419 O.2       1 RES1    0.0000
      2 C1         1.1184    7.1353    7.2997 C.ar      1 RES1    0.0000
      3 H1         1.4680    7.1127    6.4171 H         1 RES1    0.0000
      4 N1        12.4771   -2.2030    4.1034 N.pl3     1 RES1    0.0000
      5 N2        -1.4574    9.0238    9.2291 N.pl3     1 RES1    0.0000
      6 O2        12.9150   -1.9779    2.9776 O.2       1 RES1    0.0000
      7 O3        12.9791   -3.0037    4.8798 O.2       1 RES1    0.0000
      8 O4        -1.7799    9.8354    8.3815 O.2       1 RES1    0.0000
      9 C2         9.1027   -0.0233    5.3871 C.ar      1 RES1    0.0000
     10 C3        11.2981   -1.4513    4.5498 C.ar      1 RES1    0.0000
     11 C4         9.7724   -0.8708    6.2476 C.ar      1 RES1    0.0000
     12 H2         9.4670   -0.9589    7.1431 H         1 RES1    0.0000
     13 C5        10.8599   -1.5837    5.8465 C.ar      1 RES1    0.0000
     14 H3        11.3086   -2.1630    6.4521 H         1 RES1    0.0000
     15 C6         9.5635    0.0915    4.0814 C.ar      1 RES1    0.0000
     16 H4         9.1244    0.6793    3.4784 H         1 RES1    0.0000
     17 C7        10.6535   -0.6409    3.6505 C.ar      1 RES1    0.0000
     18 H5        10.9509   -0.5845    2.7498 H         1 RES1    0.0000
     19 C8         7.4534    0.8722    7.0292 C.2       1 RES1    0.0000
     20 C9         7.9783    0.7973    5.8037 C.2       1 RES1    0.0000
     21 C10        6.3418    1.7381    7.4213 C.ar      1 RES1    0.0000
     22 C11        5.0945    3.7930    7.1392 C.ar      1 RES1    0.0000
     23 H6         4.9175    4.5635    6.6151 H         1 RES1    0.0000
     24 C12        6.0714    2.9145    6.7355 C.ar      1 RES1    0.0000
     25 H7         6.5802    3.1200    5.9590 H         1 RES1    0.0000
     26 C13        4.3565    3.5736    8.3077 C.ar      1 RES1    0.0000
     27 C14        3.3373    4.5441    8.7140 C.2       1 RES1    0.0000
     28 C15        1.6195    6.2709    8.2508 C.ar      1 RES1    0.0000
     29 C16        2.6470    5.3171    7.8897 C.2       1 RES1    0.0000
     30 C17        1.0646    6.3258    9.5409 C.ar      1 RES1    0.0000
     31 H8         1.3827    5.7272   10.2074 H         1 RES1    0.0000
     32 C18       -0.3901    8.0678    8.8823 C.ar      1 RES1    0.0000
     33 C19        0.0767    7.2173    9.8644 C.ar      1 RES1    0.0000
     34 H9        -0.2789    7.2498   10.7444 H         1 RES1    0.0000
     35 C20        4.0635    1.9563   10.3898 C.3       1 RES1    0.0000
     36 C21        4.6324    2.4112    9.0246 C.ar      1 RES1    0.0000
     37 C22        5.5556    1.4789    8.5613 C.ar      1 RES1    0.0000
     38 C23        5.5171    0.2881    9.4335 C.ar      1 RES1    0.0000
     39 C24        6.0758   -0.9539    9.3183 C.ar      1 RES1    0.0000
     40 H10        6.6314   -1.1615    8.5756 H         1 RES1    0.0000
     41 C25        4.9914   -1.6070   11.3616 C.ar      1 RES1    0.0000
     42 H11        4.8253   -2.2633   12.0281 H         1 RES1    0.0000
     43 C26        4.6477    0.5709   10.4907 C.ar      1 RES1    0.0000
     44 C27        4.4055   -0.3702   11.4652 C.ar      1 RES1    0.0000
     45 H12        3.8396   -0.1667   12.2015 H         1 RES1    0.0000
     46 C28        5.8216   -1.9111   10.2979 C.ar      1 RES1    0.0000
     47 H13        6.2192   -2.7722   10.2358 H         1 RES1    0.0000
     48 C29        4.6120    2.8527   11.5156 C.3       1 RES1    0.0000
     49 H14        4.2056    3.7507   11.4250 H         1 RES1    0.0000
     50 H15        4.3164    2.4787   12.3839 H         1 RES1    0.0000
     51 C30        6.1259    3.0120   11.5506 C.3       1 RES1    0.0000
     52 H16        6.4325    3.4089   10.6978 H         1 RES1    0.0000
     53 H17        6.5453    2.1201   11.6411 H         1 RES1    0.0000
     54 C31        2.5436    1.8986   10.4907 C.3       1 RES1    0.0000
     55 H18        2.3022    1.4592   11.3448 H         1 RES1    0.0000
     56 H19        2.1954    2.8248   10.5231 H         1 RES1    0.0000
     57 C32        1.8535    1.1672    9.3636 C.3       1 RES1    0.0000
     58 H20        2.1867    0.2346    9.3416 H         1 RES1    0.0000
     59 H21        2.1065    1.5949    8.5083 H         1 RES1    0.0000
     60 C33        0.1117    8.0344    7.6128 C.ar      1 RES1    0.0000
     61 H22       -0.2263    8.6231    6.9490 H         1 RES1    0.0000
     62 C34        0.2934    1.1354    9.4620 C.3       1 RES1    0.0000
     63 C35        0.0047    0.1431   10.5981 C.3       1 RES1    0.0000
     64 C36       10.4403    4.1025   12.4422 C.3       1 RES1    0.0000
     65 C37       -1.5003   -0.1112   10.6357 C.3       1 RES1    0.0000
     66 C38        6.5766    3.9002   12.7100 C.3       1 RES1    0.0000
     67 C39        9.0139    3.4400   12.4861 C.3       1 RES1    0.0000
     68 C40        7.8608    4.5147   12.6958 C.3       1 RES1    0.0000
     69 H23        2.7902    5.3074    6.7549 H         1 RES1    0.0000
     70 H24        7.5691    1.2366    5.1244 H         1 RES1    0.0000
     71 H25        3.1044    4.6275    9.7182 H         1 RES1    0.0000
     72 H26        7.9475    0.4163    7.5572 H         1 RES1    0.0000
     73 C41       -1.8746   -0.8653   11.9388 C.3       1 RES1    0.0000
     74 C42       -0.7634   -1.6280   10.1142 Du        2 SUP2    0.0000
     75 C43       -0.3621    0.6944   10.9100 Du        2 SUP2    0.0000
     76 C44       -0.0283   -0.7186   11.1352 Du        2 SUP2    0.0000
     77 C45        8.5472    3.7106   12.3593 Du        2 SUP2    0.0000
     78 C46        9.0262    4.9603   12.8899 Du        2 SUP2    0.0000
     79 C47       10.5799    4.6367   12.9015 Du        2 SUP2    0.0000
@<TRIPOS>BOND
     1    1    5 2
     2    2    3 1
     3    4    6 2
     4    5    8 2
     5    7    4 2
     6    9   11 ar
     7   10    4 1
     8   11   12 1
     9   13   10 ar
    10   14   13 1
    11   15    9 ar
    12   16   15 1
    13   17   10 ar
    14   18   17 1
    15   19   20 2
    16   20    9 1
    17   21   19 1
    18   22   23 1
    19   24   21 ar
    20   25   24 1
    21   26   22 ar
    22   27   26 1
    23   28    2 ar
    24   29   27 2
    25   30   28 ar
    26   31   30 1
    27   32    5 1
    28   33   30 ar
    29   34   33 1
    30   35   36 1
    31   36   26 ar
    32   37   21 ar
    33   38   37 1
    34   39   38 ar
    35   40   39 1
    36   41   42 1
    37   43   35 1
    38   44   41 ar
    39   45   44 1
    40   46   39 ar
    41   47   46 1
    42   48   35 1
    43   49   48 1
    44   50   48 1
    45   51   48 1
    46   52   51 1
    47   53   51 1
    48   54   35 1
    49   55   54 1
    50   56   54 1
    51   57   54 1
    52   58   57 1
    53   59   57 1
    54   60    2 ar
    55   61   60 1
    56   62   57 1
    57   63   62 1
    58   64   67 1
    59   65   63 1
    60   66   51 1
    61   67   68 1
    62   68   66 1
    63   69   29 1
    64   70   20 1
    65   71   27 1
    66   72   19 1
    67   73   65 1
    68   11   13 ar
    69   15   17 ar
    70   22   24 ar
    71   28   29 1
    72   32   33 ar
    73   32   60 ar
    74   36   37 ar
    75   38   43 ar
    76   41   46 ar
    77   43   44 ar
@<TRIPOS>SUBSTRUCTURE
     1 RES1 1
     2 SUP2 74

@<TRIPOS>CRYSIN
  10.7710   12.9020   14.4670 114.4780  91.8220 107.9970   2 1

