# MOL2 file generated by ConQuest
# Please check atom types

@<TRIPOS>MOLECULE
PIDSIE
    19    21     1
SMALL
NO_CHARGES
****
Generated from CSD

@<TRIPOS>ATOM
      1 O1         6.2434    2.5313   -1.7971 O.2       1 RES1    0.0000
      2 O2         8.2372   -0.1503    1.2474 O.2       1 RES1    0.0000
      3 O3         5.8237    0.4636   -0.0067 O.3       1 RES1    0.0000
      4 N1         7.0444    1.0379   -0.2741 N.am      1 RES1    0.0000
      5 C1         8.5767    2.5301   -1.0974 C.3       1 RES1    0.0000
      6 C2         7.1593    2.0946   -1.1647 C.2       1 RES1    0.0000
      7 C3         8.1710    0.7246    0.4091 C.2       1 RES1    0.0000
      8 C4         9.2732    1.6398   -0.0671 C.3       1 RES1    0.0000
      9 C5         9.8859    2.4168    1.0974 C.3       1 RES1    0.0000
     10 C6        11.2461    2.7375    0.6673 C.3       1 RES1    0.0000
     11 C7        11.6511    1.7445   -0.3576 C.3       1 RES1    0.0000
     12 C8        10.4682    0.8742   -0.6174 C.3       1 RES1    0.0000
     13 C9         5.6695   -0.7963   -0.7319 C.3       1 RES1    0.0000
     14 C10        4.2153   -1.0682   -0.7761 C.ar      1 RES1    0.0000
     15 C11        3.6410   -2.0803   -0.0326 C.ar      1 RES1    0.0000
     16 C12        2.2931   -2.3259   -0.1069 C.ar      1 RES1    0.0000
     17 C13        1.4916   -1.5375   -0.8986 C.ar      1 RES1    0.0000
     18 C14        2.0489   -0.5293   -1.6367 C.ar      1 RES1    0.0000
     19 C15        3.4068   -0.3123   -1.5694 C.ar      1 RES1    0.0000
@<TRIPOS>BOND
     1    1    6 2
     2    2    7 2
     3    3    4 1
     4    4    6 1
     5    5    6 1
     6    7    4 1
     7    8    5 1
     8    9    8 1
     9   10    9 1
    10   11   10 1
    11   12    8 1
    12   13    3 1
    13   14   13 1
    14   15   14 ar
    15   16   15 ar
    16   17   16 ar
    17   18   17 ar
    18   19   14 ar
    19    7    8 1
    20   11   12 1
    21   18   19 ar
@<TRIPOS>SUBSTRUCTURE
     1 RES1 1

@<TRIPOS>CRYSIN
  25.5500   12.0780    8.8810  90.0000  90.7000  90.0000  15 1

