# MOL2 file generated by ConQuest
# Please check atom types

@<TRIPOS>MOLECULE
PIDSEA
    39    41     1
SMALL
NO_CHARGES
****
Generated from CSD

@<TRIPOS>ATOM
      1 C1         0.6958   -0.2662    5.5693 C.ar      1 RES1    0.0000
      2 C2        -0.2199    0.2740    4.6817 C.ar      1 RES1    0.0000
      3 C3         0.1244    1.2834    3.8372 C.ar      1 RES1    0.0000
      4 C4         1.3996    1.7887    3.8700 C.ar      1 RES1    0.0000
      5 C5         2.3323    1.2641    4.7542 C.ar      1 RES1    0.0000
      6 C6         1.9736    0.2672    5.5935 C.ar      1 RES1    0.0000
      7 O1         2.8185   -0.3085    6.5399 O.3       1 RES1    0.0000
      8 C7         4.1983   -0.0433    6.4380 C.ar      1 RES1    0.0000
      9 C8         4.9675   -0.7370    5.5573 C.ar      1 RES1    0.0000
     10 C9         6.3322   -0.5016    5.5072 C.ar      1 RES1    0.0000
     11 C10        6.8837    0.4327    6.3585 C.ar      1 RES1    0.0000
     12 C11        6.1179    1.1221    7.2842 C.ar      1 RES1    0.0000
     13 C12        4.7455    0.8742    7.3118 C.ar      1 RES1    0.0000
     14 C13        6.8038    2.0267    8.1995 C.2       1 RES1    0.0000
     15 C14        8.0465    2.4098    7.9421 C.2       1 RES1    0.0000
     16 C15        8.7299    1.8967    6.7212 C.3       1 RES1    0.0000
     17 O2         8.2534    0.6190    6.2947 O.3       1 RES1    0.0000
     18 C16        8.7441    3.4453    8.7745 C.3       1 RES1    0.0000
     19 N1        10.1321    3.0956    9.0577 N.am      1 RES1    0.0000
     20 O3        10.2561    2.0444    9.9920 O.3       1 RES1    0.0000
     21 C17       11.0939    4.0486    9.1303 C.2       1 RES1    0.0000
     22 O4        10.9577    5.1113    8.4982 O.2       1 RES1    0.0000
     23 N2        12.1725    3.7871    9.8573 N.am      1 RES1    0.0000
     24 H1         0.4551   -0.9969    6.1427 H         1 RES1    0.0000
     25 H2        -1.1224   -0.0522    4.6644 H         1 RES1    0.0000
     26 H3        -0.5323    1.6389    3.2328 H         1 RES1    0.0000
     27 H4         1.6589    2.4875    3.2656 H         1 RES1    0.0000
     28 H5         3.2255    1.6128    4.8009 H         1 RES1    0.0000
     29 H6         4.5500   -1.3847    4.9856 H         1 RES1    0.0000
     30 H7         6.8881   -0.9755    4.8838 H         1 RES1    0.0000
     31 H8         4.1786    1.3424    7.9301 H         1 RES1    0.0000
     32 H9         6.3529    2.3482    8.9818 H         1 RES1    0.0000
     33 H10        9.6766    1.8508    6.8732 H         1 RES1    0.0000
     34 H11        8.5758    2.5241    6.0114 H         1 RES1    0.0000
     35 H12        8.2722    3.5460    9.6034 H         1 RES1    0.0000
     36 H13        8.7180    4.2856    8.3117 H         1 RES1    0.0000
     37 H14       10.4749    1.2516    9.4221 H         1 RES1    0.0000
     38 H15       12.9958    4.2725    9.4446 H         1 RES1    0.0000
     39 H16       12.3043    2.9374   10.3495 H         1 RES1    0.0000
@<TRIPOS>BOND
     1    1    2 ar
     2    2    3 ar
     3    3    4 ar
     4    4    5 ar
     5    5    6 ar
     6    6    1 ar
     7    7    6 1
     8    8    7 1
     9    9    8 ar
    10   10    9 ar
    11   11   10 ar
    12   12   11 ar
    13   13    8 ar
    14   14   12 1
    15   15   14 2
    16   16   15 1
    17   17   11 1
    18   18   15 1
    19   19   18 1
    20   20   19 1
    21   21   19 1
    22   22   21 2
    23   23   21 1
    24   24    1 1
    25   25    2 1
    26   26    3 1
    27   27    4 1
    28   28    5 1
    29   29    9 1
    30   30   10 1
    31   31   13 1
    32   32   14 1
    33   33   16 1
    34   34   16 1
    35   35   18 1
    36   36   18 1
    37   37   20 1
    38   38   23 1
    39   39   23 1
    40   12   13 ar
    41   16   17 1
@<TRIPOS>SUBSTRUCTURE
     1 RES1 1

@<TRIPOS>CRYSIN
  16.9010    5.2193   19.2140  90.0000 116.0010  90.0000  14 1

