# MOL2 file generated by ConQuest
# Please check atom types

@<TRIPOS>MOLECULE
PIFPEA
    31    32     1
SMALL
NO_CHARGES
****
Generated from CSD

@<TRIPOS>ATOM
      1 O1         0.8897    7.9235    4.8137 O.2       1 RES1    0.0000
      2 O2        -0.7238    1.7800    2.8971 O.2       1 RES1    0.0000
      3 O3         0.3550    0.2138    3.9415 O.2       1 RES1    0.0000
      4 N1        -0.0625    6.2898    3.5342 N.am      1 RES1    0.0000
      5 N2        -0.1772    5.4379    4.6186 N.2       1 RES1    0.0000
      6 N3        -0.3148    1.2511    3.9380 N.pl3     1 RES1    0.0000
      7 C1         0.4990    7.5103    3.7118 C.2       1 RES1    0.0000
      8 C2         0.6520    8.3291    2.4698 C.ar      1 RES1    0.0000
      9 C3         0.5643    9.7216    2.5825 C.ar      1 RES1    0.0000
     10 H1         0.3782   10.1193    3.4258 H         1 RES1    0.0000
     11 C4         0.7476   10.5192    1.4660 C.ar      1 RES1    0.0000
     12 H2         0.6718   11.4637    1.5395 H         1 RES1    0.0000
     13 C5         1.0415    9.9403    0.2418 C.ar      1 RES1    0.0000
     14 H3         1.1716   10.4916   -0.5201 H         1 RES1    0.0000
     15 C6         1.1481    8.5608    0.1163 C.ar      1 RES1    0.0000
     16 H4         1.3530    8.1724   -0.7255 H         1 RES1    0.0000
     17 C7         0.9524    7.7536    1.2328 C.ar      1 RES1    0.0000
     18 H5         1.0235    6.8099    1.1536 H         1 RES1    0.0000
     19 C8        -0.5079    4.2370    4.3054 C.2       1 RES1    0.0000
     20 H6        -0.6165    3.9841    3.3958 H         1 RES1    0.0000
     21 C9        -0.7157    3.2566    5.3890 C.ar      1 RES1    0.0000
     22 C10       -0.6357    1.8636    5.2328 C.ar      1 RES1    0.0000
     23 C11       -0.8310    0.9848    6.2915 C.ar      1 RES1    0.0000
     24 H7        -0.7509    0.0491    6.1559 H         1 RES1    0.0000
     25 C12       -1.1425    1.4804    7.5428 C.ar      1 RES1    0.0000
     26 H8        -1.2963    0.8868    8.2683 H         1 RES1    0.0000
     27 C13       -1.2293    2.8509    7.7326 C.ar      1 RES1    0.0000
     28 H9        -1.4451    3.1956    8.5915 H         1 RES1    0.0000
     29 C14       -1.0045    3.7217    6.6831 C.ar      1 RES1    0.0000
     30 H10       -1.0456    4.6589    6.8408 H         1 RES1    0.0000
     31 H11       -0.4546    6.0395    2.7466 H         1 RES1    0.0000
@<TRIPOS>BOND
     1    1    7 2
     2    2    6 2
     3    3    6 2
     4    4    5 1
     5    5   19 2
     6    6   22 1
     7    7    4 1
     8    8    7 1
     9    9    8 ar
    10   10    9 1
    11   11    9 ar
    12   12   11 1
    13   13   11 ar
    14   14   13 1
    15   15   13 ar
    16   16   15 1
    17   17    8 ar
    18   18   17 1
    19   19   20 1
    20   21   19 1
    21   22   21 ar
    22   23   22 ar
    23   24   23 1
    24   25   23 ar
    25   26   25 1
    26   27   25 ar
    27   28   27 1
    28   29   21 ar
    29   30   29 1
    30   31    4 1
    31   15   17 ar
    32   27   29 ar
@<TRIPOS>SUBSTRUCTURE
     1 RES1 1

@<TRIPOS>CRYSIN
   6.9121   25.8540    7.6626  90.0000 111.4060  90.0000 231 1

