# MOL2 file generated by ConQuest
# Please check atom types

@<TRIPOS>MOLECULE
PIFZOU
   108   112     2
SMALL
NO_CHARGES
****
Generated from CSD

@<TRIPOS>ATOM
      1 N1        -0.1649   10.1350    2.3131 N.am      1 RES1    0.0000
      2 C1        -0.6969   10.1706    3.6693 C.3       1 RES1    0.0000
      3 H1        -1.6699   10.0508    3.6579 H         1 RES1    0.0000
      4 C2        -0.3340   11.5939    4.1555 C.3       1 RES1    0.0000
      5 H2        -0.9964   12.2091    3.7774 H         1 RES1    0.0000
      6 C3         0.9840   11.8465    3.4320 C.3       1 RES1    0.0000
      7 H3         1.7103   11.4362    3.9472 H         1 RES1    0.0000
      8 C4         0.8906   11.1405    2.0509 C.3       1 RES1    0.0000
      9 H4         1.7332   10.6686    1.8848 H         1 RES1    0.0000
     10 C5         0.6135   12.0541    0.8767 C.ar      1 RES1    0.0000
     11 C6         1.7012   12.6591    0.2583 C.ar      1 RES1    0.0000
     12 H5         2.5625   12.4831    0.5612 H         1 RES1    0.0000
     13 C7         1.5124   13.5256   -0.8067 C.ar      1 RES1    0.0000
     14 H6         2.2505   13.9357   -1.1978 H         1 RES1    0.0000
     15 C8         0.2497   13.7937   -1.3003 C.ar      1 RES1    0.0000
     16 C9        -0.8250   13.1687   -0.7011 C.ar      1 RES1    0.0000
     17 H7        -1.6817   13.3267   -1.0265 H         1 RES1    0.0000
     18 C10       -0.6541   12.3045    0.3845 C.ar      1 RES1    0.0000
     19 H8        -1.3924   11.8972    0.7750 H         1 RES1    0.0000
     20 C11        0.0637   14.7463   -2.4570 C.3       1 RES1    0.0000
     21 H9        -0.8567   14.7417   -2.7305 H         1 RES1    0.0000
     22 H10        0.6178   14.4698   -3.1911 H         1 RES1    0.0000
     23 H11        0.3126   15.6321   -2.1850 H         1 RES1    0.0000
     24 C12       -0.3557    8.9958    1.5924 C.2       1 RES1    0.0000
     25 O1        -1.1180    8.1370    2.0061 O.2       1 RES1    0.0000
     26 C13        0.3903    8.8498    0.3050 C.3       1 RES1    0.0000
     27 H12        0.1443    8.0218   -0.1148 H         1 RES1    0.0000
     28 H13        1.3343    8.8502    0.4810 H         1 RES1    0.0000
     29 H14        0.1715    9.5807   -0.2767 H         1 RES1    0.0000
     30 C14       -0.0402    9.0896    4.5090 C.2       1 RES1    0.0000
     31 O2         1.0952    8.7215    4.3740 O.2       1 RES1    0.0000
     32 O3        -0.8559    8.6485    5.4602 O.3       1 RES1    0.0000
     33 C15       -0.2848    7.7024    6.4057 C.3       1 RES1    0.0000
     34 H15        0.2159    7.0371    5.9294 H         1 RES1    0.0000
     35 H16       -0.9909    7.2804    6.9009 H         1 RES1    0.0000
     36 H17        0.2963    8.1683    7.0109 H         1 RES1    0.0000
     37 C16       -0.3156   11.8181    5.6543 C.ar      1 RES1    0.0000
     38 C17       -1.3526   12.4971    6.2669 C.ar      1 RES1    0.0000
     39 H18       -2.0380   12.8459    5.7439 H         1 RES1    0.0000
     40 C18       -1.3941   12.6686    7.6337 C.ar      1 RES1    0.0000
     41 H19       -2.1061   13.1225    8.0201 H         1 RES1    0.0000
     42 C19       -0.3866   12.1712    8.4309 C.ar      1 RES1    0.0000
     43 C20        0.6801   11.5121    7.8448 C.ar      1 RES1    0.0000
     44 H20        1.3735   11.1826    8.3707 H         1 RES1    0.0000
     45 C21        0.7070   11.3460    6.4672 C.ar      1 RES1    0.0000
     46 H21        1.4283   10.9080    6.0772 H         1 RES1    0.0000
     47 O4        -0.5339   12.3636    9.7776 O.3       1 RES1    0.0000
     48 C22        0.4612   11.8361   10.6374 C.3       1 RES1    0.0000
     49 H22        0.4919   10.8817   10.5431 H         1 RES1    0.0000
     50 H23        0.2512   12.0627   11.5460 H         1 RES1    0.0000
     51 H24        1.3154   12.2085   10.4032 H         1 RES1    0.0000
     52 N2         1.2572   13.3163    3.3022 N.pl3     1 RES1    0.0000
     53 O5         0.3236   14.0870    3.2272 O.2       1 RES1    0.0000
     54 O6         2.4364   13.6428    3.2433 O.2       1 RES1    0.0000
     55 N3         0.8621    5.1017   12.4139 N.am      2 RES2    0.0000
     56 C23        1.4570    4.5227   11.2165 C.3       2 RES2    0.0000
     57 H25        2.4253    4.4402   11.3432 H         2 RES2    0.0000
     58 C24        1.1702    5.5657   10.0938 C.3       2 RES2    0.0000
     59 H26        1.9266    6.1886   10.0637 H         2 RES2    0.0000
     60 C25       -0.0241    6.3145   10.6704 C.3       2 RES2    0.0000
     61 H27       -0.8371    5.7974   10.4928 H         2 RES2    0.0000
     62 C26        0.1969    6.3901   12.2015 C.3       2 RES2    0.0000
     63 H28       -0.6702    6.3894   12.6574 H         2 RES2    0.0000
     64 C27        1.0048    7.5835   12.6575 C.ar      2 RES2    0.0000
     65 C28        0.3355    8.7101   13.1062 C.ar      2 RES2    0.0000
     66 H29       -0.5937    8.7119   13.1400 H         2 RES2    0.0000
     67 C29        1.0341    9.8249   13.5031 C.ar      2 RES2    0.0000
     68 H30        0.5670   10.5703   13.8033 H         2 RES2    0.0000
     69 C30        2.4142    9.8649   13.4639 C.ar      2 RES2    0.0000
     70 C31        3.0736    8.7330   13.0142 C.ar      2 RES2    0.0000
     71 H31        4.0019    8.7356   12.9765 H         2 RES2    0.0000
     72 C32        2.3912    7.6065   12.6229 C.ar      2 RES2    0.0000
     73 H32        2.8602    6.8564   12.3336 H         2 RES2    0.0000
     74 C33        3.1807   11.0821   13.9432 C.3       2 RES2    0.0000
     75 H33        3.1259   11.1375   14.9006 H         2 RES2    0.0000
     76 H34        2.8015   11.8732   13.5534 H         2 RES2    0.0000
     77 H35        4.1005   11.0040   13.6791 H         2 RES2    0.0000
     78 C34        1.0421    4.4956   13.6134 C.2       2 RES2    0.0000
     79 O7         1.6793    3.4466   13.6633 O.2       2 RES2    0.0000
     80 C35        0.4365    5.1330   14.8141 C.3       2 RES2    0.0000
     81 H36        0.5296    6.0866   14.7496 H         2 RES2    0.0000
     82 H37        0.8845    4.8198   15.6032 H         2 RES2    0.0000
     83 H38       -0.4948    4.9058   14.8613 H         2 RES2    0.0000
     84 C36        0.8763    3.1627   10.9131 C.2       2 RES2    0.0000
     85 O8        -0.2349    2.7955   11.1747 O.2       2 RES2    0.0000
     86 O9         1.7815    2.4435   10.2490 O.3       2 RES2    0.0000
     87 C37        1.3455    1.1704    9.7367 C.3       2 RES2    0.0000
     88 H39        2.0616    0.7599    9.2462 H         2 RES2    0.0000
     89 H40        0.5922    1.2989    9.1566 H         2 RES2    0.0000
     90 H41        1.0926    0.6017   10.4676 H         2 RES2    0.0000
     91 C38        0.9720    5.0149    8.6984 C.ar      2 RES2    0.0000
     92 C39        2.0157    5.0759    7.7732 C.ar      2 RES2    0.0000
     93 H42        2.8142    5.4883    8.0107 H         2 RES2    0.0000
     94 C40        1.8830    4.5365    6.5197 C.ar      2 RES2    0.0000
     95 H43        2.5945    4.5778    5.9216 H         2 RES2    0.0000
     96 C41        0.6981    3.9301    6.1352 C.ar      2 RES2    0.0000
     97 C42       -0.3531    3.8668    7.0269 C.ar      2 RES2    0.0000
     98 H44       -1.1556    3.4662    6.7798 H         2 RES2    0.0000
     99 C43       -0.2039    4.4069    8.2936 C.ar      2 RES2    0.0000
    100 H45       -0.9154    4.3588    8.8910 H         2 RES2    0.0000
    101 O10        0.6661    3.4199    4.8680 O.3       2 RES2    0.0000
    102 C44       -0.5245    2.7698    4.4596 C.3       2 RES2    0.0000
    103 H46       -0.4508    1.8287    4.6325 H         2 RES2    0.0000
    104 H47       -0.6615    2.9136    3.5196 H         2 RES2    0.0000
    105 H48       -1.2691    3.1285    4.9485 H         2 RES2    0.0000
    106 N4        -0.1884    7.6946   10.0902 N.pl3     2 RES2    0.0000
    107 O11        0.7601    8.2219    9.5424 O.2       2 RES2    0.0000
    108 O12       -1.2660    8.2214   10.2501 O.2       2 RES2    0.0000
@<TRIPOS>BOND
     1    1    2 1
     2    2    3 1
     3    4    2 1
     4    5    4 1
     5    6    4 1
     6    7    6 1
     7    8    1 1
     8    9    8 1
     9   10    8 1
    10   11   10 ar
    11   12   11 1
    12   13   11 ar
    13   14   13 1
    14   15   13 ar
    15   16   15 ar
    16   17   16 1
    17   18   10 ar
    18   19   18 1
    19   20   15 1
    20   21   20 1
    21   22   20 1
    22   23   20 1
    23   24    1 1
    24   25   24 2
    25   26   24 1
    26   27   26 1
    27   28   26 1
    28   29   26 1
    29   30    2 1
    30   31   30 2
    31   32   30 1
    32   33   32 1
    33   34   33 1
    34   35   33 1
    35   36   33 1
    36   37    4 1
    37   38   37 ar
    38   39   38 1
    39   40   38 ar
    40   41   40 1
    41   42   40 ar
    42   43   42 ar
    43   44   43 1
    44   45   37 ar
    45   46   45 1
    46   47   42 1
    47   48   47 1
    48   49   48 1
    49   50   48 1
    50   51   48 1
    51   52    6 1
    52   53   52 2
    53   54   52 2
    54   55   56 1
    55   56   57 1
    56   58   56 1
    57   59   58 1
    58   60   58 1
    59   61   60 1
    60   62   55 1
    61   63   62 1
    62   64   62 1
    63   65   64 ar
    64   66   65 1
    65   67   65 ar
    66   68   67 1
    67   69   67 ar
    68   70   69 ar
    69   71   70 1
    70   72   64 ar
    71   73   72 1
    72   74   69 1
    73   75   74 1
    74   76   74 1
    75   77   74 1
    76   78   55 1
    77   79   78 2
    78   80   78 1
    79   81   80 1
    80   82   80 1
    81   83   80 1
    82   84   56 1
    83   85   84 2
    84   86   84 1
    85   87   86 1
    86   88   87 1
    87   89   87 1
    88   90   87 1
    89   91   58 1
    90   92   91 ar
    91   93   92 1
    92   94   92 ar
    93   95   94 1
    94   96   94 ar
    95   97   96 ar
    96   98   97 1
    97   99   91 ar
    98  100   99 1
    99  101   96 1
   100  102  101 1
   101  103  102 1
   102  104  102 1
   103  105  102 1
   104  106   60 1
   105  107  106 2
   106  108  106 2
   107    6    8 1
   108   16   18 ar
   109   43   45 ar
   110   60   62 1
   111   70   72 ar
   112   97   99 ar
@<TRIPOS>SUBSTRUCTURE
     1 RES1 1
     2 RES2 55

@<TRIPOS>CRYSIN
   9.7474   14.4829   15.8870  90.7370  98.1400  97.0050   2 1

