# MOL2 file generated by ConQuest
# Please check atom types

@<TRIPOS>MOLECULE
PIGGOE
    40    43     1
SMALL
USER_CHARGES
****
Generated from CSD

@<TRIPOS>ATOM
      1 O1         7.7475    6.1433   30.3440 O.3       1 RES1    0.0000
      2 O2         5.6903    4.4620   20.1232 O.2       1 RES1   -1.0000
      3 N1         6.8177    4.7472   20.6661 N.pl3     1 RES1    1.0000
      4 N2         9.3055    5.3270   21.9010 N.ar      1 RES1    0.0000
      5 C1         7.0589    5.6035   24.7657 C.ar      1 RES1    0.0000
      6 C2         7.4570    6.0313   29.0139 C.ar      1 RES1    0.0000
      7 C3         7.9820    4.7341   19.9352 C.ar      1 RES1    0.0000
      8 C4         6.8773    5.0637   22.0099 C.ar      1 RES1    0.0000
      9 C5         7.1509    5.8167   26.2314 C.ar      1 RES1    0.0000
     10 C6         8.1403    5.3307   22.5900 C.ar      1 RES1    0.0000
     11 C7         8.3790    6.6250   28.1542 C.ar      1 RES1    0.0000
     12 H1         9.0972    7.1008   28.5031 H         1 RES1    0.0000
     13 C8         8.2300    6.5115   26.7877 C.ar      1 RES1    0.0000
     14 H2         8.8586    6.9036   26.2267 H         1 RES1    0.0000
     15 C9         6.3547    5.3765   28.4872 C.ar      1 RES1    0.0000
     16 H3         5.7133    5.0098   29.0514 H         1 RES1    0.0000
     17 C10        9.2020    5.0295   20.5828 C.ar      1 RES1    0.0000
     18 C11        8.1811    5.5904   23.9800 C.ar      1 RES1    0.0000
     19 H4         9.0041    5.7592   24.3761 H         1 RES1    0.0000
     20 C12        5.7063    5.1022   22.7891 C.ar      1 RES1    0.0000
     21 H5         4.8763    4.9495   22.3955 H         1 RES1    0.0000
     22 C13        9.0995    4.3703   17.8349 C.ar      1 RES1    0.0000
     23 C14        6.2173    5.2739   27.1095 C.ar      1 RES1    0.0000
     24 H6         5.4793    4.8280   26.7643 H         1 RES1    0.0000
     25 C15        5.7982    5.3671   24.1304 C.ar      1 RES1    0.0000
     26 H7         5.0218    5.3940   24.6430 H         1 RES1    0.0000
     27 C16        7.9424    4.3943   18.5517 C.ar      1 RES1    0.0000
     28 H8         7.1323    4.1906   18.1423 H         1 RES1    0.0000
     29 C17       10.3800    5.0113   19.7927 C.ar      1 RES1    0.0000
     30 H9        11.1984    5.2172   20.1841 H         1 RES1    0.0000
     31 C18       10.3241    4.6970   18.4706 C.ar      1 RES1    0.0000
     32 H10       11.1087    4.6955   17.9727 H         1 RES1    0.0000
     33 C19        9.1217    3.9811   16.3836 C.3       1 RES1    0.0000
     34 H11        9.6338    3.1764   16.2772 H         1 RES1    0.0000
     35 H12        9.5209    4.6861   15.8695 H         1 RES1    0.0000
     36 H13        8.2230    3.8320   16.0788 H         1 RES1    0.0000
     37 C20        6.9099    5.4391   31.2600 C.3       1 RES1    0.0000
     38 H14        6.9402    4.4998   31.0644 H         1 RES1    0.0000
     39 H15        6.0078    5.7548   31.1763 H         1 RES1    0.0000
     40 H16        7.2196    5.5890   32.1575 H         1 RES1    0.0000
@<TRIPOS>BOND
     1    1    6 1
     2    2    3 1
     3    3    7 ar
     4    4   10 ar
     5    5    9 1
     6    6   11 ar
     7    7   17 ar
     8    8    3 ar
     9    9   13 ar
    10   10    8 ar
    11   11   12 1
    12   13   11 ar
    13   14   13 1
    14   15    6 ar
    15   16   15 1
    16   17    4 ar
    17   18    5 ar
    18   19   18 1
    19   20    8 ar
    20   21   20 1
    21   22   27 ar
    22   23    9 ar
    23   24   23 1
    24   25    5 ar
    25   26   25 1
    26   27    7 ar
    27   28   27 1
    28   29   17 ar
    29   30   29 1
    30   31   22 ar
    31   32   31 1
    32   33   22 1
    33   34   33 1
    34   35   33 1
    35   36   33 1
    36   37    1 1
    37   38   37 1
    38   39   37 1
    39   40   37 1
    40   10   18 ar
    41   15   23 ar
    42   20   25 ar
    43   29   31 ar
@<TRIPOS>SUBSTRUCTURE
     1 RES1 1

@<TRIPOS>CRYSIN
  11.6407    7.2754   36.0753  90.0000  90.0000  90.0000  61 1

