# MOL2 file generated by ConQuest
# Please check atom types

@<TRIPOS>MOLECULE
PIGKIZ
    88    87     3
SMALL
NO_CHARGES
****
Generated from CSD

@<TRIPOS>ATOM
      1 O1        -1.4079   -2.5483    3.3945 O.3       1 RES1    0.0000
      2 O2         0.6759   -1.7868    3.8867 O.2       1 RES1    0.0000
      3 O3         3.1121   -3.2819    0.2953 O.2       1 RES1    0.0000
      4 O4         1.1445   -4.3316   -0.0127 O.3       1 RES1    0.0000
      5 O5         2.2065   -6.5829   -1.3064 O.2       1 RES1    0.0000
      6 O6         0.5386   -2.4051   -1.8936 O.2       1 RES1    0.0000
      7 N1         0.3260   -3.4722    2.4205 N.am      1 RES1    0.0000
      8 N2         1.4668   -4.4102   -1.3654 N.am      1 RES1    0.0000
      9 C1        -3.5516   -2.1239    4.1160 C.3       1 RES1    0.0000
     10 C2        -1.8837   -0.2690    4.1183 C.3       1 RES1    0.0000
     11 C3        -1.6572   -2.1326    5.7919 C.3       1 RES1    0.0000
     12 C4        -2.1199   -1.7309    4.3975 C.3       1 RES1    0.0000
     13 C5        -0.0785   -2.5361    3.2926 C.2       1 RES1    0.0000
     14 C6         1.7343   -3.7465    2.2086 C.3       1 RES1    0.0000
     15 C7         2.2277   -5.0547    2.8826 C.3       1 RES1    0.0000
     16 C8         2.0160   -4.9726    4.3731 C.3       1 RES1    0.0000
     17 C9         1.6479   -6.2913    2.3105 C.3       1 RES1    0.0000
     18 C10        2.1104   -3.7185    0.7574 C.2       1 RES1    0.0000
     19 C11        1.0648   -3.4268   -2.2259 C.2       1 RES1    0.0000
     20 C12        1.4133   -3.9316   -3.6018 C.3       1 RES1    0.0000
     21 C13        1.9525   -5.3463   -3.4003 C.3       1 RES1    0.0000
     22 C14        1.9209   -5.5979   -1.9248 C.2       1 RES1    0.0000
     23 H1        -0.2721   -3.9648    2.0847 H         1 RES1    0.0000
     24 H2        -3.9217   -1.8165    4.8063 H         1 RES1    0.0000
     25 H3        -3.6689   -2.9518    4.6326 H         1 RES1    0.0000
     26 H4        -4.2742   -1.1178    4.0998 H         1 RES1    0.0000
     27 H5        -0.9137    0.0349    4.3199 H         1 RES1    0.0000
     28 H6        -2.4055    0.1572    4.5978 H         1 RES1    0.0000
     29 H7        -2.0070   -0.1747    3.2428 H         1 RES1    0.0000
     30 H8        -0.7202   -1.8514    5.8602 H         1 RES1    0.0000
     31 H9        -2.2641   -1.7291    6.3350 H         1 RES1    0.0000
     32 H10       -1.6381   -3.2137    5.6401 H         1 RES1    0.0000
     33 H11        2.2748   -3.0216    2.5247 H         1 RES1    0.0000
     34 H12        3.2879   -5.2223    2.4321 H         1 RES1    0.0000
     35 H13        2.3781   -4.0172    4.7136 H         1 RES1    0.0000
     36 H14        2.3104   -5.7638    4.7947 H         1 RES1    0.0000
     37 H15        1.0323   -4.8555    4.6210 H         1 RES1    0.0000
     38 H16        2.2948   -6.2179    1.3782 H         1 RES1    0.0000
     39 H17        0.4425   -6.0607    2.5595 H         1 RES1    0.0000
     40 H18        1.8022   -7.2484    2.9417 H         1 RES1    0.0000
     41 H19        0.6271   -3.7552   -4.0998 H         1 RES1    0.0000
     42 H20        2.1712   -3.4233   -3.7640 H         1 RES1    0.0000
     43 H21        2.8995   -5.4494   -3.8219 H         1 RES1    0.0000
     44 H22        1.3194   -6.1306   -3.9029 H         1 RES1    0.0000
     45 O7         1.9181    0.7161    5.7872 O.3       2 RES2    0.0000
     46 O8         3.4796    2.1064    4.8943 O.2       2 RES2    0.0000
     47 O9         1.2280    3.1544    2.5560 O.2       2 RES2    0.0000
     48 O10        3.2339    3.4163    1.5670 O.3       2 RES2    0.0000
     49 O11        1.8787    4.1237   -0.7343 O.2       2 RES2    0.0000
     50 O12        3.7934    5.7079    3.0679 O.2       2 RES2    0.0000
     51 N3         2.2370    0.7248    3.6157 N.am      2 RES2    0.0000
     52 N4         2.8237    4.7001    1.2693 N.am      2 RES2    0.0000
     53 C15        1.1336    0.2707    7.9194 C.3       2 RES2    0.0000
     54 C16        3.5831    0.5414    7.5627 C.3       2 RES2    0.0000
     55 C17        2.0236    2.5308    7.4306 C.3       2 RES2    0.0000
     56 C18        2.1967    1.0532    7.1886 C.3       2 RES2    0.0000
     57 C19        2.6357    1.2610    4.8005 C.2       2 RES2    0.0000
     58 C20        2.7605    1.2680    2.3962 C.3       2 RES2    0.0000
     59 C21        2.3737    0.3720    1.1894 C.3       2 RES2    0.0000
     60 C22        0.8793    0.3808    0.8999 C.3       2 RES2    0.0000
     61 C23        3.1650    0.7179   -0.0486 C.3       2 RES2    0.0000
     62 C24        2.2678    2.6828    2.2283 C.2       2 RES2    0.0000
     63 C25        3.1757    5.7812    2.0267 C.2       2 RES2    0.0000
     64 C26        2.6055    6.9899    1.3423 C.3       2 RES2    0.0000
     65 C27        2.0786    6.4781    0.0093 C.3       2 RES2    0.0000
     66 C28        2.2062    4.9813    0.0510 C.2       2 RES2    0.0000
     67 H23        1.7876    0.0873    3.5555 H         2 RES2    0.0000
     68 H24        3.7149    1.3274    2.3974 H         2 RES2    0.0000
     69 H25        2.9724    1.5021   -0.2780 H         2 RES2    0.0000
     70 H26        2.6694    6.7244   -0.9265 H         2 RES2    0.0000
     71 H27        1.2894    6.6021   -0.1158 H         2 RES2    0.0000
     72 H28        3.2165    7.6152    1.2276 H         2 RES2    0.0000
     73 H29        3.9640    0.6986    0.1042 H         2 RES2    0.0000
     74 H30        2.6903    2.9692    6.9257 H         2 RES2    0.0000
     75 H31        1.8137    2.5850    8.4081 H         2 RES2    0.0000
     76 H32        1.6702    3.0216    6.8909 H         2 RES2    0.0000
     77 H33        1.8795    7.4580    1.9109 H         2 RES2    0.0000
     78 H34        2.8176    0.0699   -0.6833 H         2 RES2    0.0000
     79 H35        1.0114   -0.7161    7.5163 H         2 RES2    0.0000
     80 H36        0.3243    0.5240    7.6321 H         2 RES2    0.0000
     81 H37        1.1820    0.6288    8.8366 H         2 RES2    0.0000
     82 H38        2.6621   -0.6637    1.4477 H         2 RES2    0.0000
     83 H39        0.4091    0.0349    1.7256 H         2 RES2    0.0000
     84 H40        0.6507   -0.3668    0.1737 H         2 RES2    0.0000
     85 H41        4.4461    1.0130    7.0183 H         2 RES2    0.0000
     86 H42        0.5473    1.2401    0.4748 H         2 RES2    0.0000
     87 H43        3.6707    1.1877    8.4197 H         2 RES2    0.0000
     88 H44        3.5317    0.5764    7.2731 Du        3 SUP3    0.0000
@<TRIPOS>BOND
     1    1   12 1
     2    2   13 2
     3    3   18 2
     4    4    8 1
     5    5   22 2
     6    6   19 2
     7    7   13 1
     8    8   19 1
     9    9   12 1
    10   10   12 1
    11   11   12 1
    12   13    1 1
    13   14    7 1
    14   15   14 1
    15   16   15 1
    16   17   15 1
    17   18    4 1
    18   19   20 1
    19   20   21 1
    20   21   22 1
    21   22    8 1
    22   23    7 1
    23   24    9 1
    24   25    9 1
    25   26    9 1
    26   27   10 1
    27   28   10 1
    28   29   10 1
    29   30   11 1
    30   31   11 1
    31   32   11 1
    32   33   14 1
    33   34   15 1
    34   35   16 1
    35   36   16 1
    36   37   16 1
    37   38   17 1
    38   39   17 1
    39   40   17 1
    40   41   20 1
    41   42   20 1
    42   43   21 1
    43   44   21 1
    44   45   56 1
    45   46   57 2
    46   47   62 2
    47   48   52 1
    48   49   66 2
    49   50   63 2
    50   51   57 1
    51   52   63 1
    52   53   56 1
    53   54   56 1
    54   55   56 1
    55   57   45 1
    56   58   51 1
    57   59   58 1
    58   60   59 1
    59   61   59 1
    60   62   48 1
    61   63   64 1
    62   64   65 1
    63   65   66 1
    64   66   52 1
    65   67   51 1
    66   68   58 1
    67   69   61 1
    68   70   65 1
    69   71   65 1
    70   72   64 1
    71   73   61 1
    72   74   55 1
    73   75   55 1
    74   76   55 1
    75   77   64 1
    76   78   61 1
    77   79   53 1
    78   80   53 1
    79   81   53 1
    80   82   59 1
    81   83   60 1
    82   84   60 1
    83   85   54 1
    84   86   60 1
    85   87   54 1
    86   14   18 1
    87   58   62 1
@<TRIPOS>SUBSTRUCTURE
     1 RES1 1
     2 RES2 45
     3 SUP3 88

@<TRIPOS>CRYSIN
   8.3650   17.4660   11.5820  90.0000  90.5800  90.0000   4 1

