# MOL2 file generated by ConQuest
# Please check atom types

@<TRIPOS>MOLECULE
PIGSUV
    33    34     1
SMALL
NO_CHARGES
****
Generated from CSD

@<TRIPOS>ATOM
      1 C1         2.1036    3.6979   10.4825 C.ar      1 RES1    0.0000
      2 C2         1.4250    0.9226    9.0291 C.2       1 RES1    0.0000
      3 H1         1.2720    0.5888    9.8832 H         1 RES1    0.0000
      4 N1         0.9643    0.3683    7.9346 N.2       1 RES1    0.0000
      5 O1         0.6328   -0.3055    5.3262 O.2       1 RES1    0.0000
      6 N2         2.1567    2.0473    8.7680 N.pl3     1 RES1    0.0000
      7 C3         1.4433    1.1394    6.9146 C.2       1 RES1    0.0000
      8 O2         1.4003    1.5915    4.6548 O.2       1 RES1    0.0000
      9 C4         2.1714    2.1766    7.3686 C.2       1 RES1    0.0000
     10 N3         1.1365    0.7859    5.5191 N.pl3     1 RES1    0.0000
     11 O3         3.4343    3.0389    5.6940 O.2       1 RES1    0.0000
     12 C5         2.8619    2.8331    9.7520 C.ar      1 RES1    0.0000
     13 N4         2.8976    3.2766    6.7345 N.pl3     1 RES1    0.0000
     14 O4         2.9745    4.2756    7.3455 O.2       1 RES1    0.0000
     15 C6         4.2228    2.6816   10.0028 C.ar      1 RES1    0.0000
     16 N5         5.0021    1.7208    9.2465 N.pl3     1 RES1    0.0000
     17 O5         4.5671    1.2811    8.2330 O.2       1 RES1    0.0000
     18 C7         4.8345    3.4811   11.0279 C.ar      1 RES1    0.0000
     19 N6         6.1633    3.4367   11.2337 N.3       1 RES1    0.0000
     20 H2         6.5205    3.9245   11.8459 H         1 RES1    0.0000
     21 H3         6.6560    2.9206   10.7539 H         1 RES1    0.0000
     22 O6         6.0974    1.4030    9.6478 O.2       1 RES1    0.0000
     23 N7         4.5579    5.0861   12.9392 N.pl3     1 RES1    0.0000
     24 C8         4.0176    4.3396   11.8279 C.ar      1 RES1    0.0000
     25 O7         5.7888    5.1354   13.0999 O.2       1 RES1    0.0000
     26 C9         2.6201    4.5035   11.5629 C.ar      1 RES1    0.0000
     27 N8         1.8234    5.3337   12.1945 N.3       1 RES1    0.0000
     28 H4         2.1329    5.8326   12.8234 H         1 RES1    0.0000
     29 H5         0.9918    5.3780   11.9810 H         1 RES1    0.0000
     30 O8         3.8198    5.6330   13.7353 O.2       1 RES1    0.0000
     31 N9         0.6768    3.8075   10.1841 N.pl3     1 RES1    0.0000
     32 O9        -0.0962    3.3517   10.9803 O.2       1 RES1    0.0000
     33 O10        0.3370    4.4234    9.2336 O.2       1 RES1    0.0000
@<TRIPOS>BOND
     1    1   12 ar
     2    2    3 1
     3    4    2 2
     4    5   10 2
     5    6    2 1
     6    7    4 1
     7    8   10 2
     8    9    6 1
     9   10    7 1
    10   11   13 2
    11   12    6 1
    12   13    9 1
    13   14   13 2
    14   15   12 ar
    15   16   15 1
    16   17   16 2
    17   18   15 ar
    18   19   18 1
    19   20   19 1
    20   21   19 1
    21   22   16 2
    22   23   24 1
    23   24   18 ar
    24   25   23 2
    25   26    1 ar
    26   27   26 1
    27   28   27 1
    28   29   27 1
    29   30   23 2
    30   31    1 1
    31   32   31 2
    32   33   31 2
    33    7    9 2
    34   24   26 ar
@<TRIPOS>SUBSTRUCTURE
     1 RES1 1

@<TRIPOS>CRYSIN
   9.1580   12.3180   12.8620  90.0000  90.0000  90.0000  19 1

