# MOL2 file generated by ConQuest
# Please check atom types

@<TRIPOS>MOLECULE
PIHBIT
    50    53     1
SMALL
NO_CHARGES
****
Generated from CSD

@<TRIPOS>ATOM
      1 O1         6.0397    5.7036    4.8501 O.3       1 RES1    0.0000
      2 O2         3.9855    4.0721    5.7920 O.2       1 RES1    0.0000
      3 O3         6.0337   12.4488    2.0347 O.2       1 RES1    0.0000
      4 O4         7.1092   11.1937    0.6623 O.2       1 RES1    0.0000
      5 O5         1.3892    2.6287    3.0073 O.3       1 RES1    0.0000
      6 N1         6.4296   11.3559    1.6660 N.pl3     1 RES1    0.0000
      7 N2         2.8640    4.1429    3.8405 N.am      1 RES1    0.0000
      8 C1         5.4785    7.9721    3.9788 C.ar      1 RES1    0.0000
      9 C2         4.9257    9.1924    4.2824 C.ar      1 RES1    0.0000
     10 H1         4.3363    9.2660    4.9976 H         1 RES1    0.0000
     11 C3         5.2370   10.3114    3.5326 C.ar      1 RES1    0.0000
     12 H2         4.8671   11.1385    3.7422 H         1 RES1    0.0000
     13 C4         6.0955   10.1817    2.4816 C.ar      1 RES1    0.0000
     14 C5         6.6768    8.9861    2.1727 C.ar      1 RES1    0.0000
     15 H3         7.2702    8.9188    1.4588 H         1 RES1    0.0000
     16 C6         6.3687    7.8799    2.9364 C.ar      1 RES1    0.0000
     17 H4         6.7686    7.0618    2.7432 H         1 RES1    0.0000
     18 C7         5.0891    6.7742    4.7623 C.3       1 RES1    0.0000
     19 H5         4.5493    6.9391    5.5631 H         1 RES1    0.0000
     20 C8         4.8688    5.4821    4.0855 C.3       1 RES1    0.0000
     21 H6         4.9793    5.4765    3.1106 H         1 RES1    0.0000
     22 C9         3.8794    4.5017    4.6519 C.2       1 RES1    0.0000
     23 C10        2.6649    5.9421    2.0846 C.ar      1 RES1    0.0000
     24 C11        1.9413    6.8373    2.8363 C.ar      1 RES1    0.0000
     25 H7         1.4657    6.5346    3.5757 H         1 RES1    0.0000
     26 C12        1.9112    8.1844    2.5109 C.ar      1 RES1    0.0000
     27 H8         1.4357    8.7779    3.0472 H         1 RES1    0.0000
     28 C13        2.5575    8.6379    1.4348 C.ar      1 RES1    0.0000
     29 H9         2.5161    9.5405    1.2157 H         1 RES1    0.0000
     30 C14        3.2721    7.7926    0.6649 C.ar      1 RES1    0.0000
     31 H10        3.7079    8.1180   -0.0899 H         1 RES1    0.0000
     32 C15        3.3681    6.4201    0.9860 C.ar      1 RES1    0.0000
     33 H11        3.8916    5.8483    0.4731 H         1 RES1    0.0000
     34 C16        1.3771    3.7622    2.1375 C.3       1 RES1    0.0000
     35 H12        0.6268    4.3421    2.3362 H         1 RES1    0.0000
     36 H13        1.3210    3.4841    1.2104 H         1 RES1    0.0000
     37 C17        2.6998    4.4703    2.4131 C.3       1 RES1    0.0000
     38 H14        3.4128    4.0386    1.8975 H         1 RES1    0.0000
     39 C18        1.9291    3.0707    4.2401 C.3       1 RES1    0.0000
     40 H15        2.4397    2.3379    4.6434 H         1 RES1    0.0000
     41 C19        0.8747    3.5295    5.2206 C.3       1 RES1    0.0000
     42 H16        0.3073    4.1913    4.7941 H         1 RES1    0.0000
     43 H17        1.3056    3.9504    5.9807 H         1 RES1    0.0000
     44 C20        0.0203    2.3770    5.7053 C.3       1 RES1    0.0000
     45 H18       -0.4479    1.9906    4.9500 H         1 RES1    0.0000
     46 H19        0.5959    1.6916    6.0785 H         1 RES1    0.0000
     47 C21       -0.9877    2.7933    6.7474 C.3       1 RES1    0.0000
     48 H20       -0.5284    3.0996    7.5320 H         1 RES1    0.0000
     49 H21       -1.5430    2.0425    6.9744 H         1 RES1    0.0000
     50 H22       -1.5340    3.5014    6.3982 H         1 RES1    0.0000
@<TRIPOS>BOND
     1    1   18 1
     2    2   22 2
     3    3    6 2
     4    4    6 2
     5    5   34 1
     6    6   13 1
     7    7   22 1
     8    8    9 ar
     9    9   10 1
    10   11    9 ar
    11   12   11 1
    12   13   11 ar
    13   14   13 ar
    14   15   14 1
    15   16    8 ar
    16   17   16 1
    17   18    8 1
    18   19   18 1
    19   20    1 1
    20   21   20 1
    21   22   20 1
    22   23   24 ar
    23   24   25 1
    24   26   24 ar
    25   27   26 1
    26   28   26 ar
    27   29   28 1
    28   30   28 ar
    29   31   30 1
    30   32   23 ar
    31   33   32 1
    32   34   35 1
    33   36   34 1
    34   37    7 1
    35   38   37 1
    36   39    5 1
    37   40   39 1
    38   41   39 1
    39   42   41 1
    40   43   41 1
    41   44   41 1
    42   45   44 1
    43   46   44 1
    44   47   44 1
    45   48   47 1
    46   49   47 1
    47   50   47 1
    48    7   39 1
    49   14   16 ar
    50   18   20 1
    51   23   37 1
    52   30   32 ar
    53   34   37 1
@<TRIPOS>SUBSTRUCTURE
     1 RES1 1

@<TRIPOS>CRYSIN
   8.1295    9.0897   26.4281  90.0000  90.0000  90.0000  19 1

