# MOL2 file generated by ConQuest
# Please check atom types

@<TRIPOS>MOLECULE
PIJBAL
    44    44     1
SMALL
NO_CHARGES
****
Generated from CSD

@<TRIPOS>ATOM
      1 C1         7.5296    1.0143    4.7085 C.ar      1 RES1    0.0000
      2 O1         6.0366    3.2721    7.0877 O.3       1 RES1    0.0000
      3 C2         6.8835    2.3931    6.5310 C.ar      1 RES1    0.0000
      4 O2        10.3589   -0.9408    5.5856 O.2       1 RES1    0.0000
      5 C3         7.9588    1.9374    7.2339 C.ar      1 RES1    0.0000
      6 C4         8.8332    1.0084    6.7363 C.ar      1 RES1    0.0000
      7 N1         9.4960   -0.4263    4.9014 N.pl3     1 RES1    0.0000
      8 C5         6.6764    1.9462    5.2124 C.ar      1 RES1    0.0000
      9 N2         5.1065    3.8072    4.6961 N.3       1 RES1    0.0000
     10 C6         5.4711    2.4019    4.4224 C.3       1 RES1    0.0000
     11 C7         8.5978    0.5733    5.4425 C.ar      1 RES1    0.0000
     12 O3         9.4129   -0.6968    3.6822 O.2       1 RES1    0.0000
     13 C8         6.1242    4.7038    4.0990 C.3       1 RES1    0.0000
     14 C9         2.6001    3.5367    4.9262 C.3       1 RES1    0.0000
     15 C10        3.7630    4.0835    4.1425 C.3       1 RES1    0.0000
     16 C11        6.0269    6.1650    4.5219 C.3       1 RES1    0.0000
     17 C12        1.3098    3.8189    4.1985 C.3       1 RES1    0.0000
     18 C13        7.1242    6.9264    3.7693 C.3       1 RES1    0.0000
     19 C14        2.5223    4.0982    6.3320 C.3       1 RES1    0.0000
     20 C15        6.1242    6.4060    5.9774 C.3       1 RES1    0.0000
     21 H1         7.3980    0.6430    3.8315 H         1 RES1    0.0000
     22 H2         8.1148    2.2602    8.1080 H         1 RES1    0.0000
     23 H3         9.5507    0.6615    7.2591 H         1 RES1    0.0000
     24 H4         5.6691    2.3149    3.4922 H         1 RES1    0.0000
     25 H5         4.7343    1.8448    4.6365 H         1 RES1    0.0000
     26 H6         6.9824    4.3922    4.3743 H         1 RES1    0.0000
     27 H7         6.0541    4.6383    3.1571 H         1 RES1    0.0000
     28 H8         2.7308    2.5959    4.9816 H         1 RES1    0.0000
     29 H9         3.6597    5.0334    4.0947 H         1 RES1    0.0000
     30 H10        3.7211    3.7263    3.2623 H         1 RES1    0.0000
     31 H11        5.1757    6.4907    4.1854 H         1 RES1    0.0000
     32 H12        1.1957    4.7371    4.0661 H         1 RES1    0.0000
     33 H13        1.3410    3.3800    3.3289 H         1 RES1    0.0000
     34 H14        0.5850    3.4503    4.6806 H         1 RES1    0.0000
     35 H15        7.9892    6.6265    4.0531 H         1 RES1    0.0000
     36 H16        7.0759    6.7682    2.8081 H         1 RES1    0.0000
     37 H17        7.0571    7.8586    3.9106 H         1 RES1    0.0000
     38 H18        3.3340    3.9265    6.7922 H         1 RES1    0.0000
     39 H19        2.3518    5.0213    6.2992 H         1 RES1    0.0000
     40 H20        1.8066    3.6552    6.7922 H         1 RES1    0.0000
     41 H21        7.0037    6.1294    6.2202 H         1 RES1    0.0000
     42 H22        6.0652    7.3571    6.0832 H         1 RES1    0.0000
     43 H23        5.4718    5.9580    6.3949 H         1 RES1    0.0000
     44 H24        5.5578    3.6749    6.2822 H         1 RES1    0.0000
@<TRIPOS>BOND
     1    1    8 ar
     2    2    3 1
     3    3    5 ar
     4    4    7 2
     5    5    6 ar
     6    6   11 ar
     7    7   11 1
     8    8    3 ar
     9    9   10 1
    10   10    8 1
    11   11    1 ar
    12   12    7 2
    13   13    9 1
    14   14   15 1
    15   15    9 1
    16   16   13 1
    17   17   14 1
    18   18   16 1
    19   19   14 1
    20   20   16 1
    21   21    1 1
    22   22    5 1
    23   23    6 1
    24   24   10 1
    25   25   10 1
    26   26   13 1
    27   27   13 1
    28   28   14 1
    29   29   15 1
    30   30   15 1
    31   31   16 1
    32   32   17 1
    33   33   17 1
    34   34   17 1
    35   35   18 1
    36   36   18 1
    37   37   18 1
    38   38   19 1
    39   39   19 1
    40   40   19 1
    41   41   20 1
    42   42   20 1
    43   43   20 1
    44   44    2 1
@<TRIPOS>SUBSTRUCTURE
     1 RES1 1

@<TRIPOS>CRYSIN
   8.8500   29.3990    6.2200  90.0000  90.0000  90.0000  19 1

