# MOL2 file generated by ConQuest
# Please check atom types

@<TRIPOS>MOLECULE
PIJSAF
    41    44     1
SMALL
NO_CHARGES
****
Generated from CSD

@<TRIPOS>ATOM
      1 O1         5.3965    3.8655   13.3465 O.2       1 RES1    0.0000
      2 N1         3.3323    4.6467   10.6409 N.3       1 RES1    0.0000
      3 O2         7.0961    4.1893    7.1333 O.2       1 RES1    0.0000
      4 N2         6.1841    4.6861    6.4839 N.pl3     1 RES1    0.0000
      5 N3         4.3818    4.9263   11.5868 N.am      1 RES1    0.0000
      6 O3         5.8657    4.2806    5.3667 O.2       1 RES1    0.0000
      7 C1         4.0596    3.9021    9.6025 C.3       1 RES1    0.0000
      8 C2         5.0837    5.8930    8.3739 C.ar      1 RES1    0.0000
      9 C3         3.2730    3.6349    8.3654 C.ar      1 RES1    0.0000
     10 C4         4.4534    3.9703   12.5754 C.2       1 RES1    0.0000
     11 C5         5.4493    5.8295    7.0340 C.ar      1 RES1    0.0000
     12 C6         2.1744    4.3854    8.0192 C.ar      1 RES1    0.0000
     13 H1         1.8731    5.0494    8.5966 H         1 RES1    0.0000
     14 C7         3.6903    2.6404    7.4983 C.ar      1 RES1    0.0000
     15 H2         4.4103    2.1013    7.7324 H         1 RES1    0.0000
     16 C8         5.3127    4.8110    9.3969 C.3       1 RES1    0.0000
     17 C9         5.5614    5.3462   10.8294 C.3       1 RES1    0.0000
     18 H3         6.3683    4.9621   11.2061 H         1 RES1    0.0000
     19 H4         5.6445    6.3126   10.8271 H         1 RES1    0.0000
     20 C10        2.3798    3.8463   11.4394 C.3       1 RES1    0.0000
     21 H5         1.9366    3.1899   10.8785 H         1 RES1    0.0000
     22 H6         1.7053    4.4200   11.8357 H         1 RES1    0.0000
     23 C11        4.3470    7.0421    8.7303 C.ar      1 RES1    0.0000
     24 H7         4.0628    7.1365    9.6113 H         1 RES1    0.0000
     25 C12        4.0295    8.0366    7.8136 C.ar      1 RES1    0.0000
     26 H8         3.5483    8.7827    8.0903 H         1 RES1    0.0000
     27 C13        3.1985    3.1526   12.5275 C.3       1 RES1    0.0000
     28 H9         2.7356    3.1720   13.3800 H         1 RES1    0.0000
     29 H10        3.3888    2.2320   12.2903 H         1 RES1    0.0000
     30 C14        5.1271    6.8202    6.1052 C.ar      1 RES1    0.0000
     31 H11        5.3919    6.7310    5.2189 H         1 RES1    0.0000
     32 C15        1.5046    4.1653    6.8181 C.ar      1 RES1    0.0000
     33 H12        0.7505    4.6673    6.6076 H         1 RES1    0.0000
     34 C16        3.0563    2.4396    6.2971 C.ar      1 RES1    0.0000
     35 H13        3.3656    1.7828    5.7154 H         1 RES1    0.0000
     36 C17        4.4205    7.9242    6.5028 C.ar      1 RES1    0.0000
     37 H14        4.2085    8.5910    5.8905 H         1 RES1    0.0000
     38 C18        1.9596    3.2074    5.9459 C.ar      1 RES1    0.0000
     39 H15        1.5355    3.0754    5.1290 H         1 RES1    0.0000
     40 H16        6.0862    4.3047    9.1159 H         1 RES1    0.0000
     41 H17        4.3621    3.1804    9.9555 H         1 RES1    0.0000
@<TRIPOS>BOND
     1    1   10 2
     2    2    5 1
     3    3    4 2
     4    4    6 2
     5    5   10 1
     6    7    2 1
     7    8   11 ar
     8    9    7 1
     9   10   27 1
    10   11    4 1
    11   12    9 ar
    12   13   12 1
    13   14    9 ar
    14   15   14 1
    15   16    7 1
    16   17    5 1
    17   18   17 1
    18   19   17 1
    19   20    2 1
    20   21   20 1
    21   22   20 1
    22   23    8 ar
    23   24   23 1
    24   25   23 ar
    25   26   25 1
    26   27   20 1
    27   28   27 1
    28   29   27 1
    29   30   11 ar
    30   31   30 1
    31   32   12 ar
    32   33   32 1
    33   34   14 ar
    34   35   34 1
    35   36   25 ar
    36   37   36 1
    37   38   32 ar
    38   39   38 1
    39   40   16 1
    40   41    7 1
    41    8   16 1
    42   16   17 1
    43   30   36 ar
    44   34   38 ar
@<TRIPOS>SUBSTRUCTURE
     1 RES1 1

@<TRIPOS>CRYSIN
   9.4213    9.6086   17.1351  90.0000  90.0000  90.0000  19 1

