# MOL2 file generated by ConQuest
# Please check atom types

@<TRIPOS>MOLECULE
PIKKEZ
    31    33     1
SMALL
NO_CHARGES
****
Generated from CSD

@<TRIPOS>ATOM
      1 C1         0.7207   -0.6331   -4.8533 C.3       1 RES1    0.0000
      2 C2         0.5640    0.5648   -3.9395 C.ar      1 RES1    0.0000
      3 C3        -0.2034    0.4783   -2.7951 C.ar      1 RES1    0.0000
      4 C4        -0.3917    1.5777   -1.9888 C.ar      1 RES1    0.0000
      5 C5         0.1597    2.7937   -2.3126 C.ar      1 RES1    0.0000
      6 C6         0.9595    2.8806   -3.4390 C.ar      1 RES1    0.0000
      7 C7         1.1632    1.7774   -4.2620 C.ar      1 RES1    0.0000
      8 C8        -0.1327    3.9981   -1.4585 C.3       1 RES1    0.0000
      9 C9        -1.1978    4.9505   -2.0211 C.3       1 RES1    0.0000
     10 C10       -0.4546    6.2462   -2.1405 C.3       1 RES1    0.0000
     11 C11        1.2139    6.5879    0.9998 C.3       1 RES1    0.0000
     12 C12        0.6699    6.2606    2.3556 C.ar      1 RES1    0.0000
     13 C13       -0.1424    7.1322    3.0615 C.ar      1 RES1    0.0000
     14 C14       -0.6334    6.7998    4.3110 C.ar      1 RES1    0.0000
     15 C15       -0.3195    5.6023    4.9046 C.ar      1 RES1    0.0000
     16 C16        0.4840    4.7280    4.1951 C.ar      1 RES1    0.0000
     17 C17        0.9699    5.0445    2.9385 C.ar      1 RES1    0.0000
     18 C18       -0.8602    5.2284    6.2628 C.3       1 RES1    0.0000
     19 C19        1.7113    8.0030    0.8875 C.3       1 RES1    0.0000
     20 N1         2.5232    8.2508   -0.3488 N.pl3     1 RES1    0.0000
     21 N2        -1.2331    7.5069   -1.8336 N.pl3     1 RES1    0.0000
     22 N3         0.0766    6.4745   -3.5501 N.pl3     1 RES1    0.0000
     23 N4         0.7171    6.1774   -1.2471 N.3       1 RES1    0.0000
     24 O1         3.4226    7.4888   -0.6068 O.2       1 RES1    0.0000
     25 O2         2.2391    9.2379   -1.0010 O.2       1 RES1    0.0000
     26 O3        -0.6638    8.5413   -2.0880 O.2       1 RES1    0.0000
     27 O4        -2.3423    7.3954   -1.3701 O.2       1 RES1    0.0000
     28 O5         1.2639    6.5370   -3.7460 O.2       1 RES1    0.0000
     29 O6        -0.7808    6.5364   -4.4077 O.2       1 RES1    0.0000
     30 O7         0.1299    6.3265    0.0609 O.3       1 RES1    0.0000
     31 O8         1.0776    4.8257   -1.3964 O.3       1 RES1    0.0000
@<TRIPOS>BOND
     1    1    2 1
     2    2    3 ar
     3    3    4 ar
     4    4    5 ar
     5    5    6 ar
     6    6    7 ar
     7    7    2 ar
     8    8    5 1
     9    9    8 1
    10   10    9 1
    11   11   12 1
    12   12   13 ar
    13   13   14 ar
    14   14   15 ar
    15   15   16 ar
    16   16   17 ar
    17   17   12 ar
    18   18   15 1
    19   19   11 1
    20   20   19 1
    21   21   10 1
    22   22   10 1
    23   23   10 1
    24   24   20 2
    25   25   20 2
    26   26   21 2
    27   27   21 2
    28   28   22 2
    29   29   22 2
    30   30   11 1
    31   31    8 1
    32   23   30 1
    33   23   31 1
@<TRIPOS>SUBSTRUCTURE
     1 RES1 1

@<TRIPOS>CRYSIN
   9.0200   10.4860   12.8040 104.7770  98.2130 111.5310   2 1

