# MOL2 file generated by ConQuest
# Please check atom types

@<TRIPOS>MOLECULE
PIKQEF
    28    29     1
SMALL
USER_CHARGES
****
Generated from CSD

@<TRIPOS>ATOM
      1 O1         4.7973    1.6549    5.0099 O.3       1 RES1    0.0000
      2 O2         4.8435    3.8492    3.8818 O.co2     1 RES1    0.0000
      3 O3         6.0709    5.5091    4.7163 O.co2     1 RES1   -1.0000
      4 N1         5.0536    2.2730    6.2356 N.4       1 RES1    1.0000
      5 C1         5.5144    4.4136    4.7856 C.2       1 RES1    0.0000
      6 C2         5.6398    3.7034    6.1066 C.3       1 RES1    0.0000
      7 C3         7.0145    3.1423    6.4892 C.3       1 RES1    0.0000
      8 C4         6.3832    1.8073    6.7861 C.3       1 RES1    0.0000
      9 C5         3.8581    2.1457    7.1275 C.3       1 RES1    0.0000
     10 C6         3.4490    0.7169    7.3345 C.ar      1 RES1    0.0000
     11 C7         4.0594   -0.0586    8.3066 C.ar      1 RES1    0.0000
     12 C8         3.6777   -1.3819    8.4832 C.ar      1 RES1    0.0000
     13 C9         2.6912   -1.9279    7.6889 C.ar      1 RES1    0.0000
     14 C10        2.0566   -1.1524    6.7384 C.ar      1 RES1    0.0000
     15 C11        2.4416    0.1692    6.5575 C.ar      1 RES1    0.0000
     16 H1         4.6632    2.4455    4.2806 H         1 RES1    0.0000
     17 H2         5.3131    4.2545    6.8121 H         1 RES1    0.0000
     18 H3         7.6392    3.1155    5.7696 H         1 RES1    0.0000
     19 H4         7.4171    3.5527    7.2424 H         1 RES1    0.0000
     20 H5         6.7638    1.0837    6.3039 H         1 RES1    0.0000
     21 H6         6.3557    1.5946    7.7105 H         1 RES1    0.0000
     22 H7         4.0682    2.5242    7.9695 H         1 RES1    0.0000
     23 H8         3.1322    2.6147    6.7352 H         1 RES1    0.0000
     24 H9         4.7335    0.3116    8.8614 H         1 RES1    0.0000
     25 H10        4.1012   -1.9195    9.1410 H         1 RES1    0.0000
     26 H11        2.4416   -2.8374    7.7940 H         1 RES1    0.0000
     27 H12        1.3594   -1.5209    6.2129 H         1 RES1    0.0000
     28 H13        2.0137    0.6935    5.8932 H         1 RES1    0.0000
@<TRIPOS>BOND
     1    1    4 1
     2    2    5 2
     3    3    5 1
     4    4    6 1
     5    5    6 1
     6    6    7 1
     7    7    8 1
     8    8    4 1
     9    9    4 1
    10   10    9 1
    11   11   10 ar
    12   12   11 ar
    13   13   12 ar
    14   14   13 ar
    15   15   10 ar
    16   16    1 1
    17   17    6 1
    18   18    7 1
    19   19    7 1
    20   20    8 1
    21   21    8 1
    22   22    9 1
    23   23    9 1
    24   24   11 1
    25   25   12 1
    26   26   13 1
    27   27   14 1
    28   28   15 1
    29   14   15 ar
@<TRIPOS>SUBSTRUCTURE
     1 RES1 1

@<TRIPOS>CRYSIN
  10.9980   16.7500   10.8370  90.0000  90.0000  90.0000  61 1

