# MOL2 file generated by ConQuest
# Please check atom types

@<TRIPOS>MOLECULE
PILGEX
    70    72     2
SMALL
NO_CHARGES
****
Generated from CSD

@<TRIPOS>ATOM
      1 O1        26.1680    2.7954   21.6366 O.2       1 RES1    0.0000
      2 O2        21.8369    0.4849   17.6305 O.3       1 RES1    0.0000
      3 O3        29.2404   -2.5506   26.2920 O.2       1 RES1    0.0000
      4 O4        27.6958   -1.5330   25.2228 O.2       1 RES1    0.0000
      5 O5         6.1090    6.3801   -0.7961 O.2       2 RES2    0.0000
      6 O6         1.2863    3.6587   -3.8709 O.3       2 RES2    0.0000
      7 O7         8.7633    1.3955    4.8079 O.2       2 RES2    0.0000
      8 O8         7.2671    2.2186    3.5377 O.2       2 RES2    0.0000
      9 N1        26.8216    0.6465   21.5733 N.am      1 RES1    0.0000
     10 H1        26.6686   -0.1495   21.2869 H         1 RES1    0.0000
     11 N2        27.8953    0.8787   22.4074 N.2       1 RES1    0.0000
     12 N3        28.8562   -1.6839   25.5164 N.pl3     1 RES1    0.0000
     13 N4         6.3405    4.2539   -0.0643 N.am      2 RES2    0.0000
     14 H2         6.0776    3.4376   -0.1235 H         2 RES2    0.0000
     15 N5         7.3945    4.5723    0.7604 N.2       2 RES2    0.0000
     16 N6         8.4135    2.1596    3.9290 N.pl3     2 RES2    0.0000
     17 C1        20.6995    1.3447   17.5304 C.3       1 RES1    0.0000
     18 H3        20.2303    1.3563   18.3667 H         1 RES1    0.0000
     19 H4        20.1156    1.0220   16.8393 H         1 RES1    0.0000
     20 H5        20.9900    2.2341   17.3116 H         1 RES1    0.0000
     21 C2        22.8138    0.8279   18.5192 C.ar      1 RES1    0.0000
     22 C3        23.9829    0.0823   18.4299 C.ar      1 RES1    0.0000
     23 H6        24.0671   -0.5807   17.7839 H         1 RES1    0.0000
     24 C4        25.0175    0.3329   19.3075 C.ar      1 RES1    0.0000
     25 H7        25.7969   -0.1703   19.2505 H         1 RES1    0.0000
     26 C5        24.9117    1.3234   20.2720 C.ar      1 RES1    0.0000
     27 C6        23.7523    2.0590   20.3253 C.ar      1 RES1    0.0000
     28 H8        23.6736    2.7393   20.9555 H         1 RES1    0.0000
     29 C7        22.7018    1.8097   19.4650 C.ar      1 RES1    0.0000
     30 H9        21.9191    2.3086   19.5278 H         1 RES1    0.0000
     31 C8        26.0160    1.6501   21.2083 C.2       1 RES1    0.0000
     32 C9        28.3629   -0.1510   22.9945 C.2       1 RES1    0.0000
     33 H10       27.9448   -0.9760   22.9052 H         1 RES1    0.0000
     34 C10       29.5724   -0.0145   23.8134 C.ar      1 RES1    0.0000
     35 C11       29.8588   -0.7752   24.9497 C.ar      1 RES1    0.0000
     36 C12       31.0604   -0.6741   25.6154 C.ar      1 RES1    0.0000
     37 H11       31.2295   -1.2102   26.3563 H         1 RES1    0.0000
     38 C13       32.0103    0.2221   25.1821 C.ar      1 RES1    0.0000
     39 H12       32.8200    0.3010   25.6306 H         1 RES1    0.0000
     40 C14       31.7509    0.9939   24.0859 C.ar      1 RES1    0.0000
     41 H13       32.3855    1.6099   23.7978 H         1 RES1    0.0000
     42 C15       30.5622    0.8725   23.4005 C.ar      1 RES1    0.0000
     43 H14       30.4179    1.3951   22.6453 H         1 RES1    0.0000
     44 C16        0.4148    2.6111   -3.5052 C.3       2 RES2    0.0000
     45 H15        0.9073    1.7885   -3.4532 H         2 RES2    0.0000
     46 H16       -0.2787    2.5278   -4.1638 H         2 RES2    0.0000
     47 H17        0.0246    2.8037   -2.6495 H         2 RES2    0.0000
     48 C17        2.3275    3.9674   -3.0442 C.ar      2 RES2    0.0000
     49 C18        2.5677    3.3882   -1.8198 C.ar      2 RES2    0.0000
     50 H18        1.9922    2.7393   -1.4861 H         2 RES2    0.0000
     51 C19        3.6730    3.7792   -1.0919 C.ar      2 RES2    0.0000
     52 H19        3.8422    3.3737   -0.2730 H         2 RES2    0.0000
     53 C20        4.5336    4.7586   -1.5507 C.ar      2 RES2    0.0000
     54 C21        4.2529    5.3513   -2.7712 C.ar      2 RES2    0.0000
     55 H20        4.8041    6.0307   -3.0871 H         2 RES2    0.0000
     56 C22        3.1713    4.9497   -3.5228 C.ar      2 RES2    0.0000
     57 H21        3.0087    5.3397   -4.3523 H         2 RES2    0.0000
     58 C23        5.7179    5.2125   -0.7797 C.2       2 RES2    0.0000
     59 C24        7.9216    3.5759    1.3590 C.2       2 RES2    0.0000
     60 H22        7.5642    2.7224    1.2630 H         2 RES2    0.0000
     61 C25        9.1043    3.8029    2.2050 C.ar      2 RES2    0.0000
     62 C26        9.3817    3.0930    3.3670 C.ar      2 RES2    0.0000
     63 C27       10.5617    3.2687    4.0815 C.ar      2 RES2    0.0000
     64 H23       10.7314    2.7606    4.8419 H         2 RES2    0.0000
     65 C28       11.4720    4.2016    3.6495 C.ar      2 RES2    0.0000
     66 H24       12.2699    4.3255    4.1118 H         2 RES2    0.0000
     67 C29       11.2001    4.9483    2.5366 C.ar      2 RES2    0.0000
     68 H25       11.8026    5.6034    2.2660 H         2 RES2    0.0000
     69 C30       10.0441    4.7402    1.8105 C.ar      2 RES2    0.0000
     70 H26        9.8924    5.2400    1.0399 H         2 RES2    0.0000
@<TRIPOS>BOND
     1    1   31 2
     2    2   17 1
     3    3   12 2
     4    4   12 2
     5    5   58 2
     6    6   44 1
     7    7   16 2
     8    8   16 2
     9    9   10 1
    10   11    9 1
    11   12   35 1
    12   13   14 1
    13   15   13 1
    14   16   62 1
    15   17   18 1
    16   19   17 1
    17   20   17 1
    18   21    2 1
    19   22   21 ar
    20   23   22 1
    21   24   22 ar
    22   25   24 1
    23   26   24 ar
    24   27   26 ar
    25   28   27 1
    26   29   21 ar
    27   30   29 1
    28   31    9 1
    29   32   11 2
    30   33   32 1
    31   34   32 1
    32   35   34 ar
    33   36   35 ar
    34   37   36 1
    35   38   36 ar
    36   39   38 1
    37   40   38 ar
    38   41   40 1
    39   42   34 ar
    40   43   42 1
    41   44   45 1
    42   46   44 1
    43   47   44 1
    44   48    6 1
    45   49   48 ar
    46   50   49 1
    47   51   49 ar
    48   52   51 1
    49   53   51 ar
    50   54   53 ar
    51   55   54 1
    52   56   48 ar
    53   57   56 1
    54   58   13 1
    55   59   15 2
    56   60   59 1
    57   61   59 1
    58   62   61 ar
    59   63   62 ar
    60   64   63 1
    61   65   63 ar
    62   66   65 1
    63   67   65 ar
    64   68   67 1
    65   69   61 ar
    66   70   69 1
    67   26   31 1
    68   27   29 ar
    69   40   42 ar
    70   53   58 1
    71   54   56 ar
    72   67   69 ar
@<TRIPOS>SUBSTRUCTURE
     1 RES1 1
     2 RES2 5

@<TRIPOS>CRYSIN
  27.3272    4.8389   21.6639  90.0000  90.0000  90.0000  29 1

