# MOL2 file generated by ConQuest
# Please check atom types

@<TRIPOS>MOLECULE
PILVIP
    80    84     1
SMALL
NO_CHARGES
****
Generated from CSD

@<TRIPOS>ATOM
      1 C1        -1.7021    4.5309   10.8204 C.3       1 RES1    0.0000
      2 C2        -1.1704    5.8343    8.8969 C.2       1 RES1    0.0000
      3 C3        -1.5813    6.2166    7.5129 C.ar      1 RES1    0.0000
      4 C4        -2.7846    5.7225    6.9916 C.ar      1 RES1    0.0000
      5 C5        -3.2313    6.0944    5.7285 C.ar      1 RES1    0.0000
      6 C6        -2.4710    6.9630    4.9697 C.ar      1 RES1    0.0000
      7 C7        -1.2529    7.4519    5.4390 C.ar      1 RES1    0.0000
      8 C8        -0.7874    7.0826    6.7120 C.ar      1 RES1    0.0000
      9 C9         1.4257    8.2682    6.5912 C.2       1 RES1    0.0000
     10 C10        2.5902    8.6698    7.4553 C.ar      1 RES1    0.0000
     11 C11        2.9939    7.8587    8.5288 C.ar      1 RES1    0.0000
     12 C12        4.0998    8.1914    9.3029 C.ar      1 RES1    0.0000
     13 C13        4.8018    9.3542    9.0360 C.ar      1 RES1    0.0000
     14 C14        4.4189   10.1897    7.9948 C.ar      1 RES1    0.0000
     15 C15        3.3254    9.8474    7.1925 C.ar      1 RES1    0.0000
     16 C16        3.0715   12.0125    6.0235 C.2       1 RES1    0.0000
     17 C17        2.7587   12.6943    4.6971 C.ar      1 RES1    0.0000
     18 C18        2.7313   14.0824    4.6901 C.ar      1 RES1    0.0000
     19 C19        2.5434   14.7869    3.5127 C.ar      1 RES1    0.0000
     20 N1         2.5434   12.0151    3.5127 N.pl3     1 RES1    0.0000
     21 N2         2.9884   10.6558    6.0699 N.am      1 RES1    0.0000
     22 N3         0.4312    7.5838    7.2291 N.am      1 RES1    0.0000
     23 O1         2.5434   10.7004    3.5127 O.2       1 RES1    0.0000
     24 O2         3.3590   12.7275    6.9818 O.2       1 RES1    0.0000
     25 O3         1.4064    8.5301    5.3786 O.2       1 RES1    0.0000
     26 O4        -0.1734    6.2236    9.4645 O.2       1 RES1    0.0000
     27 O5        -2.0380    4.9962    9.4856 O.3       1 RES1    0.0000
     28 H1        -2.3717    3.9154   11.1267 H         1 RES1    0.0000
     29 H2        -0.8465    4.0952   10.8162 H         1 RES1    0.0000
     30 H3        -1.6714    5.2895   11.4077 H         1 RES1    0.0000
     31 H4        -3.3158    5.1236    7.5199 H         1 RES1    0.0000
     32 H5        -4.0661    5.7618    5.3884 H         1 RES1    0.0000
     33 H6        -2.7792    7.1988    4.0916 H         1 RES1    0.0000
     34 H7        -0.7355    8.0665    4.9135 H         1 RES1    0.0000
     35 H8         2.4947    7.0634    8.7283 H         1 RES1    0.0000
     36 H9         4.3751    7.6134   10.0181 H         1 RES1    0.0000
     37 H10        5.5603    9.5829    9.5783 H         1 RES1    0.0000
     38 H11        4.8981   11.0024    7.8220 H         1 RES1    0.0000
     39 H12        2.8266   14.5529    5.5205 H         1 RES1    0.0000
     40 H13        2.5434   15.7472    3.5127 H         1 RES1    0.0000
     41 H14        2.6003   10.2909    5.2985 H         1 RES1    0.0000
     42 H15        0.4834    7.3707    8.1339 H         1 RES1    0.0000
     43 C18A       2.3555   14.0824    2.3352 C.ar      1 RES1    0.0000
     44 C17A       2.3281   12.6943    2.3282 C.ar      1 RES1    0.0000
     45 H12A       2.2602   14.5529    1.5048 H         1 RES1    0.0000
     46 C16A       2.0153   12.0125    1.0018 C.2       1 RES1    0.0000
     47 N2A        2.0984   10.6558    0.9554 N.am      1 RES1    0.0000
     48 O2A        1.7278   12.7275    0.0436 O.2       1 RES1    0.0000
     49 C15A       1.7614    9.8474   -0.1672 C.ar      1 RES1    0.0000
     50 H14A       2.4865   10.2909    1.7268 H         1 RES1    0.0000
     51 C10A       2.4966    8.6698   -0.4300 C.ar      1 RES1    0.0000
     52 C14A       0.6679   10.1897   -0.9695 C.ar      1 RES1    0.0000
     53 C9A        3.6611    8.2682    0.4342 C.2       1 RES1    0.0000
     54 C11A       2.0930    7.8587   -1.5034 C.ar      1 RES1    0.0000
     55 C13A       0.2850    9.3542   -2.0106 C.ar      1 RES1    0.0000
     56 H11A       0.1887   11.0024   -0.7967 H         1 RES1    0.0000
     57 N3A        4.6556    7.5838   -0.2037 N.am      1 RES1    0.0000
     58 O3A        3.6804    8.5301    1.6467 O.2       1 RES1    0.0000
     59 C12A       0.9871    8.1914   -2.2776 C.ar      1 RES1    0.0000
     60 H8A        2.5922    7.0634   -1.7029 H         1 RES1    0.0000
     61 H10A      -0.4734    9.5829   -2.5530 H         1 RES1    0.0000
     62 C8A        5.8742    7.0826    0.3133 C.ar      1 RES1    0.0000
     63 H15A       4.6034    7.3707   -1.1086 H         1 RES1    0.0000
     64 H9A        0.7117    7.6134   -2.9928 H         1 RES1    0.0000
     65 C3A        6.6682    6.2166   -0.4876 C.ar      1 RES1    0.0000
     66 C7A        6.3398    7.4519    1.5863 C.ar      1 RES1    0.0000
     67 C2A        6.2573    5.8343   -1.8715 C.2       1 RES1    0.0000
     68 C4A        7.8715    5.7225    0.0337 C.ar      1 RES1    0.0000
     69 C6A        7.5579    6.9630    2.0556 C.ar      1 RES1    0.0000
     70 H7A        5.8223    8.0665    2.1118 H         1 RES1    0.0000
     71 O4A        5.2603    6.2236   -2.4392 O.2       1 RES1    0.0000
     72 O5A        7.1248    4.9962   -2.4603 O.3       1 RES1    0.0000
     73 C5A        8.3181    6.0944    1.2969 C.ar      1 RES1    0.0000
     74 H4A        8.4026    5.1236   -0.4946 H         1 RES1    0.0000
     75 H6A        7.8660    7.1988    2.9338 H         1 RES1    0.0000
     76 C1A        6.7889    4.5309   -3.7951 C.3       1 RES1    0.0000
     77 H5A        9.1529    5.7618    1.6369 H         1 RES1    0.0000
     78 H1A        7.4585    3.9154   -4.1014 H         1 RES1    0.0000
     79 H2A        5.9333    4.0952   -3.7909 H         1 RES1    0.0000
     80 H3A        6.7582    5.2895   -4.3824 H         1 RES1    0.0000
@<TRIPOS>BOND
     1    1   27 1
     2    2    3 1
     3    3    4 ar
     4    4    5 ar
     5    5    6 ar
     6    6    7 ar
     7    7    8 ar
     8    8    3 ar
     9    9   10 1
    10   10   11 ar
    11   11   12 ar
    12   12   13 ar
    13   13   14 ar
    14   14   15 ar
    15   15   10 ar
    16   16   17 1
    17   17   18 ar
    18   18   19 ar
    19   19   40 1
    20   20   17 ar
    21   21   15 1
    22   22    8 1
    23   23   20 1
    24   24   16 2
    25   25    9 2
    26   26    2 2
    27   27    2 1
    28   28    1 1
    29   29    1 1
    30   30    1 1
    31   31    4 1
    32   32    5 1
    33   33    6 1
    34   34    7 1
    35   35   11 1
    36   36   12 1
    37   37   13 1
    38   38   14 1
    39   39   18 1
    40   41   21 1
    41   42   22 1
    42   43   19 ar
    43   44   20 ar
    44   45   43 1
    45   46   44 1
    46   47   46 1
    47   48   46 2
    48   49   47 1
    49   50   47 1
    50   51   49 ar
    51   52   49 ar
    52   53   51 1
    53   54   51 ar
    54   55   52 ar
    55   56   52 1
    56   57   53 1
    57   58   53 2
    58   59   54 ar
    59   60   54 1
    60   61   55 1
    61   62   57 1
    62   63   57 1
    63   64   59 1
    64   65   62 ar
    65   66   62 ar
    66   67   65 1
    67   68   65 ar
    68   69   66 ar
    69   70   66 1
    70   71   67 2
    71   72   67 1
    72   73   68 ar
    73   74   68 1
    74   75   69 1
    75   76   72 1
    76   77   73 1
    77   78   76 1
    78   79   76 1
    79   80   76 1
    80    9   22 1
    81   16   21 1
    82   43   44 ar
    83   55   59 ar
    84   69   73 ar
@<TRIPOS>SUBSTRUCTURE
     1 RES1 1

