# MOL2 file generated by ConQuest
# Please check atom types

@<TRIPOS>MOLECULE
PILVEO
    39    40     1
SMALL
NO_CHARGES
****
Generated from CSD

@<TRIPOS>ATOM
      1 C1        32.0447    3.9827    4.1616 C.3       1 RES1    0.0000
      2 H1        31.7794    4.1994    3.2646 H         1 RES1    0.0000
      3 H2        32.5814    3.1875    4.1530 H         1 RES1    0.0000
      4 H3        32.5544    4.7089    4.5299 H         1 RES1    0.0000
      5 C2        30.8149    3.7506    5.0058 C.ar      1 RES1    0.0000
      6 C3        30.9307    3.2559    6.3165 C.ar      1 RES1    0.0000
      7 H4        31.7776    3.0901    6.6621 H         1 RES1    0.0000
      8 C4        29.8233    3.0082    7.1096 C.ar      1 RES1    0.0000
      9 H5        29.9326    2.6872    7.9747 H         1 RES1    0.0000
     10 C5        28.5360    3.2418    6.6079 C.ar      1 RES1    0.0000
     11 C6        28.3818    3.7054    5.2812 C.ar      1 RES1    0.0000
     12 C7        29.5340    3.9700    4.5164 C.ar      1 RES1    0.0000
     13 H6        29.4348    4.3038    3.6544 H         1 RES1    0.0000
     14 C8        27.0633    3.8346    4.6713 C.2       1 RES1    0.0000
     15 H7        26.9911    4.0752    3.7761 H         1 RES1    0.0000
     16 C9        24.7088    3.6095    4.7568 C.ar      1 RES1    0.0000
     17 C10       23.6513    4.1274    5.4994 C.ar      1 RES1    0.0000
     18 H8        23.8086    4.4873    6.3424 H         1 RES1    0.0000
     19 C11       22.3654    4.1098    4.9892 C.ar      1 RES1    0.0000
     20 H9        21.6713    4.4824    5.4841 H         1 RES1    0.0000
     21 C12       22.0886    3.5368    3.7331 C.ar      1 RES1    0.0000
     22 C13       23.1535    2.9955    3.0119 C.ar      1 RES1    0.0000
     23 H10       22.9892    2.6025    2.1850 H         1 RES1    0.0000
     24 C14       24.4567    3.0322    3.5050 C.ar      1 RES1    0.0000
     25 H11       25.1540    2.6759    3.0058 H         1 RES1    0.0000
     26 C15       20.6688    3.4916    3.2480 C.2       1 RES1    0.0000
     27 C16       20.3342    3.2594    1.7989 C.3       1 RES1    0.0000
     28 H12       19.7312    2.5164    1.7251 H         1 RES1    0.0000
     29 H13       21.1372    3.0668    1.3114 H         1 RES1    0.0000
     30 H14       19.9209    4.0455    1.4362 H         1 RES1    0.0000
     31 C17       17.5962    3.7901    4.7543 C.3       1 RES1    0.0000
     32 H15       17.6998    3.0414    5.3457 H         1 RES1    0.0000
     33 H16       16.6901    3.8289    4.4408 H         1 RES1    0.0000
     34 H17       17.8060    4.6002    5.2240 H         1 RES1    0.0000
     35 N1        25.9980    3.6186    5.3617 N.2       1 RES1    0.0000
     36 N2        19.8025    3.6821    4.1709 N.2       1 RES1    0.0000
     37 O1        27.4726    2.9962    7.4140 O.3       1 RES1    0.0000
     38 H18       26.7778    3.1472    7.0039 H         1 RES1    0.0000
     39 O2        18.4761    3.6426    3.6446 O.3       1 RES1    0.0000
@<TRIPOS>BOND
     1    1    2 1
     2    3    1 1
     3    4    1 1
     4    5    1 1
     5    6    5 ar
     6    7    6 1
     7    8    6 ar
     8    9    8 1
     9   10    8 ar
    10   11   10 ar
    11   12    5 ar
    12   13   12 1
    13   14   11 1
    14   15   14 1
    15   16   17 ar
    16   17   18 1
    17   19   17 ar
    18   20   19 1
    19   21   19 ar
    20   22   21 ar
    21   23   22 1
    22   24   16 ar
    23   25   24 1
    24   26   21 1
    25   27   26 1
    26   28   27 1
    27   29   27 1
    28   30   27 1
    29   31   32 1
    30   33   31 1
    31   34   31 1
    32   35   14 2
    33   36   26 2
    34   37   10 1
    35   38   37 1
    36   39   31 1
    37   11   12 ar
    38   16   35 1
    39   22   24 ar
    40   36   39 1
@<TRIPOS>SUBSTRUCTURE
     1 RES1 1

@<TRIPOS>CRYSIN
  33.5360    7.0566    6.1491  90.0000  91.0480  90.0000  14 1

