# MOL2 file generated by ConQuest
# Please check atom types

@<TRIPOS>MOLECULE
PILVIP10
    80    84     1
SMALL
NO_CHARGES
****
Generated from CSD

@<TRIPOS>ATOM
      1 C1        -1.7021    4.5300   10.8204 C.3       1 RES1    0.0000
      2 C2        -1.1704    5.8334    8.8969 C.2       1 RES1    0.0000
      3 C3        -1.5813    6.2166    7.5129 C.ar      1 RES1    0.0000
      4 C4        -2.7840    5.7243    6.9888 C.ar      1 RES1    0.0000
      5 C5        -3.2310    6.0953    5.7271 C.ar      1 RES1    0.0000
      6 C6        -2.4684    6.9630    4.9697 C.ar      1 RES1    0.0000
      7 C7        -1.2513    7.4528    5.4376 C.ar      1 RES1    0.0000
      8 C8        -0.7871    7.0835    6.7106 C.ar      1 RES1    0.0000
      9 C9         1.4257    8.2682    6.5912 C.2       1 RES1    0.0000
     10 C10        2.5902    8.6706    7.4553 C.ar      1 RES1    0.0000
     11 C11        2.9952    7.8579    8.5288 C.ar      1 RES1    0.0000
     12 C12        4.1014    8.1914    9.3015 C.ar      1 RES1    0.0000
     13 C13        4.8021    9.3559    9.0346 C.ar      1 RES1    0.0000
     14 C14        4.4163   10.1905    7.9948 C.ar      1 RES1    0.0000
     15 C15        3.3254    9.8474    7.1925 C.ar      1 RES1    0.0000
     16 C16        3.0728   12.0116    6.0235 C.2       1 RES1    0.0000
     17 C17        2.7590   12.6952    4.6957 C.ar      1 RES1    0.0000
     18 C18        2.7327   14.0824    4.6901 C.ar      1 RES1    0.0000
     19 C19        2.5434   14.7860    3.5127 C.ar      1 RES1    0.0000
     20 N1         2.5434   12.0151    3.5127 N.pl3     1 RES1    0.0000
     21 N2         2.9887   10.6567    6.0685 N.am      1 RES1    0.0000
     22 N3         0.4312    7.5829    7.2291 N.am      1 RES1    0.0000
     23 O1         2.5434   10.6995    3.5127 O.2       1 RES1    0.0000
     24 O2         3.3603   12.7275    6.9818 O.2       1 RES1    0.0000
     25 O3         1.4064    8.5301    5.3786 O.2       1 RES1    0.0000
     26 O4        -0.1734    6.2236    9.4645 O.2       1 RES1    0.0000
     27 O5        -2.0377    4.9962    9.4842 O.3       1 RES1    0.0000
     28 H1        -2.3717    3.9154   11.1267 H         1 RES1    0.0000
     29 H2        -0.8465    4.0952   10.8162 H         1 RES1    0.0000
     30 H3        -1.6714    5.2895   11.4077 H         1 RES1    0.0000
     31 H4        -3.3155    5.1245    7.5185 H         1 RES1    0.0000
     32 H5        -4.0644    5.7627    5.3870 H         1 RES1    0.0000
     33 H6        -2.7765    7.1979    4.0916 H         1 RES1    0.0000
     34 H7        -0.7339    8.0665    4.9121 H         1 RES1    0.0000
     35 H8         2.4963    7.0626    8.7269 H         1 RES1    0.0000
     36 H9         4.3767    7.6143   10.0167 H         1 RES1    0.0000
     37 H10        5.5603    9.5838    9.5783 H         1 RES1    0.0000
     38 H11        4.8971   11.0033    7.8206 H         1 RES1    0.0000
     39 H12        2.8266   14.5529    5.5205 H         1 RES1    0.0000
     40 H13        2.5434   15.7463    3.5127 H         1 RES1    0.0000
     41 H14        2.6182   10.2752    5.2943 H         1 RES1    0.0000
     42 H15        0.5001    7.3742    8.1353 H         1 RES1    0.0000
     43 C18A       2.3542   14.0824    2.3352 C.ar      1 RES1    0.0000
     44 C17A       2.3278   12.6952    2.3296 C.ar      1 RES1    0.0000
     45 C16A       2.0140   12.0116    1.0018 C.2       1 RES1    0.0000
     46 N2A        2.0981   10.6567    0.9569 N.am      1 RES1    0.0000
     47 C15A       1.7614    9.8474   -0.1672 C.ar      1 RES1    0.0000
     48 C10A       2.4966    8.6706   -0.4300 C.ar      1 RES1    0.0000
     49 C9A        3.6611    8.2682    0.4342 C.2       1 RES1    0.0000
     50 N3A        4.6556    7.5829   -0.2037 N.am      1 RES1    0.0000
     51 C8A        5.8739    7.0835    0.3147 C.ar      1 RES1    0.0000
     52 C3A        6.6682    6.2166   -0.4876 C.ar      1 RES1    0.0000
     53 C2A        6.2573    5.8334   -1.8715 C.2       1 RES1    0.0000
     54 O4A        5.2603    6.2236   -2.4392 O.2       1 RES1    0.0000
     55 O5A        7.1246    4.9962   -2.4589 O.3       1 RES1    0.0000
     56 C1A        6.7889    4.5300   -3.7951 C.3       1 RES1    0.0000
     57 H1A        7.4585    3.9154   -4.1014 H         1 RES1    0.0000
     58 H2A        5.9333    4.0952   -3.7909 H         1 RES1    0.0000
     59 H3A        6.7582    5.2895   -4.3824 H         1 RES1    0.0000
     60 C4A        7.8709    5.7243    0.0365 C.ar      1 RES1    0.0000
     61 C5A        8.3178    6.0953    1.2983 C.ar      1 RES1    0.0000
     62 C6A        7.5553    6.9630    2.0556 C.ar      1 RES1    0.0000
     63 C7A        6.3382    7.4528    1.5877 C.ar      1 RES1    0.0000
     64 H7A        5.8207    8.0665    2.1132 H         1 RES1    0.0000
     65 H6A        7.8634    7.1979    2.9338 H         1 RES1    0.0000
     66 H5A        9.1513    5.7627    1.6383 H         1 RES1    0.0000
     67 H4A        8.4023    5.1245   -0.4932 H         1 RES1    0.0000
     68 H15A       4.5867    7.3742   -1.1100 H         1 RES1    0.0000
     69 O3A        3.6804    8.5301    1.6467 O.2       1 RES1    0.0000
     70 C11A       2.0917    7.8579   -1.5034 C.ar      1 RES1    0.0000
     71 C12A       0.9855    8.1914   -2.2762 C.ar      1 RES1    0.0000
     72 C13A       0.2847    9.3559   -2.0092 C.ar      1 RES1    0.0000
     73 C14A       0.6705   10.1905   -0.9695 C.ar      1 RES1    0.0000
     74 H11A       0.1897   11.0033   -0.7953 H         1 RES1    0.0000
     75 H10A      -0.4734    9.5838   -2.5530 H         1 RES1    0.0000
     76 H9A        0.7101    7.6143   -2.9914 H         1 RES1    0.0000
     77 H8A        2.5906    7.0626   -1.7015 H         1 RES1    0.0000
     78 H14A       2.4686   10.2752    1.7310 H         1 RES1    0.0000
     79 O2A        1.7265   12.7275    0.0436 O.2       1 RES1    0.0000
     80 H12A       2.2602   14.5529    1.5048 H         1 RES1    0.0000
@<TRIPOS>BOND
     1    1   27 1
     2    2    3 1
     3    3    4 ar
     4    4    5 ar
     5    5    6 ar
     6    6    7 ar
     7    7    8 ar
     8    8    3 ar
     9    9   10 1
    10   10   11 ar
    11   11   12 ar
    12   12   13 ar
    13   13   14 ar
    14   14   15 ar
    15   15   10 ar
    16   16   17 1
    17   17   18 ar
    18   18   19 ar
    19   19   40 1
    20   20   17 ar
    21   21   15 1
    22   22    8 1
    23   23   20 1
    24   24   16 2
    25   25    9 2
    26   26    2 2
    27   27    2 1
    28   28    1 1
    29   29    1 1
    30   30    1 1
    31   31    4 1
    32   32    5 1
    33   33    6 1
    34   34    7 1
    35   35   11 1
    36   36   12 1
    37   37   13 1
    38   38   14 1
    39   39   18 1
    40   41   21 1
    41   42   22 1
    42   43   19 ar
    43   44   20 ar
    44   45   44 1
    45   46   45 1
    46   47   46 1
    47   48   47 ar
    48   49   48 1
    49   50   49 1
    50   51   50 1
    51   52   51 ar
    52   53   52 1
    53   54   53 2
    54   55   53 1
    55   56   55 1
    56   57   56 1
    57   58   56 1
    58   59   56 1
    59   60   52 ar
    60   61   60 ar
    61   62   61 ar
    62   63   51 ar
    63   64   63 1
    64   65   62 1
    65   66   61 1
    66   67   60 1
    67   68   50 1
    68   69   49 2
    69   70   48 ar
    70   71   70 ar
    71   72   71 ar
    72   73   47 ar
    73   74   73 1
    74   75   72 1
    75   76   71 1
    76   77   70 1
    77   78   46 1
    78   79   45 2
    79   80   43 1
    80    9   22 1
    81   16   21 1
    82   43   44 ar
    83   62   63 ar
    84   72   73 ar
@<TRIPOS>SUBSTRUCTURE
     1 RES1 1

