# MOL2 file generated by ConQuest
# Please check atom types

@<TRIPOS>MOLECULE
PILVOY
    44    46     1
SMALL
NO_CHARGES
****
Generated from CSD

@<TRIPOS>ATOM
      1 O1         9.3839    0.4256   12.6854 O.2       1 RES1    0.0000
      2 O2         4.5637   -2.7859   17.4238 O.2       1 RES1    0.0000
      3 O3         3.6506   -1.9164   15.6812 O.2       1 RES1    0.0000
      4 N1        11.6825    0.7848   11.2674 N.pl3     1 RES1    0.0000
      5 H1        10.8710    1.0573   11.3514 H         1 RES1    0.0000
      6 N2         9.6578   -0.2688   14.8422 N.am      1 RES1    0.0000
      7 H2        10.2362   -0.2873   15.4792 H         1 RES1    0.0000
      8 N3         4.6233   -2.1228   16.3926 N.pl3     1 RES1    0.0000
      9 C1        12.1732    0.7574    9.9482 C.ar      1 RES1    0.0000
     10 C2        11.6730    1.6602    9.0338 C.ar      1 RES1    0.0000
     11 H3        11.0318    2.2787    9.3012 H         1 RES1    0.0000
     12 C3        12.1162    1.6543    7.7190 C.ar      1 RES1    0.0000
     13 H4        11.7671    2.2624    7.1071 H         1 RES1    0.0000
     14 C4        13.0627    0.7566    7.3241 C.ar      1 RES1    0.0000
     15 H5        13.3783    0.7625    6.4488 H         1 RES1    0.0000
     16 C5        13.5413   -0.1485    8.2199 C.ar      1 RES1    0.0000
     17 H6        14.1825   -0.7655    7.9470 H         1 RES1    0.0000
     18 C6        13.0939   -0.1671    9.5179 C.ar      1 RES1    0.0000
     19 H7        13.4157   -0.8078   10.1104 H         1 RES1    0.0000
     20 C7        12.2981    0.4455   12.4290 C.2       1 RES1    0.0000
     21 C8        13.7860    0.3935   12.4783 C.ar      1 RES1    0.0000
     22 C9        14.5628    1.3291   11.8108 C.ar      1 RES1    0.0000
     23 H8        14.1524    2.0062   11.3240 H         1 RES1    0.0000
     24 C10       15.9391    1.2615   11.8664 C.ar      1 RES1    0.0000
     25 H9        16.4515    1.8830   11.4029 H         1 RES1    0.0000
     26 C11       16.5571    0.2814   12.6059 C.ar      1 RES1    0.0000
     27 H10       17.4855    0.2376   12.6405 H         1 RES1    0.0000
     28 C12       15.7975   -0.6334   13.2933 C.ar      1 RES1    0.0000
     29 H11       16.2117   -1.2890   13.8062 H         1 RES1    0.0000
     30 C13       14.4196   -0.5806   13.2209 C.ar      1 RES1    0.0000
     31 H12       13.9125   -1.2110   13.6793 H         1 RES1    0.0000
     32 C14       11.5828    0.2101   13.5576 C.2       1 RES1    0.0000
     33 H13       12.0543    0.0757   14.3479 H         1 RES1    0.0000
     34 C15       10.1410    0.1544   13.6166 C.2       1 RES1    0.0000
     35 C16        8.3715   -0.6675   15.1936 C.ar      1 RES1    0.0000
     36 C17        8.2367   -1.4026   16.3692 C.ar      1 RES1    0.0000
     37 H14        8.9883   -1.5786   16.8883 H         1 RES1    0.0000
     38 C18        7.0159   -1.8689   16.7697 C.ar      1 RES1    0.0000
     39 H15        6.9319   -2.3641   17.5534 H         1 RES1    0.0000
     40 C19        5.9127   -1.5919   15.9949 C.ar      1 RES1    0.0000
     41 C20        6.0090   -0.8442   14.8542 C.ar      1 RES1    0.0000
     42 H16        5.2459   -0.6512   14.3581 H         1 RES1    0.0000
     43 C21        7.2375   -0.3764   14.4404 C.ar      1 RES1    0.0000
     44 H17        7.3081    0.1292   13.6622 H         1 RES1    0.0000
@<TRIPOS>BOND
     1    1   34 2
     2    2    8 2
     3    3    8 2
     4    4    5 1
     5    6    7 1
     6    8   40 1
     7    9    4 1
     8   10    9 ar
     9   11   10 1
    10   12   10 ar
    11   13   12 1
    12   14   12 ar
    13   15   14 1
    14   16   14 ar
    15   17   16 1
    16   18    9 ar
    17   19   18 1
    18   20    4 1
    19   21   20 1
    20   22   21 ar
    21   23   22 1
    22   24   22 ar
    23   25   24 1
    24   26   24 ar
    25   27   26 1
    26   28   26 ar
    27   29   28 1
    28   30   21 ar
    29   31   30 1
    30   32   20 2
    31   33   32 1
    32   34    6 1
    33   35    6 1
    34   36   35 ar
    35   37   36 1
    36   38   36 ar
    37   39   38 1
    38   40   38 ar
    39   41   40 ar
    40   42   41 1
    41   43   35 ar
    42   44   43 1
    43   16   18 ar
    44   28   30 ar
    45   32   34 1
    46   41   43 ar
@<TRIPOS>SUBSTRUCTURE
     1 RES1 1

@<TRIPOS>CRYSIN
  14.3606    7.4250   34.2840  90.0000  90.0000  90.0000  61 1

