# MOL2 file generated by ConQuest
# Please check atom types

@<TRIPOS>MOLECULE
PILWUD
    33    34     1
SMALL
NO_CHARGES
****
Generated from CSD

@<TRIPOS>ATOM
      1 O1        -0.1642    0.9245    5.7733 O.3       1 RES1    0.0000
      2 N1         0.4878    0.2528    6.8584 N.3       1 RES1    0.0000
      3 N2        -2.3974    1.3169   11.5883 N.pl3     1 RES1    0.0000
      4 N3        -2.4464    2.5424   12.1577 N.2       1 RES1    0.0000
      5 N4        -3.5771    1.0494   13.4025 N.2       1 RES1    0.0000
      6 C1        -3.1604    2.3107   13.2392 C.2       1 RES1    0.0000
      7 C2        -3.0726    0.4558   12.3510 C.2       1 RES1    0.0000
      8 C3        -1.6737    1.0588   10.3823 C.ar      1 RES1    0.0000
      9 C4        -1.0472   -0.1584   10.2009 C.ar      1 RES1    0.0000
     10 C5        -0.3463   -0.4018    9.0415 C.ar      1 RES1    0.0000
     11 C6        -0.2390    0.5761    8.0499 C.ar      1 RES1    0.0000
     12 C7        -0.8910    1.7821    8.2385 C.ar      1 RES1    0.0000
     13 C8        -1.6027    2.0326    9.3967 C.ar      1 RES1    0.0000
     14 C9         1.9361    0.6611    6.8648 C.3       1 RES1    0.0000
     15 C10        2.5381    0.1654    5.5592 C.3       1 RES1    0.0000
     16 C11        2.1108    2.1693    6.9920 C.3       1 RES1    0.0000
     17 C12        2.6324   -0.0334    8.0196 C.3       1 RES1    0.0000
     18 H1         0.2300    0.7597    5.0738 H         1 RES1    0.0000
     19 H2        -3.3636    2.9829   13.8490 H         1 RES1    0.0000
     20 H3        -3.1710   -0.4482   12.1577 H         1 RES1    0.0000
     21 H4        -1.1011   -0.8130   10.8592 H         1 RES1    0.0000
     22 H5         0.0632   -1.2272    8.9152 H         1 RES1    0.0000
     23 H6        -0.8495    2.4321    7.5757 H         1 RES1    0.0000
     24 H7        -2.0295    2.8503    9.5159 H         1 RES1    0.0000
     25 H8         2.1016    0.5954    4.8192 H         1 RES1    0.0000
     26 H9         2.4178   -0.7849    5.4937 H         1 RES1    0.0000
     27 H10        3.4755    0.3713    5.5423 H         1 RES1    0.0000
     28 H11        1.7240    2.4679    7.8187 H         1 RES1    0.0000
     29 H12        1.6745    2.6075    6.2577 H         1 RES1    0.0000
     30 H13        3.0463    2.3834    6.9809 H         1 RES1    0.0000
     31 H14        2.2513    0.2710    8.8471 H         1 RES1    0.0000
     32 H15        3.5692    0.1719    8.0034 H         1 RES1    0.0000
     33 H16        2.5111   -0.9832    7.9432 H         1 RES1    0.0000
@<TRIPOS>BOND
     1    1    2 1
     2    2   11 1
     3    3    4 1
     4    4    6 2
     5    5    6 1
     6    6   19 1
     7    7    3 1
     8    8    3 1
     9    9    8 ar
    10   10    9 ar
    11   11   10 ar
    12   12   11 ar
    13   13    8 ar
    14   14    2 1
    15   15   14 1
    16   16   14 1
    17   17   14 1
    18   18    1 1
    19   20    7 1
    20   21    9 1
    21   22   10 1
    22   23   12 1
    23   24   13 1
    24   25   15 1
    25   26   15 1
    26   27   15 1
    27   28   16 1
    28   29   16 1
    29   30   16 1
    30   31   17 1
    31   32   17 1
    32   33   17 1
    33    5    7 2
    34   12   13 ar
@<TRIPOS>SUBSTRUCTURE
     1 RES1 1

@<TRIPOS>CRYSIN
  21.3111    5.8661   20.5135  90.0000 108.6184  90.0000  15 1

