# MOL2 file generated by ConQuest
# Please check atom types

@<TRIPOS>MOLECULE
PIMLIG
    19    21     1
SMALL
NO_CHARGES
****
Generated from CSD

@<TRIPOS>ATOM
      1 O1         7.4509    5.5070    3.4771 O.3       1 RES1    0.0000
      2 O2         8.6964    3.1519    4.5273 O.3       1 RES1    0.0000
      3 O3         5.3751    3.5996    0.5447 O.3       1 RES1    0.0000
      4 O4         3.9222    3.0162    2.1294 O.2       1 RES1    0.0000
      5 N1         6.5225    5.0081    2.5305 N.2       1 RES1    0.0000
      6 C1         7.2641    5.0293    4.8154 C.3       1 RES1    0.0000
      7 C2         6.0295    3.8552    2.7795 C.2       1 RES1    0.0000
      8 C3         6.4139    2.8839    3.8671 C.3       1 RES1    0.0000
      9 C4         7.3037    1.7945    3.3046 C.ar      1 RES1    0.0000
     10 C5         7.0545    0.6857    2.5075 C.ar      1 RES1    0.0000
     11 C6         8.1490   -0.0458    2.0852 C.ar      1 RES1    0.0000
     12 C7         9.4563    0.2803    2.4107 C.ar      1 RES1    0.0000
     13 C8         9.6887    1.3644    3.2477 C.ar      1 RES1    0.0000
     14 C9         8.6033    2.0731    3.6691 C.ar      1 RES1    0.0000
     15 C10        7.3508    3.5503    4.8723 C.3       1 RES1    0.0000
     16 C11        4.9856    3.4445    1.7819 C.2       1 RES1    0.0000
     17 C12        4.4177    3.2629   -0.4784 C.3       1 RES1    0.0000
     18 C13        5.6700    0.2486    2.1388 C.3       1 RES1    0.0000
     19 C14       10.5993   -0.5341    1.8813 C.3       1 RES1    0.0000
@<TRIPOS>BOND
     1    1    5 1
     2    2   14 1
     3    3   16 1
     4    4   16 2
     5    5    7 2
     6    6    1 1
     7    7    8 1
     8    8    9 1
     9    9   10 ar
    10   10   11 ar
    11   11   12 ar
    12   12   13 ar
    13   13   14 ar
    14   14    9 ar
    15   15    2 1
    16   16    7 1
    17   17    3 1
    18   18   10 1
    19   19   12 1
    20    6   15 1
    21    8   15 1
@<TRIPOS>SUBSTRUCTURE
     1 RES1 1

@<TRIPOS>CRYSIN
   8.6910   17.6280    9.3590  90.0000 114.7800  90.0000  14 1

