# MOL2 file generated by ConQuest
# Please check atom types

@<TRIPOS>MOLECULE
PIMMOP
    72    78     1
SMALL
NO_CHARGES
****
Generated from CSD

@<TRIPOS>ATOM
      1 C1         6.6238    7.3788    9.5420 C.3       1 RES1    0.0000
      2 H1         5.9171    6.9827   10.1275 H         1 RES1    0.0000
      3 C2         5.4512    7.5183    7.5826 C.3       1 RES1    0.0000
      4 H2         4.4925    7.3463    7.8091 H         1 RES1    0.0000
      5 C3         6.2470    6.1487    7.6423 C.3       1 RES1    0.0000
      6 C4         7.6585    8.0501   10.3722 C.3       1 RES1    0.0000
      7 H3         8.3649    8.5559    9.8773 H         1 RES1    0.0000
      8 C5         8.0785    7.4058   11.6490 C.3       1 RES1    0.0000
      9 H4         9.0255    7.4978   11.9220 H         1 RES1    0.0000
     10 H5         7.6592    6.5420   11.8894 H         1 RES1    0.0000
     11 C6         7.2219    8.6303   11.6864 C.3       1 RES1    0.0000
     12 H6         7.6392    9.4783   11.9782 H         1 RES1    0.0000
     13 H7         6.2713    8.5215   11.9456 H         1 RES1    0.0000
     14 C7         5.5166    8.2919    6.3038 C.3       1 RES1    0.0000
     15 H8         6.4253    8.4072    5.9021 H         1 RES1    0.0000
     16 C8         4.3615    8.1803    5.3293 C.3       1 RES1    0.0000
     17 H9         4.5696    8.2082    4.3613 H         1 RES1    0.0000
     18 H10        3.6038    7.5917    5.5758 H         1 RES1    0.0000
     19 C9         4.5579    9.4402    6.1233 C.3       1 RES1    0.0000
     20 H11        3.9192    9.6261    6.8574 H         1 RES1    0.0000
     21 H12        4.8834   10.2416    5.6429 H         1 RES1    0.0000
     22 C10        5.3597    4.9502    8.0092 C.ar      1 RES1    0.0000
     23 C11        4.0091    4.8823    7.7112 C.ar      1 RES1    0.0000
     24 H13        3.5892    5.6038    7.2580 H         1 RES1    0.0000
     25 C12        3.2591    3.7675    8.0701 C.ar      1 RES1    0.0000
     26 H14        2.3298    3.7443    7.8743 H         1 RES1    0.0000
     27 C13        3.8467    2.6992    8.7027 C.ar      1 RES1    0.0000
     28 H15        3.3276    1.9470    8.9619 H         1 RES1    0.0000
     29 C14        5.2008    2.7382    8.9547 C.ar      1 RES1    0.0000
     30 H16        5.6241    1.9944    9.3662 H         1 RES1    0.0000
     31 C15        5.9523    3.8521    8.6139 C.ar      1 RES1    0.0000
     32 H17        6.8833    3.8623    8.7970 H         1 RES1    0.0000
     33 C16        7.0461    5.8911    6.4048 C.2       1 RES1    0.0000
     34 C17        8.3444    6.1710    6.2810 C.2       1 RES1    0.0000
     35 H18        8.8253    6.4918    7.0350 H         1 RES1    0.0000
     36 C18        9.0341    5.9944    5.0193 C.2       1 RES1    0.0000
     37 C19        8.4340    5.8419    3.8302 C.2       1 RES1    0.0000
     38 C20        6.9104    5.8130    3.8915 C.3       1 RES1    0.0000
     39 H19        6.5693    6.7307    3.7432 H         1 RES1    0.0000
     40 H20        6.5732    5.2449    3.1541 H         1 RES1    0.0000
     41 C21        6.3512    5.2914    5.2035 C.3       1 RES1    0.0000
     42 H21        5.3850    5.4997    5.2495 H         1 RES1    0.0000
     43 H22        6.4508    4.3068    5.2296 H         1 RES1    0.0000
     44 C22       11.1448    5.2022    5.7317 C.2       1 RES1    0.0000
     45 C23       12.5811    5.4997    5.8347 C.ar      1 RES1    0.0000
     46 C24       13.4246    4.4741    6.2483 C.ar      1 RES1    0.0000
     47 H23       13.0558    3.6392    6.5112 H         1 RES1    0.0000
     48 C25       14.7876    4.6592    6.2791 C.ar      1 RES1    0.0000
     49 H24       15.3652    3.9525    6.5420 H         1 RES1    0.0000
     50 C26       15.3006    5.8837    5.9220 C.ar      1 RES1    0.0000
     51 C27       14.4946    6.9269    5.5432 C.ar      1 RES1    0.0000
     52 H25       14.8681    7.7721    5.3257 H         1 RES1    0.0000
     53 C28       13.1284    6.7280    5.4870 C.ar      1 RES1    0.0000
     54 H26       12.5607    7.4355    5.2097 H         1 RES1    0.0000
     55 C29        9.0570    5.8400    2.4943 C.ar      1 RES1    0.0000
     56 C30       10.3803    5.5053    2.2296 C.ar      1 RES1    0.0000
     57 H27       10.9430    5.2505    2.9511 H         1 RES1    0.0000
     58 C31       10.9050    5.5332    0.9535 C.ar      1 RES1    0.0000
     59 H28       11.8159    5.3026    0.8103 H         1 RES1    0.0000
     60 C32       10.1033    5.8967   -0.1233 C.ar      1 RES1    0.0000
     61 H29       10.4565    5.9070   -1.0060 H         1 RES1    0.0000
     62 C33        8.7883    6.2417    0.1106 C.ar      1 RES1    0.0000
     63 H30        8.2354    6.5030   -0.6163 H         1 RES1    0.0000
     64 C34        8.2701    6.2119    1.3885 C.ar      1 RES1    0.0000
     65 H31        7.3608    6.4481    1.5245 H         1 RES1    0.0000
     66 N1        16.7506    6.0604    5.8778 N.pl3     1 RES1    0.0000
     67 O1         7.1889    6.3811    8.7159 O.3       1 RES1    0.0000
     68 O2         6.0449    8.3123    8.6344 O.3       1 RES1    0.0000
     69 O3        10.4429    6.1850    5.1005 O.3       1 RES1    0.0000
     70 O4        10.6265    4.1757    6.1093 O.2       1 RES1    0.0000
     71 O5        17.2016    7.2022    5.8059 O.2       1 RES1    0.0000
     72 O6        17.4571    5.0543    5.8862 O.2       1 RES1    0.0000
@<TRIPOS>BOND
     1    1    2 1
     2    3    4 1
     3    5    3 1
     4    6    1 1
     5    7    6 1
     6    8    6 1
     7    9    8 1
     8   10    8 1
     9   11    6 1
    10   12   11 1
    11   13   11 1
    12   14    3 1
    13   15   14 1
    14   16   14 1
    15   17   16 1
    16   18   16 1
    17   19   14 1
    18   20   19 1
    19   21   19 1
    20   22    5 1
    21   23   22 ar
    22   24   23 1
    23   25   23 ar
    24   26   25 1
    25   27   25 ar
    26   28   27 1
    27   29   27 ar
    28   30   29 1
    29   31   22 ar
    30   32   31 1
    31   33    5 1
    32   34   33 2
    33   35   34 1
    34   36   34 1
    35   37   36 2
    36   38   37 1
    37   39   38 1
    38   40   38 1
    39   41   33 1
    40   42   41 1
    41   43   41 1
    42   44   45 1
    43   45   46 ar
    44   46   47 1
    45   48   46 ar
    46   49   48 1
    47   50   48 ar
    48   51   50 ar
    49   52   51 1
    50   53   45 ar
    51   54   53 1
    52   55   37 1
    53   56   55 ar
    54   57   56 1
    55   58   56 ar
    56   59   58 1
    57   60   58 ar
    58   61   60 1
    59   62   60 ar
    60   63   62 1
    61   64   55 ar
    62   65   64 1
    63   66   50 1
    64   67    1 1
    65   68    1 1
    66   69   36 1
    67   70   44 2
    68   71   66 2
    69   72   66 2
    70    3   68 1
    71    5   67 1
    72    8   11 1
    73   16   19 1
    74   29   31 ar
    75   38   41 1
    76   44   69 1
    77   51   53 ar
    78   62   64 ar
@<TRIPOS>SUBSTRUCTURE
     1 RES1 1

@<TRIPOS>CRYSIN
  16.3450    9.2979   18.1270  90.0000  90.2210  90.0000 231 1

