# MOL2 file generated by ConQuest
# Please check atom types

@<TRIPOS>MOLECULE
PIMVIT
    59    61     1
SMALL
NO_CHARGES
****
Generated from CSD

@<TRIPOS>ATOM
      1 O1        -0.3444    5.6491    2.1996 O.2       1 RES1    0.0000
      2 O2        -0.7717    7.8445    2.3933 O.3       1 RES1    0.0000
      3 O3        -0.6262    6.8726    6.8588 O.2       1 RES1    0.0000
      4 O4        -1.4590    6.3898    4.8467 O.3       1 RES1    0.0000
      5 O5         1.6264    5.7617   10.8658 O.2       1 RES1    0.0000
      6 O6         2.0896    3.6772   10.9284 O.2       1 RES1    0.0000
      7 N1         2.2064    7.2510    3.0542 N.pl3     1 RES1    0.0000
      8 N2         4.4405    7.9123    3.1584 N.pl3     1 RES1    0.0000
      9 H1         5.0763    7.4035    3.4413 H         1 RES1    0.0000
     10 H2         4.3248    7.7740    2.3158 H         1 RES1    0.0000
     11 N3         5.2285    8.2716    6.6184 N.1       1 RES1    0.0000
     12 N4         2.0042    4.7394   10.3346 N.pl3     1 RES1    0.0000
     13 C1         3.3069    7.6085    3.8364 C.2       1 RES1    0.0000
     14 C2         3.2057    7.6053    5.1984 C.2       1 RES1    0.0000
     15 C3         1.9847    7.1555    5.9712 C.3       1 RES1    0.0000
     16 H3         1.7305    7.8774    6.5828 H         1 RES1    0.0000
     17 C4         0.8327    6.9270    5.0145 C.2       1 RES1    0.0000
     18 C5         0.9880    6.9823    3.6724 C.2       1 RES1    0.0000
     19 C6         2.3027    5.9121    6.8130 C.ar      1 RES1    0.0000
     20 C7         2.9170    4.8103    6.2470 C.ar      1 RES1    0.0000
     21 H4         3.0982    4.8074    5.3351 H         1 RES1    0.0000
     22 C8         3.2686    3.7091    7.0143 C.ar      1 RES1    0.0000
     23 H5         3.6970    2.9843    6.6169 H         1 RES1    0.0000
     24 C9         2.9874    3.6851    8.3641 C.ar      1 RES1    0.0000
     25 H6         3.2153    2.9507    8.8891 H         1 RES1    0.0000
     26 C10        2.3616    4.7719    8.9083 C.ar      1 RES1    0.0000
     27 C11        2.0234    5.8997    8.1704 C.ar      1 RES1    0.0000
     28 H7         1.6182    6.6307    8.5787 H         1 RES1    0.0000
     29 C12        2.2281    7.4623    1.6147 C.ar      1 RES1    0.0000
     30 C13        2.0340    8.7408    1.1158 C.ar      1 RES1    0.0000
     31 H8         1.9764    9.4653    1.6951 H         1 RES1    0.0000
     32 C14        1.9278    8.9307   -0.2470 C.ar      1 RES1    0.0000
     33 H9         1.8082    9.7909   -0.5782 H         1 RES1    0.0000
     34 C15        1.9953    7.8779   -1.1239 C.ar      1 RES1    0.0000
     35 C16        2.2426    6.6063   -0.6124 C.ar      1 RES1    0.0000
     36 H10        2.3255    5.8863   -1.1946 H         1 RES1    0.0000
     37 C17        2.3700    6.3977    0.7653 C.ar      1 RES1    0.0000
     38 H11        2.5478    5.5488    1.0989 H         1 RES1    0.0000
     39 C18        4.3336    7.9773    5.9702 C.1       1 RES1    0.0000
     40 C19       -0.1328    6.7192    2.6804 C.2       1 RES1    0.0000
     41 C20       -1.8318    7.7397    1.4124 C.3       1 RES1    0.0000
     42 H12       -1.4668    7.4375    0.5782 H         1 RES1    0.0000
     43 H13       -2.2426    8.5986    1.2913 H         1 RES1    0.0000
     44 H14       -2.4898    7.1113    1.7196 H         1 RES1    0.0000
     45 C21       -0.4740    6.7350    5.6728 C.2       1 RES1    0.0000
     46 C22       -2.7791    6.2998    5.4021 C.3       1 RES1    0.0000
     47 H15       -3.4283    6.4693    4.7155 H         1 RES1    0.0000
     48 H16       -2.8772    6.9490    6.1025 H         1 RES1    0.0000
     49 H17       -2.9168    5.4198    5.7613 H         1 RES1    0.0000
     50 C23        1.7250    8.1049   -2.6065 C.3       1 RES1    0.0000
     51 H18        1.8127    9.0700   -2.7547 H         1 RES1    0.0000
     52 C24        0.2736    7.7622   -2.9067 C.3       1 RES1    0.0000
     53 H19        0.1166    6.8363   -2.7101 H         1 RES1    0.0000
     54 H20        0.0908    7.9286   -3.8345 H         1 RES1    0.0000
     55 H21       -0.3019    8.3069   -2.3647 H         1 RES1    0.0000
     56 C25        2.6882    7.4627   -3.5093 C.3       1 RES1    0.0000
     57 H22        3.5771    7.7475   -3.2840 H         1 RES1    0.0000
     58 H23        2.4929    7.7124   -4.4158 H         1 RES1    0.0000
     59 H24        2.6249    6.5091   -3.4190 H         1 RES1    0.0000
@<TRIPOS>BOND
     1    1   40 2
     2    2   40 1
     3    3   45 2
     4    4   45 1
     5    5   12 2
     6    6   12 2
     7    7   13 1
     8    8    9 1
     9   10    8 1
    10   11   39 3
    11   12   26 1
    12   13    8 1
    13   14   13 2
    14   15   14 1
    15   16   15 1
    16   17   15 1
    17   18    7 1
    18   19   15 1
    19   20   19 ar
    20   21   20 1
    21   22   20 ar
    22   23   22 1
    23   24   22 ar
    24   25   24 1
    25   26   24 ar
    26   27   19 ar
    27   28   27 1
    28   29    7 1
    29   30   29 ar
    30   31   30 1
    31   32   30 ar
    32   33   32 1
    33   34   32 ar
    34   35   34 ar
    35   36   35 1
    36   37   29 ar
    37   38   37 1
    38   39   14 1
    39   40   18 1
    40   41    2 1
    41   42   41 1
    42   43   41 1
    43   44   41 1
    44   45   17 1
    45   46    4 1
    46   47   46 1
    47   48   46 1
    48   49   46 1
    49   50   34 1
    50   51   50 1
    51   52   50 1
    52   53   52 1
    53   54   52 1
    54   55   52 1
    55   56   50 1
    56   57   56 1
    57   58   56 1
    58   59   56 1
    59   17   18 2
    60   26   27 ar
    61   35   37 ar
@<TRIPOS>SUBSTRUCTURE
     1 RES1 1

@<TRIPOS>CRYSIN
  10.5011   11.4498   12.0846 107.4310 106.7980 103.6160   2 1

