# MOL2 file generated by ConQuest
# Please check atom types

@<TRIPOS>MOLECULE
PINBEW
    44    46     1
SMALL
NO_CHARGES
****
Generated from CSD

@<TRIPOS>ATOM
      1 C1         4.2825    7.7688    3.6773 C.ar      1 RES1    0.0000
      2 C2         3.0859    8.2061    4.2393 C.ar      1 RES1    0.0000
      3 H1         2.4537    7.5822    4.5144 H         1 RES1    0.0000
      4 C3         2.8256    9.5571    4.3941 C.ar      1 RES1    0.0000
      5 H2         2.0220    9.8373    4.7701 H         1 RES1    0.0000
      6 C4         3.7602   10.4864    3.9882 C.ar      1 RES1    0.0000
      7 H3         3.5978   11.3938    4.1092 H         1 RES1    0.0000
      8 C5         4.9389   10.0641    3.3995 C.ar      1 RES1    0.0000
      9 H4         5.5624   10.6967    3.1223 H         1 RES1    0.0000
     10 C6         5.2108    8.7133    3.2148 C.ar      1 RES1    0.0000
     11 C7         6.4573    8.2730    2.4740 C.3       1 RES1    0.0000
     12 H5         7.2356    8.6886    2.8770 H         1 RES1    0.0000
     13 H6         6.4047    8.5672    1.5507 H         1 RES1    0.0000
     14 C8         6.6151    6.7491    2.5149 C.3       1 RES1    0.0000
     15 C9         5.2702    6.0807    2.1611 C.3       1 RES1    0.0000
     16 H7         4.8085    6.6093    1.4774 H         1 RES1    0.0000
     17 C10        4.5950    6.2950    3.5200 C.3       1 RES1    0.0000
     18 H8         3.7749    5.7615    3.5843 H         1 RES1    0.0000
     19 O1         6.8855    6.3681    3.8684 O.3       1 RES1    0.0000
     20 C11        5.3512    4.6315    1.7168 C.3       1 RES1    0.0000
     21 H9         5.7907    4.1132    2.3940 H         1 RES1    0.0000
     22 H10        5.8491    4.5757    0.8972 H         1 RES1    0.0000
     23 H11        4.4655    4.2891    1.5761 H         1 RES1    0.0000
     24 C12        7.7564    6.2367    1.6540 C.2       1 RES1    0.0000
     25 C13        8.6184    6.1760   -0.5364 C.3       1 RES1    0.0000
     26 H12        9.4971    6.2762   -0.1615 H         1 RES1    0.0000
     27 H13        8.5629    6.6682   -1.3593 H         1 RES1    0.0000
     28 H14        8.4475    5.2466   -0.7073 H         1 RES1    0.0000
     29 C14        5.6435    5.9562    5.8679 C.3       1 RES1    0.0000
     30 C15        6.8322    5.1549    6.4101 C.3       1 RES1    0.0000
     31 H15        6.7493    4.2372    6.1414 H         1 RES1    0.0000
     32 H16        6.8431    5.2072    7.3690 H         1 RES1    0.0000
     33 H17        7.6491    5.5181    6.0606 H         1 RES1    0.0000
     34 C16        4.3425    5.3396    6.3628 C.3       1 RES1    0.0000
     35 H18        3.6004    5.8561    6.0412 H         1 RES1    0.0000
     36 H19        4.3355    5.3338    7.3227 H         1 RES1    0.0000
     37 H20        4.2708    4.4394    6.0367 H         1 RES1    0.0000
     38 C17        5.7847    7.4048    6.3322 C.3       1 RES1    0.0000
     39 H21        6.5433    7.8058    5.9021 H         1 RES1    0.0000
     40 H22        5.9081    7.4252    7.2838 H         1 RES1    0.0000
     41 H23        4.9912    7.8934    6.1025 H         1 RES1    0.0000
     42 N1         5.6504    5.7296    4.3921 N.3       1 RES1    0.0000
     43 O2         8.6248    5.5008    2.0075 O.2       1 RES1    0.0000
     44 O3         7.6355    6.6833    0.3972 O.3       1 RES1    0.0000
@<TRIPOS>BOND
     1    1    2 ar
     2    2    3 1
     3    4    2 ar
     4    5    4 1
     5    6    4 ar
     6    7    6 1
     7    8    6 ar
     8    9    8 1
     9   10    1 ar
    10   11   10 1
    11   12   11 1
    12   13   11 1
    13   14   11 1
    14   15   14 1
    15   16   15 1
    16   17    1 1
    17   18   17 1
    18   19   14 1
    19   20   15 1
    20   21   20 1
    21   22   20 1
    22   23   20 1
    23   24   14 1
    24   25   26 1
    25   27   25 1
    26   28   25 1
    27   29   30 1
    28   30   31 1
    29   32   30 1
    30   33   30 1
    31   34   29 1
    32   35   34 1
    33   36   34 1
    34   37   34 1
    35   38   29 1
    36   39   38 1
    37   40   38 1
    38   41   38 1
    39   42   17 1
    40   43   24 2
    41   44   24 1
    42    8   10 ar
    43   15   17 1
    44   19   42 1
    45   25   44 1
    46   29   42 1
@<TRIPOS>SUBSTRUCTURE
     1 RES1 1

@<TRIPOS>CRYSIN
   6.8061    8.1772   15.3194  88.1100  77.5770  73.1990   2 1

