# MOL2 file generated by ConQuest
# Please check atom types

@<TRIPOS>MOLECULE
PINCVN
    41    43     1
SMALL
NO_CHARGES
****
Generated from CSD

@<TRIPOS>ATOM
      1 C1         4.6911   -3.1948   -2.8582 C.3       1 RES1    0.0000
      2 C2         5.1884   -5.0328   -1.2573 C.2       1 RES1    0.0000
      3 C3         2.6228   -4.9047    1.0119 C.2       1 RES1    0.0000
      4 C4         2.0333   -6.1779    1.5413 C.ar      1 RES1    0.0000
      5 C5         1.9112   -6.3161    2.9156 C.ar      1 RES1    0.0000
      6 C6         1.3766   -7.4713    3.4628 C.ar      1 RES1    0.0000
      7 C7         0.9623   -8.4695    2.5971 C.ar      1 RES1    0.0000
      8 C8         1.0495   -8.3529    1.2228 C.ar      1 RES1    0.0000
      9 C9         1.5968   -7.1950    0.6840 C.ar      1 RES1    0.0000
     10 C10        4.4159   -4.0615   -1.6614 C.2       1 RES1    0.0000
     11 C11        3.1003   -3.6868   -0.9931 C.3       1 RES1    0.0000
     12 C12        2.0373   -3.1328   -1.9852 C.3       1 RES1    0.0000
     13 C13        2.7166   -2.4338   -3.1610 C.3       1 RES1    0.0000
     14 C14        3.5771   -3.4671   -3.9588 C.3       1 RES1    0.0000
     15 C15        4.0442   -1.7942   -2.6890 C.3       1 RES1    0.0000
     16 C16        3.0408   -4.8791   -4.1196 C.3       1 RES1    0.0000
     17 C17        3.9828   -2.9292   -5.3237 C.3       1 RES1    0.0000
     18 H1         5.4878   -3.2419   -3.3625 H         1 RES1    0.0000
     19 H2         3.7828   -5.4527   -4.5321 H         1 RES1    0.0000
     20 H3         3.3798   -3.3902   -5.7435 H         1 RES1    0.0000
     21 H4         4.5528   -3.6329   -5.5346 H         1 RES1    0.0000
     22 H5         4.5824   -2.1635   -5.2735 H         1 RES1    0.0000
     23 H6         4.9576   -5.6481   -0.5952 H         1 RES1    0.0000
     24 H7         5.8349   -5.4122   -1.7753 H         1 RES1    0.0000
     25 H8         2.1948   -5.5875    3.4461 H         1 RES1    0.0000
     26 H9         1.2143   -7.3601    4.3024 H         1 RES1    0.0000
     27 H10        0.7980   -9.2203    0.7832 H         1 RES1    0.0000
     28 H11        1.8643   -7.1848   -0.2089 H         1 RES1    0.0000
     29 H12        3.3467   -3.0667   -0.3133 H         1 RES1    0.0000
     30 H13        1.4471   -3.8688   -2.2869 H         1 RES1    0.0000
     31 H14        1.5989   -2.5073   -1.4202 H         1 RES1    0.0000
     32 H15        2.1451   -1.7524   -3.5505 H         1 RES1    0.0000
     33 H16        4.3034   -1.2065   -3.4670 H         1 RES1    0.0000
     34 H17        3.8670   -1.3817   -1.8379 H         1 RES1    0.0000
     35 H18        2.1539   -4.8798   -4.6470 H         1 RES1    0.0000
     36 H19        2.8622   -5.0820   -3.2268 H         1 RES1    0.0000
     37 N1         0.3557   -9.6962    3.1558 N.pl3     1 RES1    0.0000
     38 O1         2.5340   -4.8413   -0.3227 O.3       1 RES1    0.0000
     39 O2         3.1198   -4.0716    1.7178 O.2       1 RES1    0.0000
     40 O3         0.3617   -9.8262    4.3744 O.2       1 RES1    0.0000
     41 O4        -0.1006  -10.5137    2.3757 O.2       1 RES1    0.0000
@<TRIPOS>BOND
     1    1   10 1
     2    2   10 2
     3    3    4 1
     4    4    5 ar
     5    5    6 ar
     6    6    7 ar
     7    7    8 ar
     8    8    9 ar
     9    9    4 ar
    10   10   11 1
    11   11   12 1
    12   12   13 1
    13   13   14 1
    14   14    1 1
    15   15    1 1
    16   16   14 1
    17   17   14 1
    18   18    1 1
    19   19   16 1
    20   20   17 1
    21   21   17 1
    22   22   17 1
    23   23    2 1
    24   24    2 1
    25   25    5 1
    26   26    6 1
    27   27    8 1
    28   28    9 1
    29   29   11 1
    30   30   12 1
    31   31   12 1
    32   32   13 1
    33   33   15 1
    34   34   15 1
    35   35   16 1
    36   36   16 1
    37   37    7 1
    38   38    3 1
    39   39    3 2
    40   40   37 2
    41   41   37 2
    42   11   38 1
    43   13   15 1
@<TRIPOS>SUBSTRUCTURE
     1 RES1 1

@<TRIPOS>CRYSIN
  10.5830    6.7400   10.4430  90.0000  90.4600  90.0000   4 1

