# MOL2 file generated by ConQuest
# Please check atom types

@<TRIPOS>MOLECULE
PINJUS
    41    43     1
SMALL
NO_CHARGES
****
Generated from CSD

@<TRIPOS>ATOM
      1 N1         5.2191    6.3084    6.3031 N.pl3     1 RES1    0.0000
      2 H1         5.7048    6.2461    5.5716 H         1 RES1    0.0000
      3 N2         5.4074    7.3540    7.1882 N.2       1 RES1    0.0000
      4 N3         6.5842    9.2355    7.7373 N.pl3     1 RES1    0.0000
      5 N4         7.1589    8.0396    5.7529 N.2       1 RES1    0.0000
      6 N5         5.7244    9.4649    8.8451 N.3       1 RES1    0.0000
      7 H2         4.9279    9.3254    8.4878 H         1 RES1    0.0000
      8 N6         1.2475    2.5806    7.3631 N.pl3     1 RES1    0.0000
      9 O1         0.9153    1.7903    6.4621 O.2       1 RES1    0.0000
     10 O2         0.6758    2.5855    8.4688 O.2       1 RES1    0.0000
     11 C1         4.2775    5.3864    6.5829 C.ar      1 RES1    0.0000
     12 C2         4.0238    4.3311    5.6745 C.ar      1 RES1    0.0000
     13 H3         4.5437    4.2543    4.8826 H         1 RES1    0.0000
     14 C3         3.0423    3.4283    5.9289 C.ar      1 RES1    0.0000
     15 H4         2.8563    2.7412    5.2992 H         1 RES1    0.0000
     16 C4         2.3031    3.5070    7.1151 C.ar      1 RES1    0.0000
     17 C5         2.5600    4.5158    8.0331 C.ar      1 RES1    0.0000
     18 H5         2.0618    4.5600    8.8408 H         1 RES1    0.0000
     19 C6         3.5285    5.4466    7.7765 C.ar      1 RES1    0.0000
     20 H6         3.6973    6.1378    8.4062 H         1 RES1    0.0000
     21 C7         6.3739    8.1565    6.8702 C.2       1 RES1    0.0000
     22 C8         7.5844   10.1063    7.5084 C.2       1 RES1    0.0000
     23 H7         7.7294   10.8243    8.1136 H         1 RES1    0.0000
     24 C9         8.3824    9.9723    6.4335 C.2       1 RES1    0.0000
     25 H8         9.1013   10.5745    6.2829 H         1 RES1    0.0000
     26 C10        8.1226    8.9058    5.5261 C.2       1 RES1    0.0000
     27 C11        6.0099    8.5491    9.9444 C.3       1 RES1    0.0000
     28 H9         5.3081    8.6254   10.6239 H         1 RES1    0.0000
     29 H10        6.8762    8.7764   10.3419 H         1 RES1    0.0000
     30 H11        6.0380    7.6306    9.6051 H         1 RES1    0.0000
     31 C12        8.8949    8.7380    4.2794 C.ar      1 RES1    0.0000
     32 C13        9.9215    9.6052    3.9158 C.ar      1 RES1    0.0000
     33 H12       10.1645   10.3142    4.4989 H         1 RES1    0.0000
     34 C14       10.5872    9.4481    2.7265 C.ar      1 RES1    0.0000
     35 H13       11.2770   10.0554    2.4901 H         1 RES1    0.0000
     36 C15       10.2665    8.4189    1.8731 C.ar      1 RES1    0.0000
     37 H14       10.7355    8.3112    1.0537 H         1 RES1    0.0000
     38 C16        9.2590    7.5498    2.2176 C.ar      1 RES1    0.0000
     39 H15        9.0294    6.8378    1.6314 H         1 RES1    0.0000
     40 C17        8.5803    7.7012    3.4049 C.ar      1 RES1    0.0000
     41 H16        7.8884    7.0906    3.6317 H         1 RES1    0.0000
@<TRIPOS>BOND
     1    1    2 1
     2    3    1 1
     3    4    6 1
     4    5   21 1
     5    6    7 1
     6    8    9 2
     7   10    8 2
     8   11    1 1
     9   12   11 ar
    10   13   12 1
    11   14   12 ar
    12   15   14 1
    13   16    8 1
    14   17   16 ar
    15   18   17 1
    16   19   11 ar
    17   20   19 1
    18   21    3 2
    19   22    4 1
    20   23   22 1
    21   24   22 2
    22   25   24 1
    23   26    5 2
    24   27    6 1
    25   28   27 1
    26   29   27 1
    27   30   27 1
    28   31   26 1
    29   32   31 ar
    30   33   32 1
    31   34   32 ar
    32   35   34 1
    33   36   34 ar
    34   37   36 1
    35   38   36 ar
    36   39   38 1
    37   40   31 ar
    38   41   40 1
    39    4   21 1
    40   14   16 ar
    41   17   19 ar
    42   24   26 1
    43   38   40 ar
@<TRIPOS>SUBSTRUCTURE
     1 RES1 1

@<TRIPOS>CRYSIN
  10.1020   14.9590   10.6510  90.0000  95.5800  90.0000 231 1

