# MOL2 file generated by ConQuest
# Please check atom types

@<TRIPOS>MOLECULE
PINJUR
    27    31     1
SMALL
NO_CHARGES
****
Generated from CSD

@<TRIPOS>ATOM
      1 C1         7.0735   -0.3126    8.3394 C.2       1 RES1    0.0000
      2 C2         7.4750   -0.3634    9.7316 C.2       1 RES1    0.0000
      3 N1         8.4490    0.5044    9.9225 N.pl3     1 RES1    0.0000
      4 N2         9.0254    0.9674    8.6245 N.3       1 RES1    0.0000
      5 C3         7.9089    0.7777    7.6725 C.3       1 RES1    0.0000
      6 O1         6.2159   -0.9388    7.7815 O.2       1 RES1    0.0000
      7 C4         6.9281   -1.1147   10.8758 C.2       1 RES1    0.0000
      8 O2         7.4270   -1.1475   11.9482 O.2       1 RES1    0.0000
      9 O3         5.8345   -1.7505   10.5213 O.3       1 RES1    0.0000
     10 C5         5.2021   -2.5430   11.5713 C.3       1 RES1    0.0000
     11 O4         9.0135    0.8911   10.9254 O.2       1 RES1    0.0000
     12 O5         9.3203    2.3195    8.7039 O.3       1 RES1    0.0000
     13 C6         8.5732    0.3115    6.3745 C.2       1 RES1    0.0000
     14 O6         8.6737   -0.8138    6.0336 O.2       1 RES1    0.0000
     15 O7         9.0661    1.3552    5.7447 O.3       1 RES1    0.0000
     16 C7         9.7836    1.1094    4.5088 C.3       1 RES1    0.0000
     17 C8         8.1937    3.1110    8.2489 C.3       1 RES1    0.0000
     18 C9         7.3607    3.6599    9.4155 C.3       1 RES1    0.0000
     19 C10        6.3425    4.5754    8.8080 C.ar      1 RES1    0.0000
     20 C11        6.2014    5.9391    8.7435 C.ar      1 RES1    0.0000
     21 C12        5.0903    6.4318    8.0791 C.ar      1 RES1    0.0000
     22 C13        4.1962    5.5926    7.4543 C.ar      1 RES1    0.0000
     23 C14        4.3818    4.2109    7.4766 C.ar      1 RES1    0.0000
     24 C15        5.4420    3.7287    8.1857 C.ar      1 RES1    0.0000
     25 C16        5.9535    2.3385    8.4671 C.3       1 RES1    0.0000
     26 C17        7.2015    2.1467    7.5720 C.3       1 RES1    0.0000
     27 O8         6.5652    2.5113    9.7651 O.3       1 RES1    0.0000
@<TRIPOS>BOND
     1    1    2 1
     2    2    3 2
     3    3    4 1
     4    4    5 1
     5    5    1 1
     6    6    1 2
     7    7    2 1
     8    8    7 2
     9    9    7 1
    10   10    9 1
    11   11    3 1
    12   12    4 1
    13   13    5 1
    14   14   13 2
    15   15   13 1
    16   16   15 1
    17   17   12 1
    18   18   17 1
    19   19   18 1
    20   20   19 ar
    21   21   20 ar
    22   22   21 ar
    23   23   22 ar
    24   24   19 ar
    25   25   24 1
    26   26    5 1
    27   27   18 1
    28   17   26 1
    29   23   24 ar
    30   25   26 1
    31   25   27 1
@<TRIPOS>SUBSTRUCTURE
     1 RES1 1

@<TRIPOS>CRYSIN
  12.7470   10.5960   12.4010  90.0000  91.4700  90.0000 231 1

