# MOL2 file generated by ConQuest
# Please check atom types

@<TRIPOS>MOLECULE
PINTOV
   120   128     2
SMALL
NO_CHARGES
****
Generated from CSD

@<TRIPOS>ATOM
      1 O1        31.7098    3.1190   34.1546 O.2       1 RES1    0.0000
      2 O2        30.1587    2.6764   32.6845 O.2       1 RES1    0.0000
      3 O3        35.2166    2.5226   29.0434 O.3       1 RES1    0.0000
      4 O4        31.1610    7.7679   26.7869 O.2       1 RES1    0.0000
      5 O5        30.5110    6.6952   28.5135 O.2       1 RES1    0.0000
      6 O6        34.1910    2.3750   25.8873 O.3       1 RES1    0.0000
      7 O7        35.6545    9.8226   23.5668 O.2       1 RES1    0.0000
      8 O8        37.5597   10.2567   24.4792 O.2       1 RES1    0.0000
      9 O9        36.7054    4.3307   26.2848 O.3       1 RES1    0.0000
     10 O10       33.5488    8.2631   30.8041 O.2       1 RES1    0.0000
     11 O11       34.0840    8.9206   28.8703 O.2       1 RES1    0.0000
     12 O12       38.1572    4.2675   29.6652 O.3       1 RES1    0.0000
     13 N1        31.3225    2.8661   32.9965 N.pl3     1 RES1    0.0000
     14 N2        31.1999    6.8069   27.5220 N.pl3     1 RES1    0.0000
     15 N3        36.6295    9.5149   24.2377 N.pl3     1 RES1    0.0000
     16 N4        34.1813    8.1704   29.7720 N.pl3     1 RES1    0.0000
     17 C1        32.3539    2.8366   31.9516 C.ar      1 RES1    0.0000
     18 C2        33.6422    3.2770   32.2700 C.ar      1 RES1    0.0000
     19 C3        34.5997    3.1969   31.2678 C.ar      1 RES1    0.0000
     20 C4        34.2591    2.6532   30.0199 C.ar      1 RES1    0.0000
     21 C5        32.9514    2.3708   29.6930 C.ar      1 RES1    0.0000
     22 C6        31.9589    2.4572   30.7122 C.ar      1 RES1    0.0000
     23 C7        36.0067    1.4267   28.8254 C.3       1 RES1    0.0000
     24 C8        36.9954    0.0843   30.5562 C.3       1 RES1    0.0000
     25 C9        35.9834    0.3540   29.8297 C.3       1 RES1    0.0000
     26 C10       36.1585   -0.8219   28.8041 C.3       1 RES1    0.0000
     27 C11       32.5563    2.0653   28.2464 C.3       1 RES1    0.0000
     28 C12       32.0756    5.6794   27.1844 C.ar      1 RES1    0.0000
     29 C13       31.9491    4.5162   27.8746 C.ar      1 RES1    0.0000
     30 C14       32.7081    3.3803   27.4472 C.ar      1 RES1    0.0000
     31 C15       33.5099    3.5025   26.3339 C.ar      1 RES1    0.0000
     32 C16       33.6909    4.7332   25.6715 C.ar      1 RES1    0.0000
     33 C17       32.9533    5.8459   26.0882 C.ar      1 RES1    0.0000
     34 C18       33.4749    1.7091   24.8147 C.3       1 RES1    0.0000
     35 C19       34.3156    0.6975   24.1629 C.3       1 RES1    0.0000
     36 C20       34.6600   -0.4531   25.1437 C.3       1 RES1    0.0000
     37 C21       33.5138    0.2107   22.9236 C.3       1 RES1    0.0000
     38 C22       34.7029    4.9187   24.5155 C.3       1 RES1    0.0000
     39 C23       36.6314    8.1346   24.7783 C.ar      1 RES1    0.0000
     40 C24       37.5850    7.8669   25.8104 C.ar      1 RES1    0.0000
     41 C25       37.6103    6.5962   26.3489 C.ar      1 RES1    0.0000
     42 C26       35.7304    5.9534   24.8638 C.ar      1 RES1    0.0000
     43 C27       36.7424    5.6057   25.8425 C.ar      1 RES1    0.0000
     44 C28       35.6798    7.2263   24.3595 C.ar      1 RES1    0.0000
     45 C29       37.9742    3.5805   26.3446 C.3       1 RES1    0.0000
     46 C30       37.8186    2.3139   25.4792 C.3       1 RES1    0.0000
     47 C31       38.9765    1.3782   25.8681 C.3       1 RES1    0.0000
     48 C32       37.8692    2.6574   23.9706 C.3       1 RES1    0.0000
     49 C33       38.3051    6.3686   27.6780 C.3       1 RES1    0.0000
     50 C34       35.1933    7.1019   29.7378 C.ar      1 RES1    0.0000
     51 C35       36.2208    7.2642   28.8041 C.ar      1 RES1    0.0000
     52 C36       37.2308    6.2801   28.7699 C.ar      1 RES1    0.0000
     53 C37       37.1705    5.2158   29.6823 C.ar      1 RES1    0.0000
     54 C38       36.0826    5.0557   30.5733 C.ar      1 RES1    0.0000
     55 C39       35.0940    6.0398   30.6353 C.ar      1 RES1    0.0000
     56 C40       39.2587    4.6384   30.5498 C.3       1 RES1    0.0000
     57 C41       40.2531    3.5194   30.5498 C.3       1 RES1    0.0000
     58 C42       41.3313    3.8860   31.5691 C.3       1 RES1    0.0000
     59 C43       40.8817    3.3866   29.1588 C.3       1 RES1    0.0000
     60 C44       35.9776    3.8249   31.4708 C.3       1 RES1    0.0000
     61 O13       29.7461   -2.9630   22.5902 O.2       2 RES2    0.0000
     62 O14       31.0773   -2.4172   24.1907 O.2       2 RES2    0.0000
     63 O15       26.6304    1.8187   25.1074 O.3       2 RES2    0.0000
     64 O16       31.6319    3.6901   22.8638 O.2       2 RES2    0.0000
     65 O17       31.4957    5.7975   23.1992 O.2       2 RES2    0.0000
     66 O18       27.5237    3.8418   27.5925 O.3       2 RES2    0.0000
     67 O19       27.1773   10.1282   21.5945 O.2       2 RES2    0.0000
     68 O20       28.2418   10.5391   23.4706 O.2       2 RES2    0.0000
     69 O21       25.4803    5.1716   25.0027 O.3       2 RES2    0.0000
     70 O22       29.9875    3.1927   20.0710 O.2       2 RES2    0.0000
     71 O23       29.6702    5.2643   20.5346 O.2       2 RES2    0.0000
     72 O24       24.2776    2.8092   22.5625 O.3       2 RES2    0.0000
     73 N5        30.0731   -2.2402   23.5369 N.pl3     2 RES2    0.0000
     74 N6        31.1629    4.6574   23.4364 N.pl3     2 RES2    0.0000
     75 N7        27.5179    9.8395   22.7356 N.pl3     2 RES2    0.0000
     76 N8        29.3063    4.0778   20.5475 N.pl3     2 RES2    0.0000
     77 C45       29.2071   -1.1043   23.9022 C.ar      2 RES2    0.0000
     78 C46       28.1387   -0.8219   23.0582 C.ar      2 RES2    0.0000
     79 C47       27.2512    0.2086   23.4364 C.ar      2 RES2    0.0000
     80 C48       27.4536    0.8366   24.6544 C.ar      2 RES2    0.0000
     81 C49       28.6369    0.6111   25.4236 C.ar      2 RES2    0.0000
     82 C50       29.4893   -0.3962   25.0433 C.ar      2 RES2    0.0000
     83 C51       25.2390    1.4562   25.3510 C.3       2 RES2    0.0000
     84 C52       24.9607    1.2687   26.8446 C.3       2 RES2    0.0000
     85 C53       25.5484    0.0063   27.4045 C.3       2 RES2    0.0000
     86 C54       23.3941    1.2054   26.9536 C.3       2 RES2    0.0000
     87 C55       28.9074    1.5426   26.5967 C.3       2 RES2    0.0000
     88 C56       30.1743    4.4403   24.5048 C.ar      2 RES2    0.0000
     89 C57       30.0186    3.1548   25.0048 C.ar      2 RES2    0.0000
     90 C58       29.1409    2.9525   26.0540 C.ar      2 RES2    0.0000
     91 C59       28.4092    4.0378   26.5519 C.ar      2 RES2    0.0000
     92 C60       28.5240    5.3191   26.0027 C.ar      2 RES2    0.0000
     93 C61       29.4484    5.5172   24.9450 C.ar      2 RES2    0.0000
     94 C62       28.0861    4.1769   28.8703 C.3       2 RES2    0.0000
     95 C63       27.0780    3.8334   29.9686 C.3       2 RES2    0.0000
     96 C64       27.0313    2.4362   30.2827 C.3       2 RES2    0.0000
     97 C65       25.6535    4.3729   29.6502 C.3       2 RES2    0.0000
     98 C66       27.5899    6.4887   26.4173 C.3       2 RES2    0.0000
     99 C67       27.0177    8.6045   23.3232 C.ar      2 RES2    0.0000
    100 C68       26.1381    7.8248   22.5497 C.ar      2 RES2    0.0000
    101 C69       25.6496    6.6236   23.1095 C.ar      2 RES2    0.0000
    102 C70       25.9960    6.2990   24.4386 C.ar      2 RES2    0.0000
    103 C71       26.9613    7.0282   25.1266 C.ar      2 RES2    0.0000
    104 C72       27.4536    8.2399   24.5903 C.ar      2 RES2    0.0000
    105 C73       24.4411    5.4118   25.9920 C.3       2 RES2    0.0000
    106 C74       23.1625    5.9429   25.4771 C.3       2 RES2    0.0000
    107 C75       22.3802    6.6004   26.5903 C.3       2 RES2    0.0000
    108 C76       22.2498    4.7796   25.0070 C.3       2 RES2    0.0000
    109 C77       24.9023    5.6162   22.2441 C.3       2 RES2    0.0000
    110 C78       28.0297    3.7701   21.1693 C.ar      2 RES2    0.0000
    111 C79       27.7553    2.4319   21.4898 C.ar      2 RES2    0.0000
    112 C80       26.5176    2.1158   21.9941 C.ar      2 RES2    0.0000
    113 C81       25.5542    3.1421   22.1308 C.ar      2 RES2    0.0000
    114 C82       25.8773    4.4845   21.9022 C.ar      2 RES2    0.0000
    115 C83       27.1461    4.7964   21.4107 C.ar      2 RES2    0.0000
    116 C84       23.3941    2.4530   21.4300 C.3       2 RES2    0.0000
    117 C85       22.0727    1.9662   22.0090 C.3       2 RES2    0.0000
    118 C86       21.1677    1.6396   20.7889 C.3       2 RES2    0.0000
    119 C87       22.2089    0.7144   22.8467 C.3       2 RES2    0.0000
    120 C88       26.2140    0.6680   22.4214 C.3       2 RES2    0.0000
@<TRIPOS>BOND
     1    1   13 2
     2    2   13 2
     3    3   20 1
     4    4   14 2
     5    5   14 2
     6    6   31 1
     7    7   15 2
     8    8   15 2
     9    9   43 1
    10   10   16 2
    11   11   16 2
    12   12   53 1
    13   13   17 1
    14   14   28 1
    15   15   39 1
    16   16   50 1
    17   17   18 ar
    18   18   19 ar
    19   19   20 ar
    20   20   21 ar
    21   21   22 ar
    22   22   17 ar
    23   23    3 1
    24   24   25 1
    25   25   23 1
    26   26   25 1
    27   27   21 1
    28   28   29 ar
    29   29   30 ar
    30   30   27 1
    31   31   30 ar
    32   32   31 ar
    33   33   28 ar
    34   34    6 1
    35   35   34 1
    36   36   35 1
    37   37   35 1
    38   38   32 1
    39   39   40 ar
    40   40   41 ar
    41   41   43 ar
    42   42   38 1
    43   43   42 ar
    44   44   39 ar
    45   45    9 1
    46   46   45 1
    47   47   46 1
    48   48   46 1
    49   49   41 1
    50   50   51 ar
    51   51   52 ar
    52   52   49 1
    53   53   52 ar
    54   54   53 ar
    55   55   50 ar
    56   56   12 1
    57   57   56 1
    58   58   57 1
    59   59   57 1
    60   60   19 1
    61   61   73 2
    62   62   73 2
    63   63   80 1
    64   64   74 2
    65   65   74 2
    66   66   91 1
    67   67   75 2
    68   68   75 2
    69   69  102 1
    70   70   76 2
    71   71   76 2
    72   72  113 1
    73   73   77 1
    74   74   88 1
    75   75   99 1
    76   76  110 1
    77   77   78 ar
    78   78   79 ar
    79   79   80 ar
    80   80   81 ar
    81   81   82 ar
    82   82   77 ar
    83   83   63 1
    84   84   83 1
    85   85   84 1
    86   86   84 1
    87   87   81 1
    88   88   89 ar
    89   89   90 ar
    90   90   87 1
    91   91   90 ar
    92   92   91 ar
    93   93   88 ar
    94   94   66 1
    95   95   94 1
    96   96   95 1
    97   97   95 1
    98   98   92 1
    99   99  100 ar
   100  100  101 ar
   101  101  102 ar
   102  102  103 ar
   103  103   98 1
   104  104   99 ar
   105  105   69 1
   106  106  105 1
   107  107  106 1
   108  108  106 1
   109  109  101 1
   110  110  111 ar
   111  111  112 ar
   112  112  113 ar
   113  113  114 ar
   114  114  109 1
   115  115  110 ar
   116  116   72 1
   117  117  116 1
   118  118  117 1
   119  119  117 1
   120  120   79 1
   121   32   33 ar
   122   42   44 ar
   123   54   55 ar
   124   54   60 1
   125   92   93 ar
   126  103  104 ar
   127  112  120 1
   128  114  115 ar
@<TRIPOS>SUBSTRUCTURE
     1 RES1 1
     2 RES2 61

@<TRIPOS>CRYSIN
  19.4610   21.0740   21.3680  90.0000  90.0000  90.0000  19 1

