# MOL2 file generated by ConQuest
# Please check atom types

@<TRIPOS>MOLECULE
PINXAL
     8     8     1
SMALL
NO_CHARGES
****
Generated from CSD

@<TRIPOS>ATOM
      1 O1         2.8988    0.9723    7.5479 O.3       1 RES1    0.0000
      2 O2         3.2937   -0.6320    5.9756 O.2       1 RES1    0.0000
      3 N1         3.5357   -0.2507    7.1301 N.pl3     1 RES1    0.0000
      4 N2         3.3052    1.2195    8.8425 N.2       1 RES1    0.0000
      5 C1         4.2487   -0.6745    8.1335 C.2       1 RES1    0.0000
      6 C2         4.0904    0.2492    9.1756 C.2       1 RES1    0.0000
      7 H1         4.5007    0.2402   10.0599 H         1 RES1    0.0000
      8 H2         4.7525   -1.4412    8.0966 H         1 RES1    0.0000
@<TRIPOS>BOND
     1    1    3 1
     2    2    3 1
     3    3    5 2
     4    4    1 1
     5    5    6 1
     6    6    4 2
     7    7    6 1
     8    8    5 1
@<TRIPOS>SUBSTRUCTURE
     1 RES1 1

@<TRIPOS>CRYSIN
   8.2490    5.0040    8.6750  90.0000 104.7200  90.0000 231 1

