# MOL2 file generated by ConQuest
# Please check atom types

@<TRIPOS>MOLECULE
PIQQOV
    13    13     1
SMALL
NO_CHARGES
****
Generated from CSD

@<TRIPOS>ATOM
      1 O1         0.5305    2.4018    8.0121 O.2       1 RES1    0.0000
      2 O2         3.9660   -0.1722    7.2334 O.2       1 RES1    0.0000
      3 O3         4.1803    0.0976    9.4852 O.3       1 RES1    0.0000
      4 N1         2.4775    1.2879    9.9247 N.3       1 RES1    0.0000
      5 N2         3.4799    0.7076   10.5093 N.2       1 RES1    0.0000
      6 C1         3.5272    0.3156    8.2529 C.2       1 RES1    0.0000
      7 C2         2.4285    1.1275    8.5884 C.3       1 RES1    0.0000
      8 C3         1.4663    1.6875    7.6929 C.2       1 RES1    0.0000
      9 C4         1.5423    2.0133   10.8016 C.3       1 RES1    0.0000
     10 H1         0.5548    1.6137   10.6239 H         1 RES1    0.0000
     11 H2         1.5660    3.0542   10.5163 H         1 RES1    0.0000
     12 H3         1.6780    2.0005   11.6960 H         1 RES1    0.0000
     13 H4         1.6230    1.3566    6.6126 H         1 RES1    0.0000
@<TRIPOS>BOND
     1    1    8 2
     2    2    6 2
     3    3    5 1
     4    4    5 1
     5    6    3 1
     6    7    4 1
     7    8    7 1
     8    9    4 1
     9   10    9 1
    10   11    9 1
    11   12    9 1
    12   13    8 1
    13    6    7 1
@<TRIPOS>SUBSTRUCTURE
     1 RES1 1

@<TRIPOS>CRYSIN
   5.4710    8.4840   11.6940  90.0000  91.2300  90.0000 231 1

