# MOL2 file generated by ConQuest
# Please check atom types

@<TRIPOS>MOLECULE
PIQQAH
    44    45     1
SMALL
NO_CHARGES
****
Generated from CSD

@<TRIPOS>ATOM
      1 O1         9.6763    1.1196   17.6897 O.3       1 RES1    0.0000
      2 H1        10.2163    1.1862   18.3289 H         1 RES1    0.0000
      3 O2         6.4712    0.0327   16.1307 O.3       1 RES1    0.0000
      4 N1         9.2527   -0.2696   17.5541 N.3       1 RES1    0.0000
      5 C1         7.3921   -1.7993   18.1004 C.3       1 RES1    0.0000
      6 H2         8.0685   -2.3463   18.5519 H         1 RES1    0.0000
      7 H3         7.2722   -2.1183   17.1824 H         1 RES1    0.0000
      8 H4         6.5419   -1.8677   18.5835 H         1 RES1    0.0000
      9 C2         7.8494   -0.3357   18.0781 C.3       1 RES1    0.0000
     10 H5         7.8938   -0.0423   19.0332 H         1 RES1    0.0000
     11 C3         6.8518    0.5976   17.3887 C.3       1 RES1    0.0000
     12 H6         7.3016    1.4743   17.2196 H         1 RES1    0.0000
     13 C4         5.6357    0.8410   18.2732 C.3       1 RES1    0.0000
     14 H7         5.0116    1.4404   17.8124 H         1 RES1    0.0000
     15 H8         5.9209    1.2511   19.1168 H         1 RES1    0.0000
     16 H9         5.1909   -0.0125   18.4590 H         1 RES1    0.0000
     17 C5         5.9678    0.9851   15.2128 C.3       1 RES1    0.0000
     18 H10        6.5517    1.7838   15.2165 H         1 RES1    0.0000
     19 H11        5.0620    1.2684   15.4989 H         1 RES1    0.0000
     20 C6         5.8977    0.4339   13.8396 C.ar      1 RES1    0.0000
     21 C7         5.2391    1.1844   12.8343 C.ar      1 RES1    0.0000
     22 H12        4.7934    1.9909   13.0647 H         1 RES1    0.0000
     23 C8         5.2408    0.7642   11.5559 C.ar      1 RES1    0.0000
     24 H13        4.8075    1.2898   10.8944 H         1 RES1    0.0000
     25 C9         5.8654   -0.4274   11.1806 C.ar      1 RES1    0.0000
     26 H14        5.8656   -0.7083   10.2719 H         1 RES1    0.0000
     27 C10        6.4788   -1.1862   12.1487 C.ar      1 RES1    0.0000
     28 H15        6.8912   -2.0094   11.9127 H         1 RES1    0.0000
     29 C11        6.5002   -0.7583   13.4605 C.ar      1 RES1    0.0000
     30 H16        6.9361   -1.2898   14.1165 H         1 RES1    0.0000
     31 C12        9.4134   -0.5851   16.1363 C.3       1 RES1    0.0000
     32 H17        9.0436    0.1512   15.5881 H         1 RES1    0.0000
     33 H18        8.9118   -1.4112   15.9226 H         1 RES1    0.0000
     34 C13       10.8884   -0.7809   15.8018 C.ar      1 RES1    0.0000
     35 C14       11.6125    0.2250   15.1961 C.ar      1 RES1    0.0000
     36 H19       11.1849    1.0452   14.9787 H         1 RES1    0.0000
     37 C15       12.9764    0.0494   14.8969 C.ar      1 RES1    0.0000
     38 H20       13.4708    0.7369   14.4658 H         1 RES1    0.0000
     39 C16       13.5874   -1.1481   15.2444 C.ar      1 RES1    0.0000
     40 H21       14.5129   -1.2672   15.0678 H         1 RES1    0.0000
     41 C17       12.8721   -2.1719   15.8427 C.ar      1 RES1    0.0000
     42 H22       13.2956   -2.9980   16.0452 H         1 RES1    0.0000
     43 C18       11.5155   -1.9743   16.1474 C.ar      1 RES1    0.0000
     44 H23       11.0246   -2.6564   16.5897 H         1 RES1    0.0000
@<TRIPOS>BOND
     1    1    2 1
     2    3   11 1
     3    4    1 1
     4    5    6 1
     5    7    5 1
     6    8    5 1
     7    9    4 1
     8   10    9 1
     9   11    9 1
    10   12   11 1
    11   13   11 1
    12   14   13 1
    13   15   13 1
    14   16   13 1
    15   17    3 1
    16   18   17 1
    17   19   17 1
    18   20   17 1
    19   21   20 ar
    20   22   21 1
    21   23   21 ar
    22   24   23 1
    23   25   23 ar
    24   26   25 1
    25   27   25 ar
    26   28   27 1
    27   29   20 ar
    28   30   29 1
    29   31    4 1
    30   32   31 1
    31   33   31 1
    32   34   31 1
    33   35   34 ar
    34   36   35 1
    35   37   35 ar
    36   38   37 1
    37   39   37 ar
    38   40   39 1
    39   41   39 ar
    40   42   41 1
    41   43   34 ar
    42   44   43 1
    43    5    9 1
    44   27   29 ar
    45   41   43 ar
@<TRIPOS>SUBSTRUCTURE
     1 RES1 1

@<TRIPOS>CRYSIN
  14.3650    5.9520   19.0010  90.0000 102.0600  90.0000  14 1

