# MOL2 file generated by ConQuest
# Please check atom types

@<TRIPOS>MOLECULE
PIRKOS
    31    32     1
SMALL
USER_CHARGES
****
Generated from CSD

@<TRIPOS>ATOM
      1 O1         0.9070    5.0045    1.9879 O.2       1 RES1    0.0000
      2 O2         4.0153    6.1368    3.6338 O.3       1 RES1    0.0000
      3 H1         0.5346    7.5733    1.0093 H         1 RES1    0.0000
      4 H2         0.3991    6.5258   -0.1600 H         1 RES1    0.0000
      5 O3         5.7678    7.4036    4.2801 O.2       1 RES1   -1.0000
      6 H3         2.2151    8.4689   -0.3719 H         1 RES1    0.0000
      7 H4         2.4693    7.0216   -0.9961 H         1 RES1    0.0000
      8 O4         8.0624    6.9467    2.7491 O.3       1 RES1    0.0000
      9 H5         3.4934    7.9937    1.4815 H         1 RES1    0.0000
     10 H6         4.2739    7.0836    0.4545 H         1 RES1    0.0000
     11 O5         7.8713    5.1504    1.3920 O.2       1 RES1    0.0000
     12 H7         3.1451    4.5836    2.8240 H         1 RES1    0.0000
     13 N1         2.8983    6.0613    1.5496 N.am      1 RES1    0.0000
     14 N2         5.3958    6.5544    3.4710 N.pl3     1 RES1    1.0000
     15 C1         1.5526    5.8718    1.4200 C.2       1 RES1    0.0000
     16 C2         1.0306    6.9249    0.4653 C.3       1 RES1    0.0000
     17 C3         2.2867    7.5135   -0.1754 C.3       1 RES1    0.0000
     18 C4         3.3960    7.2521    0.8492 C.3       1 RES1    0.0000
     19 C5         3.6904    5.3111    2.4675 C.3       1 RES1    0.0000
     20 C6         5.0497    4.8806    1.9135 C.3       1 RES1    0.0000
     21 H8         5.2900    3.9845    2.2209 H         1 RES1    0.0000
     22 H9         5.0569    4.9091    0.9381 H         1 RES1    0.0000
     23 C7         5.9719    5.8824    2.5035 C.2       1 RES1    0.0000
     24 C8         7.3964    5.9598    2.1570 C.2       1 RES1    0.0000
     25 C9         9.5026    6.9814    2.4537 C.3       1 RES1    0.0000
     26 H10        9.7523    7.9039    2.6596 H         1 RES1    0.0000
     27 H11        9.6051    6.8068    1.4982 H         1 RES1    0.0000
     28 C10       10.2367    5.9838    3.3072 C.3       1 RES1    0.0000
     29 H12       10.0650    6.1415    4.2588 H         1 RES1    0.0000
     30 H13        9.9742    5.0681    3.0948 H         1 RES1    0.0000
     31 H14       11.1907    6.0640    3.1300 H         1 RES1    0.0000
@<TRIPOS>BOND
     1    1   15 2
     2    2   14 1
     3    3   16 1
     4    4   16 1
     5    5   14 1
     6    6   17 1
     7    7   17 1
     8    8   24 1
     9    9   18 1
    10   10   18 1
    11   11   24 2
    12   12   19 1
    13   13   15 1
    14   14   23 2
    15   15   16 1
    16   16   17 1
    17   17   18 1
    18   18   13 1
    19   19    2 1
    20   20   19 1
    21   21   20 1
    22   22   20 1
    23   23   20 1
    24   24   23 1
    25   25    8 1
    26   26   25 1
    27   27   25 1
    28   28   25 1
    29   29   28 1
    30   30   28 1
    31   31   28 1
    32   13   19 1
@<TRIPOS>SUBSTRUCTURE
     1 RES1 1

@<TRIPOS>CRYSIN
  12.4044   10.3305    9.0070  90.0000 102.5440  90.0000  14 1

