# MOL2 file generated by ConQuest
# Please check atom types

@<TRIPOS>MOLECULE
PIRKUY
    34    35     1
SMALL
USER_CHARGES
****
Generated from CSD

@<TRIPOS>ATOM
      1 O1         6.1240    1.3562   10.5843 O.3       1 RES1    0.0000
      2 N1         7.1308   -0.8132    8.0167 N.pl3     1 RES1    1.0000
      3 O2         7.7090   -0.2438   10.7334 O.2       1 RES1    0.0000
      4 O3         8.0200   -1.6227    8.2926 O.2       1 RES1   -1.0000
      5 O4         6.6855   -0.8663    6.6542 O.3       1 RES1    0.0000
      6 O5         6.5760    3.3530    1.9595 O.3       1 RES1    0.0000
      7 C1         5.5774    2.8957   12.3219 C.3       1 RES1    0.0000
      8 H1         5.8175    3.1984   13.2155 H         1 RES1    0.0000
      9 H2         4.6309    2.6601   12.2948 H         1 RES1    0.0000
     10 H3         5.7053    3.6398   11.6906 H         1 RES1    0.0000
     11 C2         6.4312    1.7200   11.9610 C.3       1 RES1    0.0000
     12 H4         6.2115    0.9349   12.4926 H         1 RES1    0.0000
     13 H5         7.3832    1.9451   11.9861 H         1 RES1    0.0000
     14 C3         6.8703    0.3553   10.1062 C.2       1 RES1    0.0000
     15 C4         6.5081    0.1115    8.6963 C.2       1 RES1    0.0000
     16 C5         5.5290    0.8509    7.8591 C.3       1 RES1    0.0000
     17 H6         4.6223    0.7931    8.2370 H         1 RES1    0.0000
     18 H7         5.7822    1.7961    7.7779 H         1 RES1    0.0000
     19 C6         5.5968    0.1105    6.5020 C.3       1 RES1    0.0000
     20 H8         4.7975   -0.4145    6.3558 H         1 RES1    0.0000
     21 C7         5.8970    0.9597    5.2978 C.ar      1 RES1    0.0000
     22 C8         5.0980    0.8808    4.1588 C.ar      1 RES1    0.0000
     23 H9         4.3511    0.2656    4.1264 H         1 RES1    0.0000
     24 C9         5.3441    1.6977    3.0663 C.ar      1 RES1    0.0000
     25 H10        4.7676    1.6580    2.2743 H         1 RES1    0.0000
     26 C10        6.4164    2.5882    3.0858 C.ar      1 RES1    0.0000
     27 C11        7.2459    2.6562    4.2071 C.ar      1 RES1    0.0000
     28 H11        7.9930    3.2630    4.2214 H         1 RES1    0.0000
     29 C12        6.9742    1.8423    5.3013 C.ar      1 RES1    0.0000
     30 H12        7.5444    1.9128    6.0788 H         1 RES1    0.0000
     31 C13        7.5573    4.3906    2.0030 C.3       1 RES1    0.0000
     32 H13        7.3095    5.0609    2.6700 H         1 RES1    0.0000
     33 H14        7.5284    4.7918    1.1107 H         1 RES1    0.0000
     34 H15        8.4576    4.0184    2.1819 H         1 RES1    0.0000
@<TRIPOS>BOND
     1    1   11 1
     2    2    4 1
     3    3   14 2
     4    5    2 1
     5    6   26 1
     6    7    8 1
     7    9    7 1
     8   10    7 1
     9   11    7 1
    10   12   11 1
    11   13   11 1
    12   14    1 1
    13   15    2 2
    14   16   15 1
    15   17   16 1
    16   18   16 1
    17   19    5 1
    18   20   19 1
    19   21   19 1
    20   22   21 ar
    21   23   22 1
    22   24   22 ar
    23   25   24 1
    24   26   24 ar
    25   27   26 ar
    26   28   27 1
    27   29   21 ar
    28   30   29 1
    29   31    6 1
    30   32   31 1
    31   33   31 1
    32   34   31 1
    33   14   15 1
    34   16   19 1
    35   27   29 ar
@<TRIPOS>SUBSTRUCTURE
     1 RES1 1

@<TRIPOS>CRYSIN
  10.6801    8.9717   26.3836  90.0000  90.0000  90.0000  61 1

