# MOL2 file generated by ConQuest
# Please check atom types

@<TRIPOS>MOLECULE
PIRYIA
    52    57     1
SMALL
NO_CHARGES
****
Generated from CSD

@<TRIPOS>ATOM
      1 O1        12.0030    8.1938    0.5311 O.3       1 RES1    0.0000
      2 O2         7.8875    8.0601    0.7201 O.3       1 RES1    0.0000
      3 O3        12.1938    7.3270    2.5378 O.2       1 RES1    0.0000
      4 O4         5.8653    9.3104    5.1900 O.2       1 RES1    0.0000
      5 O5         7.8356    4.3288   -2.1823 O.2       1 RES1    0.0000
      6 O6         9.1359    5.1914   -0.7042 O.2       1 RES1    0.0000
      7 N1         7.1030    5.9760    1.3807 N.2       1 RES1    0.0000
      8 N2         8.3061    4.3781   -1.0520 N.pl3     1 RES1    0.0000
      9 C1        11.2378    8.6544   -0.4943 C.ar      1 RES1    0.0000
     10 C2        11.9249    9.2354   -1.5681 C.ar      1 RES1    0.0000
     11 H1        12.8523    9.3012   -1.5591 H         1 RES1    0.0000
     12 C3        11.2032    9.6991   -2.6183 C.ar      1 RES1    0.0000
     13 H2        11.6517   10.0651   -3.3463 H         1 RES1    0.0000
     14 C4         9.8379    9.6456   -2.6401 C.ar      1 RES1    0.0000
     15 H3         9.3746    9.9808   -3.3734 H         1 RES1    0.0000
     16 C5         9.1383    9.0925   -1.5699 C.ar      1 RES1    0.0000
     17 H4         8.2090    9.0462   -1.5844 H         1 RES1    0.0000
     18 C6         9.8535    8.6102   -0.4798 C.ar      1 RES1    0.0000
     19 C7         9.2409    8.0067    0.6845 C.2       1 RES1    0.0000
     20 C8        10.0026    7.4905    1.6768 C.2       1 RES1    0.0000
     21 C9        11.4287    7.6273    1.6387 C.2       1 RES1    0.0000
     22 C10        9.3717    6.8479    2.8871 C.3       1 RES1    0.0000
     23 H5         9.9330    7.0175    3.6722 H         1 RES1    0.0000
     24 C11        8.0549    7.5049    3.0746 C.2       1 RES1    0.0000
     25 C12        7.5958    8.0941    4.1683 C.2       1 RES1    0.0000
     26 H6         8.1353    8.1270    4.9252 H         1 RES1    0.0000
     27 C13        6.2732    8.6894    4.2208 C.2       1 RES1    0.0000
     28 C14        5.4275    8.5434    3.0203 C.2       1 RES1    0.0000
     29 H7         4.5584    8.8745    3.0366 H         1 RES1    0.0000
     30 C15        5.8647    7.9573    1.9230 C.2       1 RES1    0.0000
     31 H8         5.3064    7.9162    1.1806 H         1 RES1    0.0000
     32 C16        7.2367    7.3538    1.8325 C.3       1 RES1    0.0000
     33 C17        7.9631    5.1040    1.7782 C.2       1 RES1    0.0000
     34 C18        9.1161    5.3189    2.7596 C.3       1 RES1    0.0000
     35 C19        8.7049    4.7832    4.1412 C.3       1 RES1    0.0000
     36 H9         8.5403    3.8393    4.0832 H         1 RES1    0.0000
     37 H10        7.9068    5.2284    4.4327 H         1 RES1    0.0000
     38 H11        9.4117    4.9467    4.7713 H         1 RES1    0.0000
     39 C20       10.3775    4.6074    2.2634 C.3       1 RES1    0.0000
     40 H12       10.2039    3.6666    2.1838 H         1 RES1    0.0000
     41 H13       11.0922    4.7483    2.8900 H         1 RES1    0.0000
     42 H14       10.6288    4.9601    1.4069 H         1 RES1    0.0000
     43 C21        7.7178    3.7231    1.2530 C.ar      1 RES1    0.0000
     44 C22        7.2266    2.7350    2.0896 C.ar      1 RES1    0.0000
     45 H15        7.1175    2.9201    2.9950 H         1 RES1    0.0000
     46 C23        6.8932    1.4806    1.6116 C.ar      1 RES1    0.0000
     47 H16        6.5790    0.8329    2.2019 H         1 RES1    0.0000
     48 C24        7.0183    1.1835    0.2897 C.ar      1 RES1    0.0000
     49 H17        6.7916    0.3373   -0.0235 H         1 RES1    0.0000
     50 C25        7.4830    2.1325   -0.5794 C.ar      1 RES1    0.0000
     51 H18        7.5588    1.9433   -1.4866 H         1 RES1    0.0000
     52 C26        7.8404    3.3818   -0.0923 C.ar      1 RES1    0.0000
@<TRIPOS>BOND
     1    1    9 1
     2    2   19 1
     3    3   21 2
     4    4   27 2
     5    5    8 2
     6    6    8 2
     7    7   32 1
     8    8   52 1
     9    9   10 ar
    10   10   11 1
    11   12   10 ar
    12   13   12 1
    13   14   12 ar
    14   15   14 1
    15   16   14 ar
    16   17   16 1
    17   18    9 ar
    18   19   18 1
    19   20   19 2
    20   21    1 1
    21   22   20 1
    22   23   22 1
    23   24   22 1
    24   25   24 2
    25   26   25 1
    26   27   25 1
    27   28   27 1
    28   29   28 1
    29   30   28 2
    30   31   30 1
    31   32    2 1
    32   33    7 2
    33   34   22 1
    34   35   34 1
    35   36   35 1
    36   37   35 1
    37   38   35 1
    38   39   34 1
    39   40   39 1
    40   41   39 1
    41   42   39 1
    42   43   33 1
    43   44   43 ar
    44   45   44 1
    45   46   44 ar
    46   47   46 1
    47   48   46 ar
    48   49   48 1
    49   50   48 ar
    50   51   50 1
    51   52   43 ar
    52   16   18 ar
    53   20   21 1
    54   24   32 1
    55   30   32 1
    56   33   34 1
    57   50   52 ar
@<TRIPOS>SUBSTRUCTURE
     1 RES1 1

@<TRIPOS>CRYSIN
  22.8610   10.2821   18.1640  90.0000  94.5220  90.0000  15 1

