# MOL2 file generated by ConQuest
# Please check atom types

@<TRIPOS>MOLECULE
PIRZOH
   132   136     2
SMALL
NO_CHARGES
****
Generated from CSD

@<TRIPOS>ATOM
      1 O1        -1.2159    8.9848   11.2726 O.3       1 RES1    0.0000
      2 O2         3.6427    7.9175    9.8260 O.2       1 RES1    0.0000
      3 O3         8.2728    5.7430   14.4042 O.2       1 RES1    0.0000
      4 O4         6.6582    5.1377   15.7127 O.2       1 RES1    0.0000
      5 N1         2.1495    6.3463   10.4598 N.am      1 RES1    0.0000
      6 N2        -1.1830    7.6074    9.1127 N.3       1 RES1    0.0000
      7 N3         7.0788    5.5713   14.6504 N.pl3     1 RES1    0.0000
      8 C1        -0.1475    7.1874   10.0618 C.3       1 RES1    0.0000
      9 H1        -0.5203    6.4335   10.6045 H         1 RES1    0.0000
     10 C2         0.0727    8.4007   11.0278 C.3       1 RES1    0.0000
     11 H2         0.6617    9.0750   10.5810 H         1 RES1    0.0000
     12 C3         0.6556    8.0390   12.3514 C.2       1 RES1    0.0000
     13 H3         0.2273    7.3650   12.8645 H         1 RES1    0.0000
     14 C4         1.7476    8.6148   12.8471 C.2       1 RES1    0.0000
     15 H4         2.1325    9.3092   12.3289 H         1 RES1    0.0000
     16 C5         2.4214    8.2925   14.1115 C.ar      1 RES1    0.0000
     17 C6         1.8305    7.5201   15.1146 C.ar      1 RES1    0.0000
     18 H5         0.9365    7.2160   15.0070 H         1 RES1    0.0000
     19 C7         2.5346    7.1947   16.2601 C.ar      1 RES1    0.0000
     20 H6         2.1194    6.6727   16.9381 H         1 RES1    0.0000
     21 C8         3.8418    7.6266   16.4274 C.ar      1 RES1    0.0000
     22 H7         4.3297    7.3833   17.2059 H         1 RES1    0.0000
     23 C9         4.4287    8.4121   15.4581 C.ar      1 RES1    0.0000
     24 H8         5.3157    8.7284   15.5755 H         1 RES1    0.0000
     25 C10        3.7276    8.7415   14.3126 C.ar      1 RES1    0.0000
     26 H9         4.1428    9.2818   13.6491 H         1 RES1    0.0000
     27 C11       -0.8041    8.3989    7.9381 C.3       1 RES1    0.0000
     28 H10       -0.1505    7.9134    7.3766 H         1 RES1    0.0000
     29 H11       -0.4192    9.2717    8.2036 H         1 RES1    0.0000
     30 C12       -2.1335    8.5804    7.2103 C.3       1 RES1    0.0000
     31 H12       -1.9982    8.5591    6.2302 H         1 RES1    0.0000
     32 H13       -2.5487    9.4440    7.4565 H         1 RES1    0.0000
     33 C13       -3.0195    7.4106    7.6576 C.3       1 RES1    0.0000
     34 H14       -3.8468    7.7421    8.0861 H         1 RES1    0.0000
     35 H15       -3.2670    6.8430    6.8833 H         1 RES1    0.0000
     36 C14       -2.1709    6.6271    8.6518 C.3       1 RES1    0.0000
     37 H16       -2.7215    6.2957    9.4064 H         1 RES1    0.0000
     38 H17       -1.7295    5.8568    8.2130 H         1 RES1    0.0000
     39 C15        1.1750    6.6974    9.4228 C.3       1 RES1    0.0000
     40 H18        1.5547    7.4482    8.8802 H         1 RES1    0.0000
     41 C16        0.9819    5.4929    8.4939 C.3       1 RES1    0.0000
     42 H19        0.5950    4.7478    9.0164 H         1 RES1    0.0000
     43 H20        0.3263    5.7361    7.7948 H         1 RES1    0.0000
     44 C17        2.2618    5.0023    7.8178 C.3       1 RES1    0.0000
     45 H21        2.9437    4.8299    8.5278 H         1 RES1    0.0000
     46 C18        1.9810    3.6866    7.0985 C.3       1 RES1    0.0000
     47 H22        1.6880    3.0145    7.7478 H         1 RES1    0.0000
     48 H23        2.7972    3.3764    6.6531 H         1 RES1    0.0000
     49 H24        1.2769    3.8224    6.4322 H         1 RES1    0.0000
     50 C19        2.8296    6.0392    6.8561 C.3       1 RES1    0.0000
     51 H25        3.6408    5.6855    6.4369 H         1 RES1    0.0000
     52 H26        3.0478    6.8572    7.3485 H         1 RES1    0.0000
     53 H27        2.1649    6.2419    6.1644 H         1 RES1    0.0000
     54 C20        3.3246    6.9871   10.5646 C.2       1 RES1    0.0000
     55 C21        4.2762    6.5456   11.6462 C.ar      1 RES1    0.0000
     56 C22        3.9075    5.7409   12.7235 C.ar      1 RES1    0.0000
     57 H28        3.0195    5.4077   12.7799 H         1 RES1    0.0000
     58 C23        4.8207    5.4239   13.7088 C.ar      1 RES1    0.0000
     59 H29        4.5681    4.8796   14.4479 H         1 RES1    0.0000
     60 C24        6.1036    5.9115   13.6036 C.ar      1 RES1    0.0000
     61 C25        6.5087    6.7194   12.5539 C.ar      1 RES1    0.0000
     62 H30        7.4007    7.0427   12.5027 H         1 RES1    0.0000
     63 C26        5.5753    7.0407   11.5846 C.ar      1 RES1    0.0000
     64 H31        5.8258    7.6083   10.8629 H         1 RES1    0.0000
     65 H32       -1.6264    8.7578   10.5011 H         1 RES1    0.0000
     66 H33        1.9800    5.6662   10.9710 H         1 RES1    0.0000
     67 O5         4.3758    8.8242    0.2937 O.3       2 RES2    0.0000
     68 O6         5.1499    4.0625    1.3959 O.2       2 RES2    0.0000
     69 O7         7.6442   -0.6882   -2.8708 O.2       2 RES2    0.0000
     70 O8         8.5978    0.8666   -4.0327 O.2       2 RES2    0.0000
     71 N4         6.9292    5.3947    1.0393 N.am      2 RES2    0.0000
     72 N5         5.7345    8.7143    2.4465 N.3       2 RES2    0.0000
     73 N6         7.9280    0.4916   -3.0855 N.pl3     2 RES2    0.0000
     74 C27        6.1541    7.6927    1.4763 C.3       2 RES2    0.0000
     75 H34        6.9401    8.0584    0.9773 H         2 RES2    0.0000
     76 C28        4.9843    7.5262    0.4492 C.3       2 RES2    0.0000
     77 H35        4.3105    6.8825    0.8128 H         2 RES2    0.0000
     78 C29        5.4217    7.0812   -0.9096 C.2       2 RES2    0.0000
     79 H36        6.1036    7.5789   -1.3438 H         2 RES2    0.0000
     80 C30        4.9126    6.0270   -1.5435 C.2       2 RES2    0.0000
     81 H37        4.2489    5.5314   -1.0760 H         2 RES2    0.0000
     82 C31        5.2682    5.5476   -2.8915 C.ar      2 RES2    0.0000
     83 C32        6.0188    6.2997   -3.7922 C.ar      2 RES2    0.0000
     84 H38        6.3097    7.1694   -3.5427 H         2 RES2    0.0000
     85 C33        6.3481    5.8051   -5.0401 C.ar      2 RES2    0.0000
     86 H39        6.8643    6.3332   -5.6382 H         2 RES2    0.0000
     87 C34        5.9289    4.5441   -5.4225 C.ar      2 RES2    0.0000
     88 H40        6.1562    4.2035   -6.2819 H         2 RES2    0.0000
     89 C35        5.1763    3.7829   -4.5481 C.ar      2 RES2    0.0000
     90 H41        4.8863    2.9162   -4.8066 H         2 RES2    0.0000
     91 C36        4.8439    4.2816   -3.2936 C.ar      2 RES2    0.0000
     92 H42        4.3206    3.7525   -2.7016 H         2 RES2    0.0000
     93 C37        4.9419    8.3239    3.6235 C.3       2 RES2    0.0000
     94 H43        5.4036    7.6235    4.1488 H         2 RES2    0.0000
     95 H44        4.0469    7.9945    3.3594 H         2 RES2    0.0000
     96 C38        4.8389    9.6153    4.4067 C.3       2 RES2    0.0000
     97 H45        4.8914    9.4349    5.3798 H         2 RES2    0.0000
     98 H46        3.9792   10.0684    4.2146 H         2 RES2    0.0000
     99 C39        6.0026   10.4830    3.9665 C.3       2 RES2    0.0000
    100 H47        6.6037   10.6725    4.7314 H         2 RES2    0.0000
    101 H48        5.6763   11.3415    3.5991 H         2 RES2    0.0000
    102 C40        6.7350    9.6873    2.8971 C.3       2 RES2    0.0000
    103 H49        7.0219   10.2721    2.1519 H         2 RES2    0.0000
    104 H50        7.5290    9.2311    3.2749 H         2 RES2    0.0000
    105 C41        6.5835    6.3411    2.0941 C.3       2 RES2    0.0000
    106 H51        5.8076    5.9703    2.6030 H         2 RES2    0.0000
    107 C42        7.7725    6.4741    3.0587 C.3       2 RES2    0.0000
    108 H52        8.5170    6.9160    2.5795 H         2 RES2    0.0000
    109 H53        7.5058    7.0660    3.8058 H         2 RES2    0.0000
    110 C43        8.2786    5.1756    3.6352 C.3       2 RES2    0.0000
    111 H54        8.6372    4.6384    2.8708 H         2 RES2    0.0000
    112 C44        9.4524    5.4543    4.5768 C.3       2 RES2    0.0000
    113 H55        9.8080    4.6059    4.9146 H         2 RES2    0.0000
    114 H56        9.1464    6.0037    5.3281 H         2 RES2    0.0000
    115 H57       10.1566    5.9318    4.0877 H         2 RES2    0.0000
    116 C45        7.2704    4.3495    4.3001 C.3       2 RES2    0.0000
    117 H58        6.6178    4.0353    3.6413 H         2 RES2    0.0000
    118 H59        6.8118    4.8806    4.9851 H         2 RES2    0.0000
    119 H60        7.7058    3.5791    4.7220 H         2 RES2    0.0000
    120 C46        6.1875    4.3039    0.7969 C.2       2 RES2    0.0000
    121 C47        6.6673    3.3529   -0.2683 C.ar      2 RES2    0.0000
    122 C48        7.5310    3.7129   -1.2907 C.ar      2 RES2    0.0000
    123 H61        7.8583    4.6039   -1.3391 H         2 RES2    0.0000
    124 C49        7.9200    2.7865   -2.2388 C.ar      2 RES2    0.0000
    125 H62        8.5018    3.0318   -2.9460 H         2 RES2    0.0000
    126 C50        7.4432    1.4971   -2.1312 C.ar      2 RES2    0.0000
    127 C51        6.5592    1.1140   -1.1535 C.ar      2 RES2    0.0000
    128 H63        6.2289    0.2240   -1.1182 H         2 RES2    0.0000
    129 C52        6.1622    2.0567   -0.2194 C.ar      2 RES2    0.0000
    130 H64        5.5420    1.8174    0.4605 H         2 RES2    0.0000
    131 H65        4.6469    9.2342    1.0525 H         2 RES2    0.0000
    132 H66        7.6371    5.5344    0.6108 H         2 RES2    0.0000
@<TRIPOS>BOND
     1    1   10 1
     2    2   54 2
     3    3    7 2
     4    4    7 2
     5    5   39 1
     6    6    8 1
     7    7   60 1
     8    8    9 1
     9   10    8 1
    10   11   10 1
    11   12   10 1
    12   13   12 1
    13   14   12 2
    14   15   14 1
    15   16   14 1
    16   17   16 ar
    17   18   17 1
    18   19   17 ar
    19   20   19 1
    20   21   19 ar
    21   22   21 1
    22   23   21 ar
    23   24   23 1
    24   25   16 ar
    25   26   25 1
    26   27    6 1
    27   28   27 1
    28   29   27 1
    29   30   27 1
    30   31   30 1
    31   32   30 1
    32   33   30 1
    33   34   33 1
    34   35   33 1
    35   36    6 1
    36   37   36 1
    37   38   36 1
    38   39    8 1
    39   40   39 1
    40   41   39 1
    41   42   41 1
    42   43   41 1
    43   44   41 1
    44   45   44 1
    45   46   44 1
    46   47   46 1
    47   48   46 1
    48   49   46 1
    49   50   44 1
    50   51   50 1
    51   52   50 1
    52   53   50 1
    53   54    5 1
    54   55   54 1
    55   56   55 ar
    56   57   56 1
    57   58   56 ar
    58   59   58 1
    59   60   58 ar
    60   61   60 ar
    61   62   61 1
    62   63   55 ar
    63   64   63 1
    64   65    1 1
    65   66    5 1
    66   67   76 1
    67   68  120 2
    68   69   73 2
    69   70   73 2
    70   71  105 1
    71   72   74 1
    72   73  126 1
    73   74   75 1
    74   76   74 1
    75   77   76 1
    76   78   76 1
    77   79   78 1
    78   80   78 2
    79   81   80 1
    80   82   80 1
    81   83   82 ar
    82   84   83 1
    83   85   83 ar
    84   86   85 1
    85   87   85 ar
    86   88   87 1
    87   89   87 ar
    88   90   89 1
    89   91   82 ar
    90   92   91 1
    91   93   72 1
    92   94   93 1
    93   95   93 1
    94   96   93 1
    95   97   96 1
    96   98   96 1
    97   99   96 1
    98  100   99 1
    99  101   99 1
   100  102   72 1
   101  103  102 1
   102  104  102 1
   103  105   74 1
   104  106  105 1
   105  107  105 1
   106  108  107 1
   107  109  107 1
   108  110  107 1
   109  111  110 1
   110  112  110 1
   111  113  112 1
   112  114  112 1
   113  115  112 1
   114  116  110 1
   115  117  116 1
   116  118  116 1
   117  119  116 1
   118  120   71 1
   119  121  120 1
   120  122  121 ar
   121  123  122 1
   122  124  122 ar
   123  125  124 1
   124  126  124 ar
   125  127  126 ar
   126  128  127 1
   127  129  121 ar
   128  130  129 1
   129  131   67 1
   130  132   71 1
   131   23   25 ar
   132   33   36 1
   133   61   63 ar
   134   89   91 ar
   135   99  102 1
   136  127  129 ar
@<TRIPOS>SUBSTRUCTURE
     1 RES1 1
     2 RES2 67

@<TRIPOS>CRYSIN
  10.1020   10.1363   46.9850  90.0000  90.0000  90.0000  19 1

