# MOL2 file generated by ConQuest
# Please check atom types

@<TRIPOS>MOLECULE
PITDAZ
    31    33     1
SMALL
NO_CHARGES
****
Generated from CSD

@<TRIPOS>ATOM
      1 C1         4.6049   -0.8988    8.2525 C.ar      1 RES1    0.0000
      2 C2         7.4202   -0.4368    6.7788 C.ar      1 RES1    0.0000
      3 H1         7.1429    0.3878    7.1085 H         1 RES1    0.0000
      4 C3         8.6389   -0.6010    6.1277 C.ar      1 RES1    0.0000
      5 C4         6.6458   -1.5793    6.9057 C.ar      1 RES1    0.0000
      6 C5         3.9350   -1.3421    9.3880 C.ar      1 RES1    0.0000
      7 H2         4.0272   -2.2262    9.6620 H         1 RES1    0.0000
      8 C6         7.0445   -2.8279    6.4394 C.ar      1 RES1    0.0000
      9 C7         3.0575    0.8276    9.7093 C.ar      1 RES1    0.0000
     10 C8         8.2837   -2.9669    5.8122 C.ar      1 RES1    0.0000
     11 H3         8.5736   -3.7955    5.5052 H         1 RES1    0.0000
     12 C9         4.4967    0.4237    7.8591 C.ar      1 RES1    0.0000
     13 H4         4.9415    0.7204    7.0986 H         1 RES1    0.0000
     14 C10        3.1374   -0.4853   10.1081 C.ar      1 RES1    0.0000
     15 H5         2.6626   -0.7860   10.8484 H         1 RES1    0.0000
     16 C11        9.0571   -1.8553    5.6629 C.ar      1 RES1    0.0000
     17 H6         9.8832   -1.9305    5.2414 H         1 RES1    0.0000
     18 C12        3.7277    1.3038    8.5956 C.ar      1 RES1    0.0000
     19 H7         3.6622    2.1974    8.3482 H         1 RES1    0.0000
     20 C13        9.1331    1.7246    6.2925 C.3       1 RES1    0.0000
     21 H8         8.3022    1.9666    5.8776 H         1 RES1    0.0000
     22 H9         9.8142    2.3493    6.0327 H         1 RES1    0.0000
     23 H10        9.0309    1.7405    7.2467 H         1 RES1    0.0000
     24 C14        5.1613   -3.1548    7.3722 C.2       1 RES1    0.0000
     25 H11        4.3907   -3.5646    7.6923 H         1 RES1    0.0000
     26 N1         5.4096   -1.8079    7.5248 N.pl3     1 RES1    0.0000
     27 N2         2.2308    1.7484   10.4793 N.pl3     1 RES1    0.0000
     28 N3         6.0908   -3.8038    6.7459 N.2       1 RES1    0.0000
     29 O1         9.5049    0.4248    5.8801 O.3       1 RES1    0.0000
     30 O2         2.2208    2.9356   10.1770 O.2       1 RES1    0.0000
     31 O3         1.5441    1.2808   11.3849 O.2       1 RES1    0.0000
@<TRIPOS>BOND
     1    1    6 ar
     2    2    3 1
     3    4    2 ar
     4    5    2 ar
     5    6    7 1
     6    8    5 ar
     7    9   14 ar
     8   10    8 ar
     9   11   10 1
    10   12    1 ar
    11   13   12 1
    12   14    6 ar
    13   15   14 1
    14   16    4 ar
    15   17   16 1
    16   18    9 ar
    17   19   18 1
    18   20   21 1
    19   22   20 1
    20   23   20 1
    21   24   25 1
    22   26    1 1
    23   27    9 1
    24   28    8 1
    25   29    4 1
    26   30   27 2
    27   31   27 2
    28    5   26 1
    29   10   16 ar
    30   12   18 ar
    31   20   29 1
    32   24   26 1
    33   24   28 2
@<TRIPOS>SUBSTRUCTURE
     1 RES1 1

@<TRIPOS>CRYSIN
   7.9271    8.3482   10.2367  94.7990 102.5040 105.7610   2 1

