# MOL2 file generated by ConQuest
# Please check atom types

@<TRIPOS>MOLECULE
PITPUE
    66    64     2
SMALL
NO_CHARGES
****
Generated from CSD

@<TRIPOS>ATOM
      1 O1         9.5322    1.2088    2.7069 O.2       1 RES1    0.0000
      2 O2         8.5716    1.1600    0.7888 O.2       1 RES1    0.0000
      3 N1         3.5058    0.4405    5.9253 N.2       1 RES1    0.0000
      4 N2         3.6047    0.3964    4.5333 N.pl3     1 RES1    0.0000
      5 N3         8.5317    1.1153    2.0079 N.pl3     1 RES1    0.0000
      6 C1         2.2640    0.2826    6.2287 C.2       1 RES1    0.0000
      7 C2         1.7446    0.2788    7.5974 C.2       1 RES1    0.0000
      8 C3         0.3698   -0.3253    7.7878 C.3       1 RES1    0.0000
      9 H1        -0.1177    0.2274    8.4182 H         1 RES1    0.0000
     10 H2         0.4793   -1.1996    8.1939 H         1 RES1    0.0000
     11 C4        -0.4887   -0.4882    6.5380 C.3       1 RES1    0.0000
     12 H3        -1.1835   -1.1410    6.7185 H         1 RES1    0.0000
     13 H4        -0.9234    0.3583    6.3449 H         1 RES1    0.0000
     14 C5         0.2924   -0.9296    5.3073 C.3       1 RES1    0.0000
     15 H5         0.7021   -1.7955    5.4652 H         1 RES1    0.0000
     16 H6        -0.3014   -1.0053    4.5434 H         1 RES1    0.0000
     17 C6         1.3611    0.1115    5.0365 C.3       1 RES1    0.0000
     18 H7         0.9116    0.9673    4.8750 H         1 RES1    0.0000
     19 C7         2.3711   -0.1130    3.8977 C.3       1 RES1    0.0000
     20 H8         2.1371    0.4534    3.1332 H         1 RES1    0.0000
     21 C8         2.5122    0.7937    8.5818 C.2       1 RES1    0.0000
     22 H9         3.3321    1.1185    8.2867 H         1 RES1    0.0000
     23 C9         2.3050    0.9400   10.0212 C.ar      1 RES1    0.0000
     24 C10        1.2408    0.4197   10.7552 C.ar      1 RES1    0.0000
     25 H10        0.5813   -0.0711   10.3203 H         1 RES1    0.0000
     26 C11        1.1519    0.6193   12.1202 C.ar      1 RES1    0.0000
     27 H11        0.4213    0.2699   12.5782 H         1 RES1    0.0000
     28 C12        2.1029    1.3159   12.8235 C.ar      1 RES1    0.0000
     29 C13        3.1674    1.8149   12.1060 C.ar      1 RES1    0.0000
     30 H12        3.8393    2.2801   12.5505 H         1 RES1    0.0000
     31 C14        3.2578    1.6386   10.7392 C.ar      1 RES1    0.0000
     32 H13        3.9846    2.0026   10.2860 H         1 RES1    0.0000
     33 C15        2.5231   -1.5500    3.4392 C.ar      1 RES1    0.0000
     34 C16        1.8674   -1.9750    2.3026 C.ar      1 RES1    0.0000
     35 H14        1.3536   -1.3732    1.8136 H         1 RES1    0.0000
     36 C17        1.9668   -3.2867    1.8855 C.ar      1 RES1    0.0000
     37 H15        1.5141   -3.5546    1.1185 H         1 RES1    0.0000
     38 C18        2.7225   -4.2099    2.5784 C.ar      1 RES1    0.0000
     39 C19        3.3705   -3.7763    3.7118 C.ar      1 RES1    0.0000
     40 H16        3.8829   -4.3786    4.1997 H         1 RES1    0.0000
     41 C20        3.2765   -2.4705    4.1402 C.ar      1 RES1    0.0000
     42 H17        3.7256   -2.2056    4.9104 H         1 RES1    0.0000
     43 C21        4.8105    0.5674    3.9196 C.ar      1 RES1    0.0000
     44 C22        4.9087    0.5113    2.5171 C.ar      1 RES1    0.0000
     45 H18        4.1500    0.3408    2.0070 H         1 RES1    0.0000
     46 C23        6.1179    0.7064    1.8988 C.ar      1 RES1    0.0000
     47 H19        6.1778    0.6742    0.9715 H         1 RES1    0.0000
     48 C24        7.2466    0.9503    2.6581 C.ar      1 RES1    0.0000
     49 C25        7.1708    1.0045    4.0343 C.ar      1 RES1    0.0000
     50 H20        7.9378    1.1662    4.5346 H         1 RES1    0.0000
     51 C26        5.9719    0.8212    4.6662 C.ar      1 RES1    0.0000
     52 H21        5.9258    0.8642    5.5945 H         1 RES1    0.0000
     53 C27        1.9871    1.4930   14.3172 C.3       1 RES1    0.0000
     54 H22        2.4235    2.3075   14.5775 H         1 RES1    0.0000
     55 H23        2.4034    0.7504   14.7609 H         1 RES1    0.0000
     56 H24        1.0597    1.5345   14.5631 H         1 RES1    0.0000
     57 H25        1.5011    0.7545   14.6902 Du        2 SUP2    0.0000
     58 H26        1.5212    2.3115   14.5067 Du        2 SUP2    0.0000
     59 H27        2.8649    1.5274   14.7046 Du        2 SUP2    0.0000
     60 C28        2.8385   -5.6406    2.1021 C.3       1 RES1    0.0000
     61 H28        2.2337   -5.7830    1.3693 H         1 RES1    0.0000
     62 H29        2.6162   -6.2362    2.8216 H         1 RES1    0.0000
     63 H30        3.7380   -5.8096    1.8125 H         1 RES1    0.0000
     64 H31        3.4920   -6.1026    2.6326 Du        2 SUP2    0.0000
     65 H32        3.1094   -5.6495    1.1803 Du        2 SUP2    0.0000
     66 H33        1.9876   -6.0761    2.1894 Du        2 SUP2    0.0000
@<TRIPOS>BOND
     1    1    5 2
     2    2    5 2
     3    3    4 1
     4    4   19 1
     5    5   48 1
     6    6    3 2
     7    7    6 1
     8    8    7 1
     9    9    8 1
    10   10    8 1
    11   11    8 1
    12   12   11 1
    13   13   11 1
    14   14   11 1
    15   15   14 1
    16   16   14 1
    17   17    6 1
    18   18   17 1
    19   19   17 1
    20   20   19 1
    21   21    7 2
    22   22   21 1
    23   23   21 1
    24   24   23 ar
    25   25   24 1
    26   26   24 ar
    27   27   26 1
    28   28   26 ar
    29   29   28 ar
    30   30   29 1
    31   31   23 ar
    32   32   31 1
    33   33   19 1
    34   34   33 ar
    35   35   34 1
    36   36   34 ar
    37   37   36 1
    38   38   36 ar
    39   39   38 ar
    40   40   39 1
    41   41   33 ar
    42   42   41 1
    43   43    4 1
    44   44   43 ar
    45   45   44 1
    46   46   44 ar
    47   47   46 1
    48   48   46 ar
    49   49   48 ar
    50   50   49 1
    51   51   43 ar
    52   52   51 1
    53   53   28 1
    54   54   53 1
    55   55   53 1
    56   56   53 1
    57   60   38 1
    58   61   60 1
    59   62   60 1
    60   63   60 1
    61   14   17 1
    62   29   31 ar
    63   39   41 ar
    64   49   51 ar
@<TRIPOS>SUBSTRUCTURE
     1 RES1 1
     2 SUP2 57

@<TRIPOS>CRYSIN
  10.1350   11.0800   12.6040 114.7800  92.7500 113.6000   2 1

