# MOL2 file generated by ConQuest
# Please check atom types

@<TRIPOS>MOLECULE
PIVKEL
    56    58     1
SMALL
NO_CHARGES
****
Generated from CSD

@<TRIPOS>ATOM
      1 O1         0.7927    3.9959    5.9739 O.2       1 RES1    0.0000
      2 O2         4.9157    2.6495   11.1291 O.3       1 RES1    0.0000
      3 O3        -3.9590    1.0818    1.2881 O.2       1 RES1    0.0000
      4 O4        -2.5408   -0.3030    0.2649 O.3       1 RES1    0.0000
      5 N1         1.0040    2.7358    6.0006 N.3       1 RES1    0.0000
      6 C1         0.8097    1.9323    7.2286 C.3       1 RES1    0.0000
      7 C2         0.9716    0.5080    6.6561 C.3       1 RES1    0.0000
      8 C3         1.9622    0.6909    5.5244 C.3       1 RES1    0.0000
      9 C4         1.4809    1.9679    4.8115 C.3       1 RES1    0.0000
     10 C5        -0.5743    2.1987    7.7997 C.3       1 RES1    0.0000
     11 C6         1.9181    2.2108    8.2532 C.ar      1 RES1    0.0000
     12 C7         3.0537    2.9394    7.9589 C.ar      1 RES1    0.0000
     13 C8         4.0853    3.1116    8.8739 C.ar      1 RES1    0.0000
     14 C9         3.9849    2.5522   10.1353 C.ar      1 RES1    0.0000
     15 C10        2.8351    1.8151   10.4550 C.ar      1 RES1    0.0000
     16 C11        1.8405    1.6428    9.5213 C.ar      1 RES1    0.0000
     17 C12        6.0533    3.4953   10.8924 C.3       1 RES1    0.0000
     18 C13        6.8723    3.5148   12.1524 C.3       1 RES1    0.0000
     19 C14        6.1508    4.1808   13.3162 C.3       1 RES1    0.0000
     20 C15        6.8747    4.2217   14.5882 C.3       1 RES1    0.0000
     21 C16        2.5698    2.7493    4.0932 C.3       1 RES1    0.0000
     22 C17        0.3166    1.6482    3.8765 C.ar      1 RES1    0.0000
     23 C18       -0.9469    2.2076    3.9928 C.ar      1 RES1    0.0000
     24 C19       -1.9641    1.8649    3.1207 C.ar      1 RES1    0.0000
     25 C20       -1.7238    0.9573    2.0907 C.ar      1 RES1    0.0000
     26 C21       -0.4590    0.3996    1.9556 C.ar      1 RES1    0.0000
     27 C22        0.5501    0.7442    2.8304 C.ar      1 RES1    0.0000
     28 C23       -2.8210    0.5719    1.1664 C.2       1 RES1    0.0000
     29 H1         0.1019    0.2486    6.2735 H         1 RES1    0.0000
     30 H2         1.2354   -0.1598    7.3704 H         1 RES1    0.0000
     31 H3         1.9645   -0.0355    4.9626 H         1 RES1    0.0000
     32 H4         2.8752    0.9591    5.9659 H         1 RES1    0.0000
     33 H5        -0.7059    1.5452    8.4271 H         1 RES1    0.0000
     34 H6        -0.6402    3.1614    8.1194 H         1 RES1    0.0000
     35 H7        -1.2580    2.0957    7.0895 H         1 RES1    0.0000
     36 H8         3.1005    3.3745    7.1162 H         1 RES1    0.0000
     37 H9         4.9790    3.5876    8.6010 H         1 RES1    0.0000
     38 H10        2.7349    1.3853   11.3565 H         1 RES1    0.0000
     39 H11        0.9795    1.1367    9.8450 H         1 RES1    0.0000
     40 H12        6.5582    3.1081   10.1526 H         1 RES1    0.0000
     41 H13        5.7457    4.3868   10.6743 H         1 RES1    0.0000
     42 H14        7.7190    3.9961   11.9785 H         1 RES1    0.0000
     43 H15        7.0999    2.5842   12.4039 H         1 RES1    0.0000
     44 H16        5.9318    5.1097   13.0540 H         1 RES1    0.0000
     45 H17        5.2951    3.7048   13.4620 H         1 RES1    0.0000
     46 H18        7.8382    4.2572   14.4157 H         1 RES1    0.0000
     47 H19        6.6656    3.4189   15.1099 H         1 RES1    0.0000
     48 H20        6.6039    5.0173   15.0925 H         1 RES1    0.0000
     49 H21        2.8913    2.1668    3.4511 H         1 RES1    0.0000
     50 H22        3.3819    2.8950    4.6951 H         1 RES1    0.0000
     51 H23        2.2760    3.4988    3.7454 H         1 RES1    0.0000
     52 H24       -1.0912    2.8239    4.6416 H         1 RES1    0.0000
     53 H25       -2.8148    2.2556    3.1434 H         1 RES1    0.0000
     54 H26       -0.3264   -0.2131    1.1504 H         1 RES1    0.0000
     55 H27        1.4842    0.3019    2.7422 H         1 RES1    0.0000
     56 H28       -3.3613   -0.4795   -0.3745 H         1 RES1    0.0000
@<TRIPOS>BOND
     1    1    5 1
     2    2   14 1
     3    3   28 2
     4    4   28 1
     5    5    6 1
     6    6    7 1
     7    7    8 1
     8    8    9 1
     9    9    5 1
    10   10    6 1
    11   11    6 1
    12   12   11 ar
    13   13   12 ar
    14   14   13 ar
    15   15   14 ar
    16   16   11 ar
    17   17    2 1
    18   18   17 1
    19   19   18 1
    20   20   19 1
    21   21    9 1
    22   22    9 1
    23   23   22 ar
    24   24   23 ar
    25   25   24 ar
    26   26   25 ar
    27   27   22 ar
    28   28   25 1
    29   29    7 1
    30   30    7 1
    31   31    8 1
    32   32    8 1
    33   33   10 1
    34   34   10 1
    35   35   10 1
    36   36   12 1
    37   37   13 1
    38   38   15 1
    39   39   16 1
    40   40   17 1
    41   41   17 1
    42   42   18 1
    43   43   18 1
    44   44   19 1
    45   45   19 1
    46   46   20 1
    47   47   20 1
    48   48   20 1
    49   49   21 1
    50   50   21 1
    51   51   21 1
    52   52   23 1
    53   53   24 1
    54   54   26 1
    55   55   27 1
    56   56    4 1
    57   15   16 ar
    58   26   27 ar
@<TRIPOS>SUBSTRUCTURE
     1 RES1 1

@<TRIPOS>CRYSIN
   8.4879   17.7605   13.5429  90.0000  98.9950  90.0000  14 2

