# MOL2 file generated by ConQuest
# Please check atom types

@<TRIPOS>MOLECULE
PIVRAN
    31    35     1
SMALL
NO_CHARGES
****
Generated from CSD

@<TRIPOS>ATOM
      1 O1         2.4092    6.4370    3.7853 O.2       1 RES1    0.0000
      2 O2         3.1850    4.1351    0.7791 O.2       1 RES1    0.0000
      3 O3         0.4525    4.3687    4.0243 O.2       1 RES1    0.0000
      4 O4        -0.9017    4.7005    2.2843 O.3       1 RES1    0.0000
      5 O5        -1.7612    3.9115    0.2625 O.3       1 RES1    0.0000
      6 N1         1.2217    4.1884    1.8255 N.am      1 RES1    0.0000
      7 N2        -1.2303    2.5327    0.3685 N.3       1 RES1    0.0000
      8 C1         5.1498    4.3110    4.5424 C.3       1 RES1    0.0000
      9 C2         4.3412    5.5298    4.9901 C.3       1 RES1    0.0000
     10 C3         3.2025    5.5456    3.9548 C.2       1 RES1    0.0000
     11 C4         3.3776    4.2750    3.1481 C.3       1 RES1    0.0000
     12 C5         3.1419    3.0851    4.1201 C.3       1 RES1    0.0000
     13 C6         4.4186    3.0808    5.0129 C.3       1 RES1    0.0000
     14 C7         4.9478    4.2807    3.0028 C.3       1 RES1    0.0000
     15 C8         5.5484    3.0418    2.3470 C.3       1 RES1    0.0000
     16 C9         5.4662    5.5759    2.3125 C.3       1 RES1    0.0000
     17 C10        2.6186    4.2043    1.8489 C.2       1 RES1    0.0000
     18 C11        0.2885    4.4192    2.8478 C.2       1 RES1    0.0000
     19 C12       -0.8097    4.7134    0.8287 C.3       1 RES1    0.0000
     20 C13        0.5460    4.1207    0.5311 C.3       1 RES1    0.0000
     21 C14        0.2034    2.6784    0.0551 C.3       1 RES1    0.0000
     22 C15       -2.0721    1.7596   -0.5910 C.3       1 RES1    0.0000
     23 C16       -1.5423    0.3245   -0.5773 C.3       1 RES1    0.0000
     24 C17       -2.0559    2.3293   -2.0149 C.3       1 RES1    0.0000
     25 C18       -3.4760    1.7481   -0.0172 C.3       1 RES1    0.0000
     26 C19        1.0045    1.5880    0.7316 C.ar      1 RES1    0.0000
     27 C20        2.1589    1.1034    0.1212 C.ar      1 RES1    0.0000
     28 C21        2.9166    0.1010    0.7343 C.ar      1 RES1    0.0000
     29 C22        2.5029   -0.4024    1.9240 C.ar      1 RES1    0.0000
     30 C23        1.3810    0.0505    2.5440 C.ar      1 RES1    0.0000
     31 C24        0.6162    1.0702    1.9488 C.ar      1 RES1    0.0000
@<TRIPOS>BOND
     1    1   10 2
     2    2   17 2
     3    3   18 2
     4    4   18 1
     5    5    7 1
     6    6   17 1
     7    7   21 1
     8    8    9 1
     9    9   10 1
    10   10   11 1
    11   11   12 1
    12   12   13 1
    13   13    8 1
    14   14    8 1
    15   15   14 1
    16   16   14 1
    17   17   11 1
    18   18    6 1
    19   19    4 1
    20   20    6 1
    21   21   20 1
    22   22    7 1
    23   23   22 1
    24   24   22 1
    25   25   22 1
    26   26   21 1
    27   27   26 ar
    28   28   27 ar
    29   29   28 ar
    30   30   29 ar
    31   31   26 ar
    32    5   19 1
    33   11   14 1
    34   19   20 1
    35   30   31 ar
@<TRIPOS>SUBSTRUCTURE
     1 RES1 1

@<TRIPOS>CRYSIN
  11.4650   14.4230    6.9080  90.0000  94.2900  90.0000   4 1

