# MOL2 file generated by ConQuest
# Please check atom types

@<TRIPOS>MOLECULE
PIWBED
    42    38     2
SMALL
USER_CHARGES
****
Generated from CSD

@<TRIPOS>ATOM
      1 C1        -4.8334    0.0008   11.1064 C.2       1 RES1    0.0000
      2 N1        -6.0466    0.1347   11.6352 N.pl3     1 RES1    1.0000
      3 O1        -7.2200   -0.0465   11.2455 O.2       1 RES1   -1.0000
      4 C2        -3.9088    0.3704   12.1264 C.2       1 RES1    0.0000
      5 N2        -4.5374    0.6951   13.2373 N.2       1 RES1    0.0000
      6 O2        -5.8839    0.5685   13.0009 O.3       1 RES1    0.0000
      7 C3        -4.7302   -0.4618    9.6397 C.ar      1 RES1    0.0000
      8 C4        -5.5214   -1.4921    9.1479 C.ar      1 RES1    0.0000
      9 H1        -6.1665   -1.8994    9.7156 H         1 RES1    0.0000
     10 C5        -5.3830   -1.9299    7.8533 C.ar      1 RES1    0.0000
     11 H2        -5.9365   -2.6298    7.5250 H         1 RES1    0.0000
     12 C6        -4.4305   -1.3470    7.0197 C.ar      1 RES1    0.0000
     13 C7        -3.6456   -0.3103    7.4888 C.ar      1 RES1    0.0000
     14 H3        -3.0013    0.0986    6.9223 H         1 RES1    0.0000
     15 C8        -3.8098    0.1243    8.7904 C.ar      1 RES1    0.0000
     16 H4        -3.2777    0.8435    9.1100 H         1 RES1    0.0000
     17 O3        -4.3374   -1.8833    5.7656 O.3       1 RES1    0.0000
     18 C9        -3.2721   -1.4263    4.9247 C.3       1 RES1    0.0000
     19 H5        -3.3878   -0.4706    4.7404 H         1 RES1    0.0000
     20 H6        -3.2850   -1.9250    4.0798 H         1 RES1    0.0000
     21 H7        -2.4142   -1.5707    5.3779 H         1 RES1    0.0000
     22 C10       -2.4897    0.3504   12.0687 C.ar      1 RES1    0.0000
     23 C11       -1.8026    1.1513   12.9728 C.ar      1 RES1    0.0000
     24 H8        -2.2956    1.7198   13.5520 H         1 RES1    0.0000
     25 C12       -0.4248    1.1465   13.0527 C.ar      1 RES1    0.0000
     26 H9         0.0208    1.7062   13.6766 H         1 RES1    0.0000
     27 C13        0.3045    0.3167   12.2136 C.ar      1 RES1    0.0000
     28 C14       -0.3637   -0.4979   11.3011 C.ar      1 RES1    0.0000
     29 H10        0.1333   -1.0664   10.7239 H         1 RES1    0.0000
     30 C15       -1.7347   -0.4859   11.2304 C.ar      1 RES1    0.0000
     31 H11       -2.1782   -1.0495   10.6080 H         1 RES1    0.0000
     32 O4         1.6628    0.2396   12.2020 O.3       1 RES1    0.0000
     33 C16        2.3883    1.0864   13.0962 C.3       1 RES1    0.0000
     34 H12        2.1855    2.0237   12.8942 H         1 RES1    0.0000
     35 H13        3.3499    0.9293   12.9870 H         1 RES1    0.0000
     36 H14        2.1268    0.8868   14.0185 H         1 RES1    0.0000
     37 C17       -4.1803    0.1844   11.7729 Du        2 SUP2    0.0000
     38 N3        -4.8994    0.5212   12.8334 Du        2 SUP2    0.0000
     39 O5        -4.7160    0.8916   14.0214 Du        2 SUP2    0.0000
     40 C18       -5.0878   -0.1363   10.7297 Du        2 SUP2    0.0000
     41 N4        -6.3560   -0.0401   11.1586 Du        2 SUP2    0.0000
     42 O6        -6.2827    0.3768   12.4625 Du        2 SUP2    0.0000
@<TRIPOS>BOND
     1    1    2 2
     2    2    3 1
     3    4    1 1
     4    5    4 2
     5    6    2 1
     6    7    1 1
     7    8    7 ar
     8    9    8 1
     9   10    8 ar
    10   11   10 1
    11   12   10 ar
    12   13   12 ar
    13   14   13 1
    14   15    7 ar
    15   16   15 1
    16   17   12 1
    17   18   17 1
    18   19   18 1
    19   20   18 1
    20   21   18 1
    21   22    4 1
    22   23   22 ar
    23   24   23 1
    24   25   23 ar
    25   26   25 1
    26   27   25 ar
    27   28   27 ar
    28   29   28 1
    29   30   22 ar
    30   31   30 1
    31   32   27 1
    32   33   32 1
    33   34   33 1
    34   35   33 1
    35   36   33 1
    36    5    6 1
    37   13   15 ar
    38   28   30 ar
@<TRIPOS>SUBSTRUCTURE
     1 RES1 1
     2 SUP2 37

@<TRIPOS>CRYSIN
  12.2302    8.0177   28.9758  90.0000  90.0000  90.0000  61 1

