# MOL2 file generated by ConQuest
# Please check atom types

@<TRIPOS>MOLECULE
PIWDUU
    39    41     1
SMALL
NO_CHARGES
****
Generated from CSD

@<TRIPOS>ATOM
      1 O1         5.8731    0.1168    3.8451 O.2       1 RES1    0.0000
      2 O2         6.3365   -0.3760    1.8636 O.2       1 RES1    0.0000
      3 N1         7.6396    3.1187    2.0164 N.3       1 RES1    0.0000
      4 N2         5.9742    0.4089    2.6956 N.pl3     1 RES1    0.0000
      5 C1         7.3483    2.3694    0.7824 C.3       1 RES1    0.0000
      6 C2         5.8737    2.0691    0.8307 C.3       1 RES1    0.0000
      7 C3         5.6254    1.8391    2.2964 C.3       1 RES1    0.0000
      8 C4         6.5695    2.8129    3.0078 C.3       1 RES1    0.0000
      9 C5         5.9950    4.1601    3.5022 C.3       1 RES1    0.0000
     10 C6         7.1566    5.1038    3.1351 C.3       1 RES1    0.0000
     11 C7         7.6470    4.5653    1.8422 C.3       1 RES1    0.0000
     12 C8         5.6048    4.2167    5.0014 C.3       1 RES1    0.0000
     13 C9         4.8721    5.5593    5.0670 C.3       1 RES1    0.0000
     14 C10        4.1427    5.7190    3.7460 C.3       1 RES1    0.0000
     15 C11        4.7253    4.6657    2.8028 C.3       1 RES1    0.0000
     16 C12        6.7804    4.1656    5.9714 C.3       1 RES1    0.0000
     17 C13        4.6446    3.0849    5.3484 C.3       1 RES1    0.0000
     18 H1         7.4000    4.8647    5.7878 H         1 RES1    0.0000
     19 H2         6.4456    4.2623    6.8596 H         1 RES1    0.0000
     20 H3         7.2099    3.3222    5.8816 H         1 RES1    0.0000
     21 H4         3.9004    3.0941    4.7562 H         1 RES1    0.0000
     22 H5         5.0986    2.2544    5.2653 H         1 RES1    0.0000
     23 H6         4.3343    3.1945    6.2433 H         1 RES1    0.0000
     24 H7         5.5168    6.2520    5.1581 H         1 RES1    0.0000
     25 H8         4.2816    5.5857    5.8146 H         1 RES1    0.0000
     26 H9         3.2136    5.5583    3.8853 H         1 RES1    0.0000
     27 H10        4.2626    6.5897    3.3762 H         1 RES1    0.0000
     28 H11        4.1113    3.9520    2.6929 H         1 RES1    0.0000
     29 H12        4.9359    5.0472    1.9561 H         1 RES1    0.0000
     30 H13        7.8491    5.0564    3.7782 H         1 RES1    0.0000
     31 H14        6.8589    5.9964    3.0547 H         1 RES1    0.0000
     32 H15        8.5164    4.8829    1.6211 H         1 RES1    0.0000
     33 H16        7.0389    4.8099    1.1522 H         1 RES1    0.0000
     34 H17        7.8508    1.5607    0.7503 H         1 RES1    0.0000
     35 H18        7.5635    2.9024    0.0268 H         1 RES1    0.0000
     36 H19        5.3686    2.8111    0.5225 H         1 RES1    0.0000
     37 H20        5.6468    1.2960    0.3215 H         1 RES1    0.0000
     38 H21        4.7109    1.9897    2.5188 H         1 RES1    0.0000
     39 H22        6.8393    2.3730    3.8050 H         1 RES1    0.0000
@<TRIPOS>BOND
     1    1    4 2
     2    2    4 2
     3    3    5 1
     4    4    7 1
     5    5    6 1
     6    6    7 1
     7    7    8 1
     8    8    3 1
     9    9    8 1
    10   10    9 1
    11   11    3 1
    12   12    9 1
    13   13   12 1
    14   14   13 1
    15   15    9 1
    16   16   12 1
    17   17   12 1
    18   18   16 1
    19   19   16 1
    20   20   16 1
    21   21   17 1
    22   22   17 1
    23   23   17 1
    24   24   13 1
    25   25   13 1
    26   26   14 1
    27   27   14 1
    28   28   15 1
    29   29   15 1
    30   30   10 1
    31   31   10 1
    32   32   11 1
    33   33   11 1
    34   34    5 1
    35   35    5 1
    36   36    6 1
    37   37    6 1
    38   38    7 1
    39   39    8 1
    40   10   11 1
    41   14   15 1
@<TRIPOS>SUBSTRUCTURE
     1 RES1 1

@<TRIPOS>CRYSIN
  10.6500    9.1270   14.0840  90.0000 107.9600  90.0000  14 2

