# MOL2 file generated by ConQuest
# Please check atom types

@<TRIPOS>MOLECULE
PIWYAV
    71    67     2
SMALL
NO_CHARGES
****
Generated from CSD

@<TRIPOS>ATOM
      1 O1         3.8364   13.6177   11.8900 O.2       1 RES1    0.0000
      2 O2         2.8571   14.5504   13.4991 O.2       1 RES1    0.0000
      3 O3        -0.6638    9.3825   12.9181 O.3       1 RES1    0.0000
      4 O4        -0.6464    9.2845   15.1734 O.2       1 RES1    0.0000
      5 N1         2.9221   13.6716   12.6804 N.pl3     1 RES1    0.0000
      6 N2         4.2801    7.0836   10.3984 N.3       1 RES1    0.0000
      7 N3         2.5074    7.0193    8.7404 N.3       1 RES1    0.0000
      8 C1         1.9327   12.5774   12.6923 C.ar      1 RES1    0.0000
      9 C2         0.8656   12.6769   13.5525 C.ar      1 RES1    0.0000
     10 C3        -0.0225   11.6128   13.6491 C.ar      1 RES1    0.0000
     11 C4         0.1849   10.4941   12.8780 C.ar      1 RES1    0.0000
     12 C5         1.2360   10.4208   11.9822 C.ar      1 RES1    0.0000
     13 C6         2.1241   11.4690   11.8900 C.ar      1 RES1    0.0000
     14 C7        -0.9226    8.7787   14.1156 C.2       1 RES1    0.0000
     15 C8        -1.6442    7.4937   13.9641 C.ar      1 RES1    0.0000
     16 C9        -2.5338    7.1915   14.9937 C.ar      1 RES1    0.0000
     17 C10       -3.2865    6.0406   14.9506 C.ar      1 RES1    0.0000
     18 C11       -3.1587    5.1877   13.8734 C.ar      1 RES1    0.0000
     19 C12       -2.2571    5.4405   12.8409 C.ar      1 RES1    0.0000
     20 C13       -1.4701    6.6065   12.8721 C.ar      1 RES1    0.0000
     21 C14       -2.1342    4.4408   11.7162 C.3       1 RES1    0.0000
     22 C15       -0.4369    6.8299   11.8098 C.ar      1 RES1    0.0000
     23 C16       -0.7810    7.0985   10.4816 C.ar      1 RES1    0.0000
     24 C17        0.1794    7.2104    9.4996 C.ar      1 RES1    0.0000
     25 C18        1.5368    7.0440    9.8101 C.ar      1 RES1    0.0000
     26 C19        1.9219    6.8349   11.1398 C.ar      1 RES1    0.0000
     27 C20        0.9146    6.7127   12.1188 C.ar      1 RES1    0.0000
     28 C21        3.3945    6.7545   11.5305 C.3       1 RES1    0.0000
     29 C22        3.7550    6.4146    9.2128 C.3       1 RES1    0.0000
     30 C23        2.8118    8.3621    8.2085 C.3       1 RES1    0.0000
     31 C24        5.5473   10.5738   10.6866 C.ar      1 RES1    0.0000
     32 C25        5.2856    9.2583   10.9704 C.ar      1 RES1    0.0000
     33 C26        4.4298    8.4955   10.1592 C.ar      1 RES1    0.0000
     34 C27        3.8064    9.1130    9.0791 C.ar      1 RES1    0.0000
     35 C28        4.0991   10.4634    8.8132 C.ar      1 RES1    0.0000
     36 C29        4.9752   11.2105    9.5857 C.ar      1 RES1    0.0000
     37 C30        5.2963   12.6484    9.2752 C.3       1 RES1    0.0000
     38 C31        0.7056    1.3767    5.6962 Du        2 SUP2    0.0000
     39 C32       -0.0537    0.4383    6.0616 Du        2 SUP2    0.0000
     40 C33       -0.4643   -0.1326    6.0215 Du        2 SUP2    0.0000
     41 C34       -0.6099    0.1172    7.0957 Du        2 SUP2    0.0000
     42 C35       -1.0920    0.0534    7.9411 Du        2 SUP2    0.0000
     43 C36       -0.7419    0.7498    8.4922 Du        2 SUP2    0.0000
     44 C37       -0.2335    1.6869    8.6037 Du        2 SUP2    0.0000
     45 C38       -0.2509    1.2471    7.8475 Du        2 SUP2    0.0000
     46 C39        0.1754    1.2963    6.7079 Du        2 SUP2    0.0000
     47 H1         0.7081   13.4985   14.0235 H         1 RES1    0.0000
     48 H2        -0.7438   11.6421   14.2820 H         1 RES1    0.0000
     49 H3         1.3952    9.6257   11.4681 H         1 RES1    0.0000
     50 H4         2.8458   11.4598   11.2571 H         1 RES1    0.0000
     51 H5        -2.6281    7.7964   15.7335 H         1 RES1    0.0000
     52 H6        -3.8618    5.8406   15.6919 H         1 RES1    0.0000
     53 H7        -3.7142    4.4069   13.8051 H         1 RES1    0.0000
     54 H8        -2.7354    3.7075   11.8648 H         1 RES1    0.0000
     55 H9        -2.3540    4.8707   10.8857 H         1 RES1    0.0000
     56 H10       -1.2325    4.1122   11.6776 H         1 RES1    0.0000
     57 H11       -1.7061    7.2119   10.2528 H         1 RES1    0.0000
     58 H12       -0.0722    7.4222    8.5977 H         1 RES1    0.0000
     59 H13        1.1662    6.5677   13.0340 H         1 RES1    0.0000
     60 H14        3.5552    7.3720   12.2481 H         1 RES1    0.0000
     61 H15        3.6012    5.8719   11.8470 H         1 RES1    0.0000
     62 H16        3.6014    5.4922    9.4312 H         1 RES1    0.0000
     63 H17        4.4052    6.4510    8.5071 H         1 RES1    0.0000
     64 H18        2.0123    8.8887    8.1357 H         1 RES1    0.0000
     65 H19        3.1829    8.2650    7.3275 H         1 RES1    0.0000
     66 H20        6.1382   11.0656   11.2616 H         1 RES1    0.0000
     67 H21        5.6626    8.8227   11.7385 H         1 RES1    0.0000
     68 H22        3.5996   10.8655    8.0985 H         1 RES1    0.0000
     69 H23        4.8482   12.9969    8.5012 H         1 RES1    0.0000
     70 H24        5.0713   13.1816   10.0418 H         1 RES1    0.0000
     71 H25        6.2452   12.6733    9.1341 H         1 RES1    0.0000
@<TRIPOS>BOND
     1    1    5 2
     2    2    5 2
     3    3   11 1
     4    4   14 2
     5    5    8 1
     6    6   28 1
     7    7   25 1
     8    8    9 ar
     9    9   10 ar
    10   10   11 ar
    11   11   12 ar
    12   12   13 ar
    13   13    8 ar
    14   14    3 1
    15   15   14 1
    16   16   15 ar
    17   17   16 ar
    18   18   17 ar
    19   19   18 ar
    20   20   15 ar
    21   21   19 1
    22   22   20 1
    23   23   22 ar
    24   24   23 ar
    25   25   24 ar
    26   26   25 ar
    27   27   22 ar
    28   28   26 1
    29   29    6 1
    30   30    7 1
    31   31   32 ar
    32   32   33 ar
    33   33    6 1
    34   34   30 1
    35   35   34 ar
    36   36   31 ar
    37   37   36 1
    38   47    9 1
    39   48   10 1
    40   49   12 1
    41   50   13 1
    42   51   16 1
    43   52   17 1
    44   53   18 1
    45   54   21 1
    46   55   21 1
    47   56   21 1
    48   57   23 1
    49   58   24 1
    50   59   27 1
    51   60   28 1
    52   61   28 1
    53   62   29 1
    54   63   29 1
    55   64   30 1
    56   65   30 1
    57   66   31 1
    58   67   32 1
    59   68   35 1
    60   69   37 1
    61   70   37 1
    62   71   37 1
    63    7   29 1
    64   19   20 ar
    65   26   27 ar
    66   33   34 ar
    67   35   36 ar
@<TRIPOS>SUBSTRUCTURE
     1 RES1 1
     2 SUP2 38

@<TRIPOS>CRYSIN
   8.8730   10.5890   15.3000  76.2300  87.9900  86.4600   2 1

