# MOL2 file generated by ConQuest
# Please check atom types

@<TRIPOS>MOLECULE
PIXMAL
    53    56     1
SMALL
NO_CHARGES
****
Generated from CSD

@<TRIPOS>ATOM
      1 O1         0.4288    3.9155    8.7077 O.2       1 RES1    0.0000
      2 O2        -0.9024    5.5746    8.8296 O.2       1 RES1    0.0000
      3 N1        -0.2096    4.8114    8.2012 N.pl3     1 RES1    0.0000
      4 C1         1.1595    4.7824    6.0743 C.3       1 RES1    0.0000
      5 C2        -1.8013    4.5819    4.8107 C.ar      1 RES1    0.0000
      6 C3        -1.2595    4.2266    3.5785 C.ar      1 RES1    0.0000
      7 C4        -0.7229    2.6076    6.0291 C.2       1 RES1    0.0000
      8 C5         2.1404    5.8207    6.5669 C.ar      1 RES1    0.0000
      9 C6         1.6797    3.3238    6.1109 C.3       1 RES1    0.0000
     10 C7         0.5677    2.3338    6.0221 C.2       1 RES1    0.0000
     11 C8        -2.6770    5.7986    2.4611 C.ar      1 RES1    0.0000
     12 C9         2.1982    7.0250    5.9438 C.ar      1 RES1    0.0000
     13 C10        1.1914    2.1403    1.6935 C.ar      1 RES1    0.0000
     14 C11       -1.2906    3.9943    6.1318 C.3       1 RES1    0.0000
     15 C12       -3.2230    6.1235    3.6725 C.ar      1 RES1    0.0000
     16 C13        2.3000    3.1219    3.6133 C.ar      1 RES1    0.0000
     17 C14        1.6443    2.0822    2.9884 C.ar      1 RES1    0.0000
     18 C15        3.8960    6.5604    8.0254 C.ar      1 RES1    0.0000
     19 C16        3.0091    5.6147    7.6182 C.ar      1 RES1    0.0000
     20 C17        2.4630    4.2944    2.8353 C.ar      1 RES1    0.0000
     21 C18        2.7529    3.0500    5.0300 C.3       1 RES1    0.0000
     22 C19       -2.7908    5.5553    4.8351 C.ar      1 RES1    0.0000
     23 C20       -1.6883    4.8488    2.4210 C.ar      1 RES1    0.0000
     24 C21        3.9443    7.7744    7.3815 C.ar      1 RES1    0.0000
     25 C22       -0.2217    4.9649    6.7096 C.3       1 RES1    0.0000
     26 C23        2.0248    4.3607    1.5438 C.ar      1 RES1    0.0000
     27 C24        1.3734    3.2823    0.9625 C.ar      1 RES1    0.0000
     28 C25        3.0936    8.0205    6.3337 C.ar      1 RES1    0.0000
     29 O3        -2.8478    1.5775    5.9281 O.2       1 RES1    0.0000
     30 C26       -1.6771    1.4835    5.9769 C.2       1 RES1    0.0000
     31 H1         0.9613    4.9722    5.0812 H         1 RES1    0.0000
     32 H2        -0.6022    3.5988    3.6032 H         1 RES1    0.0000
     33 H3        -2.0788    3.8398    6.8584 H         1 RES1    0.0000
     34 H4         3.5892    3.7615    4.8348 H         1 RES1    0.0000
     35 H5         1.6331    7.1374    5.0318 H         1 RES1    0.0000
     36 H6         2.2952    2.9917    7.0104 H         1 RES1    0.0000
     37 H7         3.1344    2.2628    5.3541 H         1 RES1    0.0000
     38 H8        -1.2835    4.6446    1.5454 H         1 RES1    0.0000
     39 H9        -3.0145    6.2106    1.6542 H         1 RES1    0.0000
     40 H10       -3.9438    6.7640    3.6728 H         1 RES1    0.0000
     41 H11       -3.2239    5.8364    5.6996 H         1 RES1    0.0000
     42 H12        3.0880    8.8890    5.9043 H         1 RES1    0.0000
     43 H13        4.5544    6.3478    8.7173 H         1 RES1    0.0000
     44 H14        2.9391    4.7944    8.0669 H         1 RES1    0.0000
     45 H15        2.9470    5.0614    3.2149 H         1 RES1    0.0000
     46 H16        2.1799    5.1641    0.9674 H         1 RES1    0.0000
     47 H17        0.9934    3.2947    0.0172 H         1 RES1    0.0000
     48 H18        0.7377    1.3244    1.3388 H         1 RES1    0.0000
     49 H19        1.4681    1.2662    3.4608 H         1 RES1    0.0000
     50 H20       -1.2983    0.5745    5.9593 H         1 RES1    0.0000
     51 H21        4.5513    8.4749    7.6944 H         1 RES1    0.0000
     52 H22        0.8254    1.4169    5.8872 H         1 RES1    0.0000
     53 H23       -0.5518    5.8642    6.4846 H         1 RES1    0.0000
@<TRIPOS>BOND
     1    1    3 2
     2    2    3 2
     3    3   25 1
     4    4    8 1
     5    5    6 ar
     6    6   23 ar
     7    7   10 2
     8    8   12 ar
     9    9    4 1
    10   10    9 1
    11   11   15 ar
    12   12   28 ar
    13   13   17 ar
    14   14    5 1
    15   15   22 ar
    16   16   17 ar
    17   17   49 1
    18   18   19 ar
    19   19    8 ar
    20   20   16 ar
    21   21    9 1
    22   22    5 ar
    23   23   11 ar
    24   24   18 ar
    25   25    4 1
    26   26   20 ar
    27   27   13 ar
    28   28   24 ar
    29   29   30 2
    30   30    7 1
    31   31    4 1
    32   32    6 1
    33   33   14 1
    34   34   21 1
    35   35   12 1
    36   36    9 1
    37   37   21 1
    38   38   23 1
    39   39   11 1
    40   40   15 1
    41   41   22 1
    42   42   28 1
    43   43   18 1
    44   44   19 1
    45   45   20 1
    46   46   26 1
    47   47   27 1
    48   48   13 1
    49   50   30 1
    50   51   24 1
    51   52   10 1
    52   53   25 1
    53    7   14 1
    54   14   25 1
    55   16   21 1
    56   26   27 ar
@<TRIPOS>SUBSTRUCTURE
     1 RES1 1

@<TRIPOS>CRYSIN
   8.6270   13.8260   17.4050  90.0000  90.0000  90.0000  19 1

