# MOL2 file generated by ConQuest
# Please check atom types

@<TRIPOS>MOLECULE
PIXNAP
    24    26     1
SMALL
NO_CHARGES
****
Generated from CSD

@<TRIPOS>ATOM
      1 C1         1.6617    3.0554    3.9614 C.ar      1 RES1    0.0000
      2 C2         0.7295    6.7866    4.4037 C.ar      1 RES1    0.0000
      3 C3         1.3105    1.9290    3.0383 C.2       1 RES1    0.0000
      4 C4         1.8103   -0.2112    2.0192 C.3       1 RES1    0.0000
      5 C5         1.7023   -1.5910    2.7691 C.3       1 RES1    0.0000
      6 C6         1.2699   -2.6893    1.6922 C.3       1 RES1    0.0000
      7 C7         1.4591   -4.1818    2.3653 C.3       1 RES1    0.0000
      8 C8        -0.0270   -2.3936    0.8461 C.3       1 RES1    0.0000
      9 C9         3.2289   -1.3376    0.0961 C.3       1 RES1    0.0000
     10 C10        4.7690   -1.8586   -0.3077 C.3       1 RES1    0.0000
     11 C11        2.4858   -0.7040   -1.1153 C.3       1 RES1    0.0000
     12 C12        2.7290    2.9005    5.1152 C.ar      1 RES1    0.0000
     13 C13        3.2964   -0.2534    1.3076 C.3       1 RES1    0.0000
     14 C14        2.9317    4.1114    5.9036 C.ar      1 RES1    0.0000
     15 C15        2.5399    5.3082    5.5959 C.ar      1 RES1    0.0000
     16 C16        1.3375    5.5194    4.5767 C.ar      1 RES1    0.0000
     17 C17        0.9052    4.2944    3.8652 C.ar      1 RES1    0.0000
     18 C18       -0.0135    4.4774    2.8076 C.ar      1 RES1    0.0000
     19 C19       -0.7025    5.8432    2.6922 C.ar      1 RES1    0.0000
     20 C20       -0.3783    6.8992    3.5768 C.ar      1 RES1    0.0000
     21 N1         2.0400    0.7603    3.2306 N.2       1 RES1    0.0000
     22 N2         2.4858   -2.6893    0.5769 N.3       1 RES1    0.0000
     23 O1         3.3640    1.7741    5.2690 O.3       1 RES1    0.0000
     24 O2         2.4588   -3.7030   -0.2115 O.2       1 RES1    0.0000
@<TRIPOS>BOND
     1    1    3 1
     2    2   16 ar
     3    3   21 2
     4    4    5 1
     5    5    6 1
     6    6    7 1
     7    8    6 1
     8    9   10 1
     9   11    9 1
    10   12    1 ar
    11   13    4 1
    12   14   12 ar
    13   15   14 ar
    14   16   15 ar
    15   17    1 ar
    16   18   17 ar
    17   19   18 ar
    18   20    2 ar
    19   21    4 1
    20   22    6 1
    21   23   12 1
    22   24   22 1
    23    9   13 1
    24    9   22 1
    25   16   17 ar
    26   19   20 ar
@<TRIPOS>SUBSTRUCTURE
     1 RES1 1

@<TRIPOS>CRYSIN
  13.5100   14.0800   19.2300  90.0000  90.0000  90.0000  61 1

