# MOL2 file generated by ConQuest
# Please check atom types

@<TRIPOS>MOLECULE
PIXTEX
    86    88     1
SMALL
NO_CHARGES
****
Generated from CSD

@<TRIPOS>ATOM
      1 C1         0.3055    2.1506    1.9598 C.3       1 RES1    0.0000
      2 H1         0.0819    2.3578    2.8915 H         1 RES1    0.0000
      3 C2        -0.9825    6.3199    4.9569 C.ar      1 RES1    0.0000
      4 C3        -1.1368    6.5499    3.6032 C.ar      1 RES1    0.0000
      5 H2        -1.7728    7.1508    3.2886 H         1 RES1    0.0000
      6 C4        -0.3189    5.8608    2.7340 C.ar      1 RES1    0.0000
      7 H3        -0.4054    5.9968    1.8182 H         1 RES1    0.0000
      8 C5         0.6310    4.9681    3.2044 C.ar      1 RES1    0.0000
      9 C6         0.7456    4.7615    4.5672 C.ar      1 RES1    0.0000
     10 H4         1.3783    4.1601    4.8886 H         1 RES1    0.0000
     11 C7         1.5015    4.2486    2.2072 C.3       1 RES1    0.0000
     12 H5         1.9982    4.8961    1.6826 H         1 RES1    0.0000
     13 H6         2.1393    3.6885    2.6772 H         1 RES1    0.0000
     14 C8         1.4375    1.1178    1.9980 C.3       1 RES1    0.0000
     15 H7         2.2167    1.5118    2.3962 H         1 RES1    0.0000
     16 H8         1.6426    0.8345    1.1037 H         1 RES1    0.0000
     17 H9         1.1609    0.3595    2.5180 H         1 RES1    0.0000
     18 C9        -0.9425    1.5203    1.3371 C.3       1 RES1    0.0000
     19 H10       -1.0428    0.6330    1.7160 H         1 RES1    0.0000
     20 H11       -0.7721    1.4069    0.3892 H         1 RES1    0.0000
     21 C10        1.2491    3.2801   -0.0175 C.3       1 RES1    0.0000
     22 H12        0.6697    2.7001   -0.5356 H         1 RES1    0.0000
     23 H13        2.1121    2.8424    0.0550 H         1 RES1    0.0000
     24 C11        1.4303    4.5799   -0.7734 C.3       1 RES1    0.0000
     25 H14        2.1995    5.0500   -0.4148 H         1 RES1    0.0000
     26 H15        1.6117    4.3809   -1.7052 H         1 RES1    0.0000
     27 C12        0.3272    6.6900   -1.4823 C.3       1 RES1    0.0000
     28 C13        1.3921    7.6005   -0.8555 C.3       1 RES1    0.0000
     29 H16        2.2533    7.1826   -0.9278 H         1 RES1    0.0000
     30 H17        1.1845    7.7452    0.0708 H         1 RES1    0.0000
     31 H18        1.4049    8.4421   -1.3160 H         1 RES1    0.0000
     32 C14        0.6573    6.4604   -2.9604 C.3       1 RES1    0.0000
     33 H19       -0.0098    5.8937   -3.3534 H         1 RES1    0.0000
     34 H20        1.5181    6.0411   -3.0350 H         1 RES1    0.0000
     35 H21        0.6719    7.3034   -3.4193 H         1 RES1    0.0000
     36 C15       -0.0684    5.4369    5.4579 C.ar      1 RES1    0.0000
     37 H22        0.0046    5.2938    6.3737 H         1 RES1    0.0000
     38 N1        -1.8126    7.0835    5.8955 N.pl3     1 RES1    0.0000
     39 N2         0.6865    3.4233    1.3207 N.3       1 RES1    0.0000
     40 N3         0.2637    5.4472   -0.6919 N.3       1 RES1    0.0000
     41 O1        -2.4064    8.0564    5.4756 O.2       1 RES1    0.0000
     42 O2        -1.8641    6.7205    7.0463 O.2       1 RES1    0.0000
     43 H23       -0.4531    4.9941   -0.9376 H         1 RES1    0.0000
     44 C1A       -2.2645    6.7804   -1.9598 C.3       1 RES1    0.0000
     45 H1A       -2.0409    6.5731   -2.8915 H         1 RES1    0.0000
     46 C2A       -0.9765    2.6111   -4.9569 C.ar      1 RES1    0.0000
     47 C3A       -0.8223    2.3811   -3.6032 C.ar      1 RES1    0.0000
     48 H2A       -0.1862    1.7801   -3.2886 H         1 RES1    0.0000
     49 C4A       -1.6401    3.0702   -2.7340 C.ar      1 RES1    0.0000
     50 H3A       -1.5536    2.9342   -1.8182 H         1 RES1    0.0000
     51 C5A       -2.5900    3.9628   -3.2044 C.ar      1 RES1    0.0000
     52 C6A       -2.7047    4.1695   -4.5672 C.ar      1 RES1    0.0000
     53 H4A       -3.3373    4.7709   -4.8886 H         1 RES1    0.0000
     54 C7A       -3.4605    4.6824   -2.2072 C.3       1 RES1    0.0000
     55 H5A       -3.9573    4.0348   -1.6826 H         1 RES1    0.0000
     56 H6A       -4.0983    5.2425   -2.6772 H         1 RES1    0.0000
     57 C8A       -3.3966    7.8132   -1.9980 C.3       1 RES1    0.0000
     58 H7A       -4.1757    7.4192   -2.3962 H         1 RES1    0.0000
     59 H8A       -3.6017    8.0964   -1.1037 H         1 RES1    0.0000
     60 H9A       -3.1200    8.5715   -2.5180 H         1 RES1    0.0000
     61 C9A       -1.0166    7.4107   -1.3371 C.3       1 RES1    0.0000
     62 H10A      -0.9163    8.2980   -1.7160 H         1 RES1    0.0000
     63 H11A      -1.1870    7.5241   -0.3892 H         1 RES1    0.0000
     64 C10A      -3.2081    5.6509    0.0175 C.3       1 RES1    0.0000
     65 H12A      -2.6287    6.2309    0.5356 H         1 RES1    0.0000
     66 H13A      -4.0711    6.0886   -0.0550 H         1 RES1    0.0000
     67 C11A      -3.3893    4.3510    0.7734 C.3       1 RES1    0.0000
     68 H14A      -4.1586    3.8810    0.4148 H         1 RES1    0.0000
     69 H15A      -3.5707    4.5501    1.7052 H         1 RES1    0.0000
     70 C12A      -2.2862    2.2409    1.4823 C.3       1 RES1    0.0000
     71 C13A      -3.3511    1.3305    0.8555 C.3       1 RES1    0.0000
     72 H16A      -4.2123    1.7484    0.9278 H         1 RES1    0.0000
     73 H17A      -3.1435    1.1857   -0.0708 H         1 RES1    0.0000
     74 H18A      -3.3640    0.4889    1.3160 H         1 RES1    0.0000
     75 C14A      -2.6164    2.4706    2.9604 C.3       1 RES1    0.0000
     76 H19A      -1.9492    3.0373    3.3534 H         1 RES1    0.0000
     77 H20A      -3.4771    2.8899    3.0350 H         1 RES1    0.0000
     78 H21A      -2.6309    1.6276    3.4193 H         1 RES1    0.0000
     79 C15A      -1.8906    3.4941   -5.4579 C.ar      1 RES1    0.0000
     80 H22A      -1.9636    3.6372   -6.3737 H         1 RES1    0.0000
     81 N1A       -0.1464    1.8475   -5.8955 N.pl3     1 RES1    0.0000
     82 N2A       -2.6455    5.5077   -1.3207 N.3       1 RES1    0.0000
     83 N3A       -2.2228    3.4838    0.6919 N.3       1 RES1    0.0000
     84 O1A        0.4473    0.8745   -5.4756 O.2       1 RES1    0.0000
     85 O2A       -0.0950    2.2105   -7.0463 O.2       1 RES1    0.0000
     86 H23A      -1.5059    3.9369    0.9376 H         1 RES1    0.0000
@<TRIPOS>BOND
     1    1    2 1
     2    3    4 ar
     3    4    5 1
     4    6    4 ar
     5    7    6 1
     6    8    6 ar
     7    9    8 ar
     8   10    9 1
     9   11    8 1
    10   12   11 1
    11   13   11 1
    12   14    1 1
    13   15   14 1
    14   16   14 1
    15   17   14 1
    16   18    1 1
    17   19   18 1
    18   20   18 1
    19   21   22 1
    20   23   21 1
    21   24   21 1
    22   25   24 1
    23   26   24 1
    24   27   28 1
    25   28   29 1
    26   30   28 1
    27   31   28 1
    28   32   27 1
    29   33   32 1
    30   34   32 1
    31   35   32 1
    32   36    3 ar
    33   37   36 1
    34   38    3 1
    35   39    1 1
    36   40   24 1
    37   41   38 2
    38   42   38 2
    39   43   40 1
    40   44   45 1
    41   46   47 ar
    42   47   48 1
    43   49   47 ar
    44   50   49 1
    45   51   49 ar
    46   52   51 ar
    47   53   52 1
    48   54   51 1
    49   55   54 1
    50   56   54 1
    51   57   44 1
    52   58   57 1
    53   59   57 1
    54   60   57 1
    55   61   27 1
    56   62   61 1
    57   63   61 1
    58   64   65 1
    59   66   64 1
    60   67   64 1
    61   68   67 1
    62   69   67 1
    63   70   18 1
    64   71   70 1
    65   72   71 1
    66   73   71 1
    67   74   71 1
    68   75   70 1
    69   76   75 1
    70   77   75 1
    71   78   75 1
    72   79   46 ar
    73   80   79 1
    74   81   46 1
    75   82   44 1
    76   83   67 1
    77   84   81 2
    78   85   81 2
    79   86   83 1
    80    9   36 ar
    81   11   39 1
    82   21   39 1
    83   27   40 1
    84   44   61 1
    85   52   79 ar
    86   54   82 1
    87   64   82 1
    88   70   83 1
@<TRIPOS>SUBSTRUCTURE
     1 RES1 1

@<TRIPOS>CRYSIN
   8.6407    9.1433   11.0008 107.7420 104.8980 102.3720   2 1

