# MOL2 file generated by ConQuest
# Please check atom types

@<TRIPOS>MOLECULE
PIXVUP
    22    23     1
SMALL
NO_CHARGES
****
Generated from CSD

@<TRIPOS>ATOM
      1 C1         9.1859    1.6736    7.6792 C.ar      1 RES1    0.0000
      2 C2         9.4387    2.6267    6.7062 C.ar      1 RES1    0.0000
      3 C3        10.7364    3.1551    6.6091 C.ar      1 RES1    0.0000
      4 H1        10.9457    3.7951    5.9671 H         1 RES1    0.0000
      5 C4        11.6829    2.6991    7.4870 C.ar      1 RES1    0.0000
      6 H2        12.5496    3.0312    7.4309 H         1 RES1    0.0000
      7 C5        11.3832    1.7516    8.4602 C.ar      1 RES1    0.0000
      8 H3        12.0512    1.4782    9.0457 H         1 RES1    0.0000
      9 C6        10.1250    1.2091    8.5790 C.ar      1 RES1    0.0000
     10 H4         9.9203    0.5705    9.2228 H         1 RES1    0.0000
     11 C7         8.1994    2.8126    6.0118 C.2       1 RES1    0.0000
     12 H5         8.0442    3.3945    5.3032 H         1 RES1    0.0000
     13 C8         7.3001    1.9825    6.5813 C.2       1 RES1    0.0000
     14 C9         5.8954    1.6594    6.3842 C.2       1 RES1    0.0000
     15 C10        5.2847    0.6069    7.2532 C.3       1 RES1    0.0000
     16 H6         4.3698    0.4711    6.9964 H         1 RES1    0.0000
     17 H7         5.3207    0.8888    8.1693 H         1 RES1    0.0000
     18 H8         5.7717   -0.2143    7.1512 H         1 RES1    0.0000
     19 N1         5.1079    2.2185    5.5328 N.2       1 RES1    0.0000
     20 O1         7.8823    1.2611    7.6164 O.3       1 RES1    0.0000
     21 O2         5.7367    3.2029    4.7621 O.3       1 RES1    0.0000
     22 H9         5.1685    3.6726    4.4026 H         1 RES1    0.0000
@<TRIPOS>BOND
     1    1    2 ar
     2    2    3 ar
     3    3    4 1
     4    5    3 ar
     5    6    5 1
     6    7    5 ar
     7    8    7 1
     8    9    1 ar
     9   10    9 1
    10   11    2 1
    11   12   11 1
    12   13   11 2
    13   14   13 1
    14   15   14 1
    15   16   15 1
    16   17   15 1
    17   18   15 1
    18   19   14 2
    19   20    1 1
    20   21   19 1
    21   22   21 1
    22    7    9 ar
    23   13   20 1
@<TRIPOS>SUBSTRUCTURE
     1 RES1 1

@<TRIPOS>CRYSIN
   9.5727    4.7303   18.7560  90.0000  96.1780  90.0000  14 1

