# MOL2 file generated by ConQuest
# Please check atom types

@<TRIPOS>MOLECULE
PIYSOG
    90    78     2
SMALL
NO_CHARGES
****
Generated from CSD

@<TRIPOS>ATOM
      1 O1         0.2987    5.6051    1.6623 Du        2 SUP2    0.0000
      2 C1         1.1975    4.6442    0.9484 Du        2 SUP2    0.0000
      3 C2         0.2180    3.9441    0.0119 Du        2 SUP2    0.0000
      4 H1        -0.0970    4.5814   -0.6652 Du        2 SUP2    0.0000
      5 H2        -0.5468    3.6130    0.5283 Du        2 SUP2    0.0000
      6 H3         0.6655    3.1940   -0.4284 Du        2 SUP2    0.0000
      7 C3         2.2693    5.4169    0.1594 Du        2 SUP2    0.0000
      8 H4         1.8568    6.1972   -0.2665 Du        2 SUP2    0.0000
      9 H5         2.6513    4.8348   -0.5271 Du        2 SUP2    0.0000
     10 H6         2.9739    5.7105    0.7711 Du        2 SUP2    0.0000
     11 C4         1.7457    3.6832    1.9598 Du        2 SUP2    0.0000
     12 H7         2.4535    4.1223    2.4786 Du        2 SUP2    0.0000
     13 H8         2.1201    2.9004    1.4993 Du        2 SUP2    0.0000
     14 H9         1.0302    3.3947    2.5619 Du        2 SUP2    0.0000
     15 C5         1.2036    4.2502    1.5041 C.3       1 RES1    0.0000
     16 C6         0.2703    3.1337    1.1138 C.3       1 RES1    0.0000
     17 H10       -0.4386    3.4875    0.5367 H         1 RES1    0.0000
     18 H11       -0.1286    2.7448    1.9205 H         1 RES1    0.0000
     19 H12        0.7705    2.4438    0.6307 H         1 RES1    0.0000
     20 C7         1.8089    4.9477    0.3189 C.3       1 RES1    0.0000
     21 H13        1.1035    5.4044   -0.1880 H         1 RES1    0.0000
     22 H14        2.2523    4.2904   -0.2570 H         1 RES1    0.0000
     23 H15        2.4652    5.6076    0.6283 H         1 RES1    0.0000
     24 C8         2.2226    3.7234    2.4845 C.3       1 RES1    0.0000
     25 H16        1.7716    3.4524    3.3115 H         1 RES1    0.0000
     26 H17        2.8786    4.4234    2.6821 H         1 RES1    0.0000
     27 H18        2.6801    2.9481    2.0954 H         1 RES1    0.0000
     28 C9         0.7773    6.4130    2.6380 C.2       1 RES1    0.0000
     29 C10        0.0528    8.5221    3.5352 C.3       1 RES1    0.0000
     30 H19       -0.7996    8.9521    3.7958 H         1 RES1    0.0000
     31 H20        0.3752    8.9722    2.7142 H         1 RES1    0.0000
     32 C11        1.0722    8.7529    4.6454 C.2       1 RES1    0.0000
     33 C12        1.8746    8.1487    6.8111 C.2       1 RES1    0.0000
     34 C13        2.7690    7.3591    7.4405 C.2       1 RES1    0.0000
     35 H21        3.0395    7.6851    8.2913 H         1 RES1    0.0000
     36 C14        3.4024    6.0921    7.0574 C.ar      1 RES1    0.0000
     37 C15        3.2578    5.4473    5.8342 C.ar      1 RES1    0.0000
     38 H22        2.6331    5.7782    5.1999 H         1 RES1    0.0000
     39 C16        4.0175    4.3260    5.5319 C.ar      1 RES1    0.0000
     40 H23        3.9066    3.8940    4.6930 H         1 RES1    0.0000
     41 C17        4.9270    3.8360    6.4327 C.ar      1 RES1    0.0000
     42 H24        5.4535    3.0760    6.2126 H         1 RES1    0.0000
     43 C18        5.0767    4.4477    7.6631 C.ar      1 RES1    0.0000
     44 H25        5.6964    4.1022    8.2937 H         1 RES1    0.0000
     45 C19        4.3233    5.5667    7.9736 C.ar      1 RES1    0.0000
     46 H26        4.4321    5.9840    8.8209 H         1 RES1    0.0000
     47 C20        1.5717    9.5171    7.3596 C.2       1 RES1    0.0000
     48 C21        2.6508   11.5803    8.1842 C.3       1 RES1    0.0000
     49 H27        1.6999   11.8776    8.2735 H         1 RES1    0.0000
     50 C22        3.3316   11.6919    9.5610 C.3       1 RES1    0.0000
     51 H28        4.2895   11.4586    9.4717 H         1 RES1    0.0000
     52 H29        3.2739   12.6278    9.8799 H         1 RES1    0.0000
     53 C23        2.6870   10.7777   10.5748 C.ar      1 RES1    0.0000
     54 C24        3.1710    9.4883   10.7783 C.ar      1 RES1    0.0000
     55 H30        3.9214    9.1829   10.2833 H         1 RES1    0.0000
     56 C25        2.5594    8.6417   11.7076 C.ar      1 RES1    0.0000
     57 H31        2.8894    7.7603   11.8361 H         1 RES1    0.0000
     58 C26        1.4699    9.0889   12.4441 C.ar      1 RES1    0.0000
     59 H32        1.0582    8.5181   13.0808 H         1 RES1    0.0000
     60 C27        0.9917   10.3602   12.2454 C.ar      1 RES1    0.0000
     61 H33        0.2467   10.6683   12.7488 H         1 RES1    0.0000
     62 C28        1.5900   11.2012   11.3149 C.ar      1 RES1    0.0000
     63 H34        1.2442   12.0758   11.1816 H         1 RES1    0.0000
     64 C29        3.3646   12.5094    7.1895 C.2       1 RES1    0.0000
     65 C30        4.1343   12.5816    4.8251 C.ar      1 RES1    0.0000
     66 C31        3.8588   12.0896    3.5471 C.ar      1 RES1    0.0000
     67 H35        3.1636   11.4536    3.4258 H         1 RES1    0.0000
     68 C32        4.5910   12.5209    2.4607 C.ar      1 RES1    0.0000
     69 H36        4.4167   12.1737    1.5933 H         1 RES1    0.0000
     70 C33        5.5796   13.4630    2.6535 C.ar      1 RES1    0.0000
     71 C34        5.8775   13.9490    3.9053 C.ar      1 RES1    0.0000
     72 H37        6.5746   14.5848    4.0172 H         1 RES1    0.0000
     73 C35        5.1598   13.5095    4.9988 C.ar      1 RES1    0.0000
     74 H38        5.3637   13.8371    5.8663 H         1 RES1    0.0000
     75 O2         0.2951    5.2104    2.2156 O.3       1 RES1    0.0000
     76 O3         1.9486    6.7276    2.7049 O.2       1 RES1    0.0000
     77 O4         1.7437    9.7801    4.6439 O.2       1 RES1    0.0000
     78 O5         0.4250    9.9535    7.4465 O.2       1 RES1    0.0000
     79 O6         3.8604   13.5571    7.5559 O.2       1 RES1    0.0000
     80 O7         6.1347   13.4247    0.4065 O.2       1 RES1    0.0000
     81 O8         7.1762   14.8192    1.6742 O.2       1 RES1    0.0000
     82 N1        -0.2114    7.1308    3.2235 N.am      1 RES1    0.0000
     83 H39       -0.9897    6.7643    3.4091 H         1 RES1    0.0000
     84 N2         1.1534    7.8371    5.6333 N.am      1 RES1    0.0000
     85 H40        0.7624    7.0528    5.5462 H         1 RES1    0.0000
     86 N3         2.6651   10.2156    7.7063 N.am      1 RES1    0.0000
     87 H41        3.4452    9.8152    7.6369 H         1 RES1    0.0000
     88 N4         3.3851   12.0638    5.8967 N.am      1 RES1    0.0000
     89 H42        2.8707   11.3733    5.7152 H         1 RES1    0.0000
     90 N5         6.3456   13.9272    1.4981 N.pl3     1 RES1    0.0000
@<TRIPOS>BOND
     1   15   16 1
     2   16   17 1
     3   18   16 1
     4   19   16 1
     5   20   15 1
     6   21   20 1
     7   22   20 1
     8   23   20 1
     9   24   15 1
    10   25   24 1
    11   26   24 1
    12   27   24 1
    13   28   75 1
    14   29   30 1
    15   31   29 1
    16   32   29 1
    17   33   34 2
    18   34   35 1
    19   36   34 1
    20   37   36 ar
    21   38   37 1
    22   39   37 ar
    23   40   39 1
    24   41   39 ar
    25   42   41 1
    26   43   41 ar
    27   44   43 1
    28   45   36 ar
    29   46   45 1
    30   47   33 1
    31   48   49 1
    32   50   48 1
    33   51   50 1
    34   52   50 1
    35   53   50 1
    36   54   53 ar
    37   55   54 1
    38   56   54 ar
    39   57   56 1
    40   58   56 ar
    41   59   58 1
    42   60   58 ar
    43   61   60 1
    44   62   53 ar
    45   63   62 1
    46   64   48 1
    47   65   66 ar
    48   66   67 1
    49   68   66 ar
    50   69   68 1
    51   70   68 ar
    52   71   70 ar
    53   72   71 1
    54   73   65 ar
    55   74   73 1
    56   75   15 1
    57   76   28 2
    58   77   32 2
    59   78   47 2
    60   79   64 2
    61   80   90 2
    62   81   90 2
    63   82   28 1
    64   83   82 1
    65   84   32 1
    66   85   84 1
    67   86   47 1
    68   87   86 1
    69   88   64 1
    70   89   88 1
    71   90   70 1
    72   29   82 1
    73   33   84 1
    74   43   45 ar
    75   48   86 1
    76   60   62 ar
    77   65   88 1
    78   71   73 ar
@<TRIPOS>SUBSTRUCTURE
     1 RES1 15
     2 SUP2 1

@<TRIPOS>CRYSIN
   4.9910   25.0900   12.0080  90.0000  97.7200  90.0000   4 1

