# MOL2 file generated by ConQuest
# Please check atom types

@<TRIPOS>MOLECULE
PIYSIA
   166   170     2
SMALL
NO_CHARGES
****
Generated from CSD

@<TRIPOS>ATOM
      1 C1         0.6960    3.2264   16.5674 C.3       1 RES1    0.0000
      2 C2         0.5110    4.6041   15.9632 C.3       1 RES1    0.0000
      3 H1        -0.3551    4.6453   15.5073 H         1 RES1    0.0000
      4 H2         1.2281    4.7778   15.3203 H         1 RES1    0.0000
      5 H3         0.5390    5.2782   16.6745 H         1 RES1    0.0000
      6 C3        -0.3531    2.9482   17.5978 C.3       1 RES1    0.0000
      7 H4        -1.2388    3.1248   17.2171 H         1 RES1    0.0000
      8 H5        -0.2099    3.5281   18.3753 H         1 RES1    0.0000
      9 H6        -0.2981    2.0106   17.8760 H         1 RES1    0.0000
     10 C4         2.0694    3.0395   17.1533 C.3       1 RES1    0.0000
     11 H7         2.1740    2.1122   17.4519 H         1 RES1    0.0000
     12 H8         2.1843    3.6430   17.9170 H         1 RES1    0.0000
     13 H9         2.7449    3.2411   16.4716 H         1 RES1    0.0000
     14 C5         1.2562    2.0474   14.4813 C.2       1 RES1    0.0000
     15 C6         1.9280    0.3974   12.8627 C.3       1 RES1    0.0000
     16 H10        1.5465   -0.4004   12.4181 H         1 RES1    0.0000
     17 H11        2.6814    0.0942   13.4303 H         1 RES1    0.0000
     18 C7         2.4650    1.3438   11.7980 C.2       1 RES1    0.0000
     19 C8         2.0584    2.9835   10.0859 C.3       1 RES1    0.0000
     20 H12        1.2850    3.3957    9.6231 H         1 RES1    0.0000
     21 H13        2.5725    2.4669    9.4156 H         1 RES1    0.0000
     22 C9         2.9380    4.0786   10.6444 C.2       1 RES1    0.0000
     23 C10        3.5619    5.3665   12.5800 C.2       1 RES1    0.0000
     24 C11        3.1178    6.4646   13.1727 C.2       1 RES1    0.0000
     25 H14        3.7884    6.9915   13.5922 H         1 RES1    0.0000
     26 C12        1.7449    7.0018   13.2867 C.ar      1 RES1    0.0000
     27 C13        1.5947    8.1558   14.0505 C.ar      1 RES1    0.0000
     28 H15        2.3597    8.5620   14.4426 H         1 RES1    0.0000
     29 C14        0.3451    8.7210   14.2488 C.ar      1 RES1    0.0000
     30 H16        0.2567    9.5114   14.7686 H         1 RES1    0.0000
     31 C15       -0.7702    8.1367   13.6902 C.ar      1 RES1    0.0000
     32 H17       -1.6288    8.5164   13.8362 H         1 RES1    0.0000
     33 C16       -0.6416    6.9901   12.9128 C.ar      1 RES1    0.0000
     34 H18       -1.4104    6.5941   12.5207 H         1 RES1    0.0000
     35 C17        0.6103    6.4263   12.7099 C.ar      1 RES1    0.0000
     36 H19        0.6958    5.6447   12.1787 H         1 RES1    0.0000
     37 C18        5.0304    5.0486   12.6324 C.2       1 RES1    0.0000
     38 C19        6.7908    3.3868   12.3588 C.3       1 RES1    0.0000
     39 H20        7.2457    3.8196   13.1363 H         1 RES1    0.0000
     40 C20        6.9177    1.8737   12.5253 C.3       1 RES1    0.0000
     41 H21        6.4896    1.4366   11.7456 H         1 RES1    0.0000
     42 H22        7.8778    1.6368   12.5093 H         1 RES1    0.0000
     43 C21        6.3032    1.3041   13.7928 C.ar      1 RES1    0.0000
     44 C22        5.6375    0.1030   13.7655 C.ar      1 RES1    0.0000
     45 H23        5.5598   -0.3680   12.9425 H         1 RES1    0.0000
     46 C23        5.0778   -0.4372   14.9099 C.ar      1 RES1    0.0000
     47 H24        4.6566   -1.2879   14.8780 H         1 RES1    0.0000
     48 C24        5.1301    0.2620   16.1000 C.ar      1 RES1    0.0000
     49 H25        4.7264   -0.0898   16.8843 H         1 RES1    0.0000
     50 C25        5.7734    1.4675   16.1342 C.ar      1 RES1    0.0000
     51 H26        5.8089    1.9503   16.9504 H         1 RES1    0.0000
     52 C26        6.3622    1.9959   15.0285 C.ar      1 RES1    0.0000
     53 H27        6.8138    2.8290   15.0832 H         1 RES1    0.0000
     54 C27        7.4959    3.8461   11.0867 C.2       1 RES1    0.0000
     55 C28        7.0984    4.8293    8.8479 C.ar      1 RES1    0.0000
     56 C29        8.3772    5.2753    8.5493 C.ar      1 RES1    0.0000
     57 H28        9.0724    5.1914    9.1899 H         1 RES1    0.0000
     58 C30        8.6352    5.8390    7.3182 C.ar      1 RES1    0.0000
     59 H29        9.5137    6.1290    7.1039 H         1 RES1    0.0000
     60 C31        7.6135    5.9818    6.3971 C.ar      1 RES1    0.0000
     61 C32        6.3329    5.5491    6.6707 C.ar      1 RES1    0.0000
     62 H30        5.6442    5.6462    6.0210 H         1 RES1    0.0000
     63 C33        6.0646    4.9809    7.8881 C.ar      1 RES1    0.0000
     64 H31        5.1833    4.6865    8.0910 H         1 RES1    0.0000
     65 N1         0.9074    0.9891   13.7192 N.am      1 RES1    0.0000
     66 H32        0.0887    0.6682   13.7381 H         1 RES1    0.0000
     67 N2         1.5683    2.0739   11.1125 N.am      1 RES1    0.0000
     68 H33        0.7071    2.0033   11.2782 H         1 RES1    0.0000
     69 N3         2.7436    4.4039   11.9346 N.am      1 RES1    0.0000
     70 H34        2.0964    4.0139   12.3862 H         1 RES1    0.0000
     71 N4         5.3752    3.7769   12.3908 N.am      1 RES1    0.0000
     72 H35        4.7511    3.1719   12.2494 H         1 RES1    0.0000
     73 N5         6.7047    4.3024   10.0884 N.am      1 RES1    0.0000
     74 H36        5.8376    4.2641   10.2341 H         1 RES1    0.0000
     75 N6         7.8737    6.6044    5.1045 N.pl3     1 RES1    0.0000
     76 O1         0.4533    2.1681   15.5554 O.3       1 RES1    0.0000
     77 O2         2.1701    2.8069   14.2055 O.2       1 RES1    0.0000
     78 O3         3.6730    1.4189   11.5516 O.2       1 RES1    0.0000
     79 O4         3.7599    4.6483    9.9397 O.2       1 RES1    0.0000
     80 O5         5.8719    5.9244   12.8563 O.2       1 RES1    0.0000
     81 O6         8.7299    3.7887   11.0329 O.2       1 RES1    0.0000
     82 O7         9.0518    6.7649    4.7482 O.2       1 RES1    0.0000
     83 O8         6.9032    6.9562    4.4383 O.2       1 RES1    0.0000
     84 C34        9.7288   14.2024   28.1351 C.3       2 RES2    0.0000
     85 C35        8.9416   13.0101   27.6085 C.3       2 RES2    0.0000
     86 H37        8.0121   13.2765   27.4489 H         2 RES2    0.0000
     87 H38        8.9653   12.2845   28.2673 H         2 RES2    0.0000
     88 H39        9.3405   12.7010   26.7672 H         2 RES2    0.0000
     89 C36       11.1873   13.9124   28.2514 C.3       2 RES2    0.0000
     90 H40       11.5194   13.5621   27.4010 H         2 RES2    0.0000
     91 H41       11.3325   13.2486   28.9581 H         2 RES2    0.0000
     92 H42       11.6677   14.7381   28.4748 H         2 RES2    0.0000
     93 C37        9.1640   14.6528   29.4802 C.3       2 RES2    0.0000
     94 H43        8.2146   14.8735   29.3776 H         2 RES2    0.0000
     95 H44        9.6506   15.4446   29.7903 H         2 RES2    0.0000
     96 H45        9.2632   13.9315   30.1345 H         2 RES2    0.0000
     97 C38        9.7802   15.3652   25.9602 C.2       2 RES2    0.0000
     98 C39        9.6324   16.7929   24.0132 C.3       2 RES2    0.0000
     99 H46       10.6158   16.8017   23.8992 H         2 RES2    0.0000
    100 H47        9.2953   17.6996   23.8035 H         2 RES2    0.0000
    101 C40        9.0344   15.8126   23.0466 C.2       2 RES2    0.0000
    102 C41        9.3830   14.0434   21.4416 C.3       2 RES2    0.0000
    103 H48       10.1480   13.5945   21.0016 H         2 RES2    0.0000
    104 H49        8.8376   14.4747   20.7371 H         2 RES2    0.0000
    105 C42        8.5427   13.0028   22.1506 C.2       2 RES2    0.0000
    106 C43        7.9282   11.8635   24.1819 C.2       2 RES2    0.0000
    107 C44        8.3688   10.7478   24.7633 C.2       2 RES2    0.0000
    108 H50        7.6914   10.2282   25.1782 H         2 RES2    0.0000
    109 C45        9.7180   10.1811   24.8681 C.ar      2 RES2    0.0000
    110 C46        9.8735    9.0095   25.5772 C.ar      2 RES2    0.0000
    111 H51        9.1067    8.5885   25.9465 H         2 RES2    0.0000
    112 C47       11.1341    8.4207   25.7664 C.ar      2 RES2    0.0000
    113 H52       11.2124    7.6200   26.2702 H         2 RES2    0.0000
    114 C48       12.2562    9.0036   25.2238 C.ar      2 RES2    0.0000
    115 H53       13.1104    8.6047   25.3401 H         2 RES2    0.0000
    116 C49       12.1172   10.1723   24.5102 C.ar      2 RES2    0.0000
    117 H54       12.8941   10.5800   24.1454 H         2 RES2    0.0000
    118 C50       10.8884   10.7773   24.3050 C.ar      2 RES2    0.0000
    119 H55       10.8239   11.5750   23.7944 H         2 RES2    0.0000
    120 C51        6.4642   12.1711   24.2252 C.2       2 RES2    0.0000
    121 C52        4.6852   13.8197   23.8810 C.3       2 RES2    0.0000
    122 H56        4.2167   13.3928   24.6561 H         2 RES2    0.0000
    123 C53        4.5198   15.3431   23.9973 C.3       2 RES2    0.0000
    124 H57        4.9537   15.7699   23.2153 H         2 RES2    0.0000
    125 H58        3.5555   15.5609   23.9608 H         2 RES2    0.0000
    126 C54        5.1088   15.9363   25.2694 C.ar      2 RES2    0.0000
    127 C55        5.7777   17.1624   25.2124 C.ar      2 RES2    0.0000
    128 H59        5.8876   17.5966   24.3734 H         2 RES2    0.0000
    129 C56        6.2842   17.7570   26.3569 C.ar      2 RES2    0.0000
    130 H60        6.7316   18.5930   26.2999 H         2 RES2    0.0000
    131 C57        6.1360   17.1314   27.5811 C.ar      2 RES2    0.0000
    132 H61        6.4752   17.5392   28.3677 H         2 RES2    0.0000
    133 C58        5.4884   15.8995   27.6564 C.ar      2 RES2    0.0000
    134 H62        5.4006   15.4550   28.4930 H         2 RES2    0.0000
    135 C59        4.9692   15.3225   26.4936 C.ar      2 RES2    0.0000
    136 H63        4.5115   14.4909   26.5484 H         2 RES2    0.0000
    137 C60        4.0066   13.3604   22.5997 C.2       2 RES2    0.0000
    138 C61        4.5086   12.3831   20.3541 C.ar      2 RES2    0.0000
    139 C62        3.3293   11.7016   20.1239 C.ar      2 RES2    0.0000
    140 H64        2.6610   11.6516   20.7987 H         2 RES2    0.0000
    141 C63        3.1365   11.0908   18.8973 C.ar      2 RES2    0.0000
    142 H65        2.3340   10.6139   18.7195 H         2 RES2    0.0000
    143 C64        4.1284   11.1820   17.9284 C.ar      2 RES2    0.0000
    144 C65        5.2995   11.8959   18.1313 C.ar      2 RES2    0.0000
    145 H66        5.9509   11.9710   17.4428 H         2 RES2    0.0000
    146 C66        5.4911   12.4920   19.3601 C.ar      2 RES2    0.0000
    147 H67        6.2904   12.9763   19.5311 H         2 RES2    0.0000
    148 N7         9.3212   16.4823   25.3948 N.am      2 RES2    0.0000
    149 H68        8.8246   17.0372   25.8644 H         2 RES2    0.0000
    150 N8         9.8820   15.0575   22.3414 N.am      2 RES2    0.0000
    151 H69       10.7503   15.1797   22.4242 H         2 RES2    0.0000
    152 N9         8.7471   12.7893   23.4667 N.am      2 RES2    0.0000
    153 H70        9.3883   13.2221   23.8855 H         2 RES2    0.0000
    154 N10        6.0998   13.4532   23.9416 N.am      2 RES2    0.0000
    155 H71        6.7172   14.0625   23.7944 H         2 RES2    0.0000
    156 N11        4.8480   12.9380   21.6231 N.am      2 RES2    0.0000
    157 H72        5.7082   13.0145   21.7927 H         2 RES2    0.0000
    158 N12        3.9519   10.4961   16.6426 N.pl3     2 RES2    0.0000
    159 O9         9.4852   15.3814   27.2841 O.3       2 RES2    0.0000
    160 O10       10.3737   14.4835   25.3756 O.2       2 RES2    0.0000
    161 O11        7.7962   15.6581   22.9440 O.2       2 RES2    0.0000
    162 O12        7.6772   12.3698   21.5134 O.2       2 RES2    0.0000
    163 O13        5.6282   11.3071   24.4883 O.2       2 RES2    0.0000
    164 O14        2.7753   13.3590   22.5054 O.2       2 RES2    0.0000
    165 O15        2.9270    9.8205   16.4876 O.2       2 RES2    0.0000
    166 O16        4.8052   10.6286   15.7877 O.2       2 RES2    0.0000
@<TRIPOS>BOND
     1    1    2 1
     2    2    3 1
     3    4    2 1
     4    5    2 1
     5    6    1 1
     6    7    6 1
     7    8    6 1
     8    9    6 1
     9   10    1 1
    10   11   10 1
    11   12   10 1
    12   13   10 1
    13   14   65 1
    14   15   16 1
    15   17   15 1
    16   18   15 1
    17   19   20 1
    18   21   19 1
    19   22   19 1
    20   23   24 2
    21   24   25 1
    22   26   24 1
    23   27   26 ar
    24   28   27 1
    25   29   27 ar
    26   30   29 1
    27   31   29 ar
    28   32   31 1
    29   33   31 ar
    30   34   33 1
    31   35   26 ar
    32   36   35 1
    33   37   23 1
    34   38   39 1
    35   40   38 1
    36   41   40 1
    37   42   40 1
    38   43   40 1
    39   44   43 ar
    40   45   44 1
    41   46   44 ar
    42   47   46 1
    43   48   46 ar
    44   49   48 1
    45   50   48 ar
    46   51   50 1
    47   52   43 ar
    48   53   52 1
    49   54   38 1
    50   55   56 ar
    51   56   57 1
    52   58   56 ar
    53   59   58 1
    54   60   58 ar
    55   61   60 ar
    56   62   61 1
    57   63   55 ar
    58   64   63 1
    59   65   15 1
    60   66   65 1
    61   67   18 1
    62   68   67 1
    63   69   22 1
    64   70   69 1
    65   71   37 1
    66   72   71 1
    67   73   54 1
    68   74   73 1
    69   75   60 1
    70   76    1 1
    71   77   14 2
    72   78   18 2
    73   79   22 2
    74   80   37 2
    75   81   54 2
    76   82   75 2
    77   83   75 2
    78   84   85 1
    79   85   86 1
    80   87   85 1
    81   88   85 1
    82   89   84 1
    83   90   89 1
    84   91   89 1
    85   92   89 1
    86   93   84 1
    87   94   93 1
    88   95   93 1
    89   96   93 1
    90   97  148 1
    91   98   99 1
    92  100   98 1
    93  101   98 1
    94  102  103 1
    95  104  102 1
    96  105  102 1
    97  106  107 2
    98  107  108 1
    99  109  107 1
   100  110  109 ar
   101  111  110 1
   102  112  110 ar
   103  113  112 1
   104  114  112 ar
   105  115  114 1
   106  116  114 ar
   107  117  116 1
   108  118  109 ar
   109  119  118 1
   110  120  106 1
   111  121  122 1
   112  123  121 1
   113  124  123 1
   114  125  123 1
   115  126  123 1
   116  127  126 ar
   117  128  127 1
   118  129  127 ar
   119  130  129 1
   120  131  129 ar
   121  132  131 1
   122  133  131 ar
   123  134  133 1
   124  135  126 ar
   125  136  135 1
   126  137  121 1
   127  138  139 ar
   128  139  140 1
   129  141  139 ar
   130  142  141 1
   131  143  141 ar
   132  144  143 ar
   133  145  144 1
   134  146  138 ar
   135  147  146 1
   136  148   98 1
   137  149  148 1
   138  150  101 1
   139  151  150 1
   140  152  105 1
   141  153  152 1
   142  154  120 1
   143  155  154 1
   144  156  137 1
   145  157  156 1
   146  158  143 1
   147  159   84 1
   148  160   97 2
   149  161  101 2
   150  162  105 2
   151  163  120 2
   152  164  137 2
   153  165  158 2
   154  166  158 2
   155   14   76 1
   156   19   67 1
   157   23   69 1
   158   33   35 ar
   159   38   71 1
   160   50   52 ar
   161   55   73 1
   162   61   63 ar
   163   97  159 1
   164  102  150 1
   165  106  152 1
   166  116  118 ar
   167  121  154 1
   168  133  135 ar
   169  138  156 1
   170  144  146 ar
@<TRIPOS>SUBSTRUCTURE
     1 RES1 1
     2 RES2 84

@<TRIPOS>CRYSIN
   9.5020   14.7190   22.8750  90.0000  94.7000  90.0000   4 1

