# MOL2 file generated by ConQuest
# Please check atom types

@<TRIPOS>MOLECULE
PIZBIK
    42    44     1
SMALL
NO_CHARGES
****
Generated from CSD

@<TRIPOS>ATOM
      1 C1         5.8259   10.8064    3.5677 C.3       1 RES1    0.0000
      2 H1         5.1829   10.8848    2.8197 H         1 RES1    0.0000
      3 C2         5.0786   10.1331    4.6876 C.3       1 RES1    0.0000
      4 H2         5.6687   10.0481    5.4654 H         1 RES1    0.0000
      5 H3         4.8178    9.2312    4.4067 H         1 RES1    0.0000
      6 C3         3.8266   10.9201    5.0860 C.3       1 RES1    0.0000
      7 H4         3.1886   10.9179    4.3417 H         1 RES1    0.0000
      8 H5         3.3994   10.4874    5.8554 H         1 RES1    0.0000
      9 C4         4.1748   12.3297    5.4382 C.3       1 RES1    0.0000
     10 H6         4.7057   12.3363    6.2621 H         1 RES1    0.0000
     11 H7         3.3521   12.8352    5.6059 H         1 RES1    0.0000
     12 C5         4.9588   13.0008    4.3333 C.3       1 RES1    0.0000
     13 H8         4.3849   13.0968    3.5451 H         1 RES1    0.0000
     14 H9         5.2238   13.8982    4.6247 H         1 RES1    0.0000
     15 C6         6.1882   12.2204    3.9562 C.3       1 RES1    0.0000
     16 H10        6.7240   12.1442    4.7862 H         1 RES1    0.0000
     17 C7         7.0793   12.8882    2.9539 C.2       1 RES1    0.0000
     18 H11        7.0384   13.8198    2.8386 H         1 RES1    0.0000
     19 C8         7.9196   12.1729    2.2369 C.2       1 RES1    0.0000
     20 H12        8.4949   12.6001    1.6289 H         1 RES1    0.0000
     21 C9         7.9648   10.7468    2.3774 C.2       1 RES1    0.0000
     22 H13        8.6873   10.2744    2.0063 H         1 RES1    0.0000
     23 C10        7.0109   10.0713    3.0203 C.2       1 RES1    0.0000
     24 C11        7.0673    8.5899    3.1216 C.3       1 RES1    0.0000
     25 H14        7.9091    8.2555    2.7484 H         1 RES1    0.0000
     26 H15        7.0109    8.3118    4.0608 H         1 RES1    0.0000
     27 O1         5.9358    8.0623    2.3700 O.3       1 RES1    0.0000
     28 C12        5.7885    6.7322    2.3828 C.2       1 RES1    0.0000
     29 O2         6.5837    5.9628    2.8629 O.2       1 RES1    0.0000
     30 C13        4.5196    6.3227    1.7124 C.ar      1 RES1    0.0000
     31 C14        4.2615    4.9705    1.5589 C.ar      1 RES1    0.0000
     32 H16        4.8974    4.3380    1.8386 H         1 RES1    0.0000
     33 C15        3.0708    4.5488    0.9952 C.ar      1 RES1    0.0000
     34 H17        2.8826    3.6349    0.8868 H         1 RES1    0.0000
     35 C16        2.1664    5.5136    0.5958 C.ar      1 RES1    0.0000
     36 C17        2.4039    6.8481    0.7197 C.ar      1 RES1    0.0000
     37 H18        1.7730    7.4784    0.4214 H         1 RES1    0.0000
     38 C18        3.5918    7.2554    1.2950 C.ar      1 RES1    0.0000
     39 H19        3.7695    8.1727    1.4025 H         1 RES1    0.0000
     40 N1         0.8974    5.0798   -0.0094 N.pl3     1 RES1    0.0000
     41 O3         0.6845    3.8843   -0.1065 O.2       1 RES1    0.0000
     42 O4         0.1198    5.9363   -0.3906 O.2       1 RES1    0.0000
@<TRIPOS>BOND
     1    1    2 1
     2    3    1 1
     3    4    3 1
     4    5    3 1
     5    6    3 1
     6    7    6 1
     7    8    6 1
     8    9    6 1
     9   10    9 1
    10   11    9 1
    11   12    9 1
    12   13   12 1
    13   14   12 1
    14   15    1 1
    15   16   15 1
    16   17   15 1
    17   18   17 1
    18   19   17 2
    19   20   19 1
    20   21   19 1
    21   22   21 1
    22   23    1 1
    23   24   23 1
    24   25   24 1
    25   26   24 1
    26   27   24 1
    27   28   27 1
    28   29   28 2
    29   30   28 1
    30   31   30 ar
    31   32   31 1
    32   33   31 ar
    33   34   33 1
    34   35   33 ar
    35   36   35 ar
    36   37   36 1
    37   38   30 ar
    38   39   38 1
    39   40   35 1
    40   41   40 2
    41   42   40 2
    42   12   15 1
    43   21   23 2
    44   36   38 ar
@<TRIPOS>SUBSTRUCTURE
     1 RES1 1

@<TRIPOS>CRYSIN
   7.0497   11.0382   20.9644  90.0000  90.0000  90.0000  19 1

