# MOL2 file generated by ConQuest
# Please check atom types

@<TRIPOS>MOLECULE
PIZBOQ
    78    82     2
SMALL
NO_CHARGES
****
Generated from CSD

@<TRIPOS>ATOM
      1 C1        -3.3316    7.5345    2.5165 C.3       1 RES1    0.0000
      2 H1        -4.0829    7.0739    2.9674 H         1 RES1    0.0000
      3 C2        -3.5811    9.0277    2.6693 C.3       1 RES1    0.0000
      4 H2        -2.7674    9.5395    2.4823 H         1 RES1    0.0000
      5 H3        -3.8909    9.2408    3.5743 H         1 RES1    0.0000
      6 C3        -4.6780    9.3360    1.6248 C.3       1 RES1    0.0000
      7 H4        -5.5305    9.5234    2.0694 H         1 RES1    0.0000
      8 H5        -4.4278   10.1151    1.0868 H         1 RES1    0.0000
      9 C4        -4.7978    8.0969    0.7452 C.3       1 RES1    0.0000
     10 H6        -5.5879    7.5711    0.9880 H         1 RES1    0.0000
     11 H7        -4.8594    8.3452   -0.2011 H         1 RES1    0.0000
     12 C5        -3.5235    7.3192    1.0195 C.3       1 RES1    0.0000
     13 H8        -2.7852    7.7864    0.5557 H         1 RES1    0.0000
     14 C6        -3.4073    5.8656    0.6988 C.2       1 RES1    0.0000
     15 H9        -3.9466    5.4746    0.0370 H         1 RES1    0.0000
     16 C7        -2.5244    5.1414    1.3715 C.2       1 RES1    0.0000
     17 H10       -2.4035    4.2370    1.1450 H         1 RES1    0.0000
     18 C8        -1.7418    5.7133    2.4470 C.2       1 RES1    0.0000
     19 H11       -0.9847    5.2534    2.7592 H         1 RES1    0.0000
     20 C9        -2.0730    6.8762    3.0009 C.2       1 RES1    0.0000
     21 C10       -1.3505    7.5184    4.1390 C.3       1 RES1    0.0000
     22 H12       -0.9403    8.3591    3.8442 H         1 RES1    0.0000
     23 H13       -1.9777    7.7183    4.8657 H         1 RES1    0.0000
     24 O1        -0.3249    6.6009    4.6059 O.3       1 RES1    0.0000
     25 C11        0.6085    7.0886    5.4204 C.2       1 RES1    0.0000
     26 O2         0.6627    8.2397    5.7496 O.2       1 RES1    0.0000
     27 C12        1.5706    6.0289    5.8662 C.ar      1 RES1    0.0000
     28 C13        1.4127    4.7094    5.5014 C.ar      1 RES1    0.0000
     29 H14        0.6890    4.4582    4.9575 H         1 RES1    0.0000
     30 C14        2.3169    3.7471    5.9343 C.ar      1 RES1    0.0000
     31 H15        2.2053    2.8413    5.7090 H         1 RES1    0.0000
     32 C15        3.3800    4.1601    6.7030 C.ar      1 RES1    0.0000
     33 C16        3.5595    5.4592    7.0872 C.ar      1 RES1    0.0000
     34 H16        4.2881    5.7038    7.6285 H         1 RES1    0.0000
     35 C17        2.6423    6.4068    6.6598 C.ar      1 RES1    0.0000
     36 H17        2.7463    7.3075    6.9087 H         1 RES1    0.0000
     37 N1         4.3582    3.1445    7.1497 N.pl3     1 RES1    0.0000
     38 O3         4.2958    2.0387    6.6511 O.2       1 RES1    0.0000
     39 O4         5.1891    3.4798    7.9665 O.2       1 RES1    0.0000
     40 C18        8.0454    4.7189    6.6511 C.3       2 RES2    0.0000
     41 H18        7.4808    4.3842    7.3921 H         2 RES2    0.0000
     42 C19        8.7598    3.5406    6.1360 C.3       2 RES2    0.0000
     43 H19        9.2120    3.7427    5.2909 H         2 RES2    0.0000
     44 H20        8.1492    2.7871    6.0001 H         2 RES2    0.0000
     45 C20        9.7870    3.2360    7.2633 C.3       2 RES2    0.0000
     46 H21        9.4589    2.5140    7.8384 H         2 RES2    0.0000
     47 H22       10.6467    2.9643    6.8769 H         2 RES2    0.0000
     48 C21        9.9451    4.5241    8.0625 C.3       2 RES2    0.0000
     49 H23        9.6036    4.4106    8.9746 H         2 RES2    0.0000
     50 H24       10.8872    4.7906    8.1084 H         2 RES2    0.0000
     51 C22        9.1327    5.5552    7.3111 C.3       2 RES2    0.0000
     52 H25        9.7132    5.8744    6.5752 H         2 RES2    0.0000
     53 C23        8.6007    6.7598    7.9547 C.2       2 RES2    0.0000
     54 H26        8.9920    7.0922    8.7417 H         2 RES2    0.0000
     55 C24        7.5535    7.3786    7.4083 C.2       2 RES2    0.0000
     56 H27        7.2356    8.1797    7.7837 H         2 RES2    0.0000
     57 C25        6.8966    6.8198    6.2284 C.2       2 RES2    0.0000
     58 H28        6.2847    7.3493    5.7514 H         2 RES2    0.0000
     59 C26        7.1435    5.5779    5.8135 C.2       2 RES2    0.0000
     60 C27        6.4432    4.9181    4.6574 C.3       2 RES2    0.0000
     61 H29        7.0923    4.6808    3.9624 H         2 RES2    0.0000
     62 H30        5.9991    4.0979    4.9575 H         2 RES2    0.0000
     63 O5         5.4668    5.8437    4.1269 O.3       2 RES2    0.0000
     64 C28        4.4982    5.3230    3.3739 C.2       2 RES2    0.0000
     65 O6         4.4050    4.1638    3.1094 O.2       2 RES2    0.0000
     66 C29        3.5466    6.3746    2.9115 C.ar      2 RES2    0.0000
     67 C30        3.6668    7.7030    3.2848 C.ar      2 RES2    0.0000
     68 H31        4.3847    7.9680    3.8301 H         2 RES2    0.0000
     69 C31        2.7443    8.6425    2.8663 C.ar      2 RES2    0.0000
     70 H32        2.8298    9.5447    3.1156 H         2 RES2    0.0000
     71 C32        1.7046    8.2265    2.0781 C.ar      2 RES2    0.0000
     72 C33        1.5582    6.9201    1.6670 C.ar      2 RES2    0.0000
     73 H33        0.8486    6.6682    1.1044 H         2 RES2    0.0000
     74 C34        2.4853    5.9857    2.1030 C.ar      2 RES2    0.0000
     75 H34        2.3965    5.0850    1.8507 H         2 RES2    0.0000
     76 N2         0.6987    9.2276    1.6453 N.pl3     2 RES2    0.0000
     77 O7        -0.1545    8.8622    0.8586 O.2       2 RES2    0.0000
     78 O8         0.7931   10.3648    2.0871 O.2       2 RES2    0.0000
@<TRIPOS>BOND
     1    1    2 1
     2    3    1 1
     3    4    3 1
     4    5    3 1
     5    6    3 1
     6    7    6 1
     7    8    6 1
     8    9    6 1
     9   10    9 1
    10   11    9 1
    11   12    1 1
    12   13   12 1
    13   14   12 1
    14   15   14 1
    15   16   14 2
    16   17   16 1
    17   18   16 1
    18   19   18 1
    19   20    1 1
    20   21   20 1
    21   22   21 1
    22   23   21 1
    23   24   21 1
    24   25   24 1
    25   26   25 2
    26   27   25 1
    27   28   27 ar
    28   29   28 1
    29   30   28 ar
    30   31   30 1
    31   32   30 ar
    32   33   32 ar
    33   34   33 1
    34   35   27 ar
    35   36   35 1
    36   37   32 1
    37   38   37 2
    38   39   37 2
    39   40   41 1
    40   42   40 1
    41   43   42 1
    42   44   42 1
    43   45   42 1
    44   46   45 1
    45   47   45 1
    46   48   45 1
    47   49   48 1
    48   50   48 1
    49   51   40 1
    50   52   51 1
    51   53   51 1
    52   54   53 1
    53   55   53 2
    54   56   55 1
    55   57   55 1
    56   58   57 1
    57   59   40 1
    58   60   59 1
    59   61   60 1
    60   62   60 1
    61   63   60 1
    62   64   63 1
    63   65   64 2
    64   66   64 1
    65   67   66 ar
    66   68   67 1
    67   69   67 ar
    68   70   69 1
    69   71   69 ar
    70   72   71 ar
    71   73   72 1
    72   74   66 ar
    73   75   74 1
    74   76   71 1
    75   77   76 2
    76   78   76 2
    77    9   12 1
    78   18   20 2
    79   33   35 ar
    80   48   51 1
    81   57   59 2
    82   72   74 ar
@<TRIPOS>SUBSTRUCTURE
     1 RES1 1
     2 RES2 40

@<TRIPOS>CRYSIN
  11.5587    7.3229   17.6906  90.0000  94.2390  90.0000   4 1

