# MOL2 file generated by ConQuest
# Please check atom types

@<TRIPOS>MOLECULE
PIZDIN
    45    46     1
SMALL
NO_CHARGES
****
Generated from CSD

@<TRIPOS>ATOM
      1 O1         6.8351    6.3672   -2.3552 O.3       1 RES1    0.0000
      2 C1         5.7050    5.5687   -2.0383 C.3       1 RES1    0.0000
      3 C2         4.6689    6.5851   -1.4813 C.3       1 RES1    0.0000
      4 O2         5.2603    7.8619   -1.7278 O.3       1 RES1    0.0000
      5 C3         6.3643    7.6933   -2.5996 C.3       1 RES1    0.0000
      6 C4         5.9222    7.8615   -4.0448 C.3       1 RES1    0.0000
      7 C5         7.4588    8.6614   -2.2022 C.3       1 RES1    0.0000
      8 C6         4.3242    6.4977   -0.0115 C.3       1 RES1    0.0000
      9 O3         5.5362    6.6748    0.7632 O.3       1 RES1    0.0000
     10 C7         5.7414    5.8547    1.8065 C.2       1 RES1    0.0000
     11 O4         4.9691    5.0034    2.1713 O.2       1 RES1    0.0000
     12 C8         7.0430    6.1392    2.4930 C.ar      1 RES1    0.0000
     13 C9         7.8599    7.1980    2.1026 C.ar      1 RES1    0.0000
     14 C10        9.0328    7.4613    2.8049 C.ar      1 RES1    0.0000
     15 C11        9.3509    6.6384    3.8703 C.ar      1 RES1    0.0000
     16 N1        10.5974    6.9198    4.6053 N.pl3     1 RES1    0.0000
     17 O5        10.9338    6.1439    5.4997 O.2       1 RES1    0.0000
     18 O6        11.2426    7.9078    4.2880 O.2       1 RES1    0.0000
     19 C12        8.5743    5.5723    4.2713 C.ar      1 RES1    0.0000
     20 C13        7.3959    5.3317    3.5654 C.ar      1 RES1    0.0000
     21 C14        6.1080    4.4644   -1.1086 C.2       1 RES1    0.0000
     22 C15        7.3509    4.2672   -0.7067 C.2       1 RES1    0.0000
     23 C16        7.7249    3.2024    0.2467 C.2       1 RES1    0.0000
     24 O7         6.9967    2.3400    0.6829 O.2       1 RES1    0.0000
     25 O8         9.0122    3.3418    0.5939 O.3       1 RES1    0.0000
     26 C17        9.5075    2.4098    1.5765 C.3       1 RES1    0.0000
     27 H1         5.3446    5.1375   -2.8393 H         1 RES1    0.0000
     28 H2         3.8309    6.4384   -1.9519 H         1 RES1    0.0000
     29 H3         5.4416    8.6889   -4.1735 H         1 RES1    0.0000
     30 H4         5.3190    7.1609   -4.3162 H         1 RES1    0.0000
     31 H5         6.6504    7.8769   -4.6740 H         1 RES1    0.0000
     32 H6         7.1323    9.5532   -2.2806 H         1 RES1    0.0000
     33 H7         8.2149    8.5516   -2.8208 H         1 RES1    0.0000
     34 H8         7.7150    8.4652   -1.2857 H         1 RES1    0.0000
     35 H9         3.9177    5.6753    0.1401 H         1 RES1    0.0000
     36 H10        3.7106    7.2212    0.2115 H         1 RES1    0.0000
     37 H11        7.6280    7.7073    1.3994 H         1 RES1    0.0000
     38 H12        9.5939    8.2216    2.4903 H         1 RES1    0.0000
     39 H13        8.8497    5.0160    4.9904 H         1 RES1    0.0000
     40 H14        6.8111    4.6429    3.7822 H         1 RES1    0.0000
     41 H15        5.4396    3.8461   -0.7587 H         1 RES1    0.0000
     42 H16        8.0531    4.7926   -0.9834 H         1 RES1    0.0000
     43 H17       10.4397    2.5527    1.6972 H         1 RES1    0.0000
     44 H18        9.3604    1.5104    1.2804 H         1 RES1    0.0000
     45 H19        9.0513    2.5432    2.4260 H         1 RES1    0.0000
@<TRIPOS>BOND
     1    1    2 1
     2    2    3 1
     3    3    4 1
     4    4    5 1
     5    5    1 1
     6    6    5 1
     7    7    5 1
     8    8    3 1
     9    9    8 1
    10   10    9 1
    11   11   10 2
    12   12   10 1
    13   13   12 ar
    14   14   13 ar
    15   15   14 ar
    16   16   15 1
    17   17   16 2
    18   18   16 2
    19   19   15 ar
    20   20   12 ar
    21   21    2 1
    22   22   21 2
    23   23   22 1
    24   24   23 2
    25   25   23 1
    26   26   25 1
    27   27    2 1
    28   28    3 1
    29   29    6 1
    30   30    6 1
    31   31    6 1
    32   32    7 1
    33   33    7 1
    34   34    7 1
    35   35    8 1
    36   36    8 1
    37   37   13 1
    38   38   14 1
    39   39   19 1
    40   40   20 1
    41   41   21 1
    42   42   22 1
    43   43   26 1
    44   44   26 1
    45   45   26 1
    46   19   20 ar
@<TRIPOS>SUBSTRUCTURE
     1 RES1 1

@<TRIPOS>CRYSIN
   6.4158    8.0401    9.2337  73.5130  79.6666  71.2553   1 1

