# MOL2 file generated by ConQuest
# Please check atom types

@<TRIPOS>MOLECULE
PIZNUJ
    38    40     1
SMALL
NO_CHARGES
****
Generated from CSD

@<TRIPOS>ATOM
      1 C1         3.4846    8.7983   12.4545 C.3       1 RES1    0.0000
      2 H1         3.0649    9.6272   12.1433 H         1 RES1    0.0000
      3 C2         3.4368    8.7869   13.9608 C.ar      1 RES1    0.0000
      4 C3         3.2869    9.9696   14.6602 C.ar      1 RES1    0.0000
      5 H2         3.1858   10.7652   14.1900 H         1 RES1    0.0000
      6 C4         3.2822    9.9944   16.0383 C.ar      1 RES1    0.0000
      7 H3         3.1792   10.8043   16.4846 H         1 RES1    0.0000
      8 C5         3.4302    8.8355   16.7599 C.ar      1 RES1    0.0000
      9 C6         3.5792    7.6518   16.0776 C.ar      1 RES1    0.0000
     10 H4         3.6813    6.8553   16.5478 H         1 RES1    0.0000
     11 C7         3.5773    7.6384   14.6995 C.ar      1 RES1    0.0000
     12 H5         3.6738    6.8267   14.2566 H         1 RES1    0.0000
     13 O1         3.3937    8.9700   18.1243 O.3       1 RES1    0.0000
     14 C8         3.6757    7.7958   18.8869 C.3       1 RES1    0.0000
     15 H6         2.9872    7.1434   18.7347 H         1 RES1    0.0000
     16 H7         3.7047    8.0190   19.8205 H         1 RES1    0.0000
     17 H8         4.5234    7.4343   18.6167 H         1 RES1    0.0000
     18 C9         2.7333    7.6270   11.8338 C.3       1 RES1    0.0000
     19 H9         2.8045    7.6823   10.8677 H         1 RES1    0.0000
     20 H10        3.1520    6.7990   12.1159 H         1 RES1    0.0000
     21 N1         1.2758    7.5926   12.2151 N.pl3     1 RES1    0.0000
     22 O2         0.7203    8.6238   12.4955 O.2       1 RES1    0.0000
     23 O3         0.7541    6.5014   12.2254 O.2       1 RES1    0.0000
     24 C10        4.9018    8.7554   11.9142 C.2       1 RES1    0.0000
     25 C11        6.0118    8.6819   12.6648 C.2       1 RES1    0.0000
     26 H11        6.0212    8.6447   13.5949 H         1 RES1    0.0000
     27 N2         7.1330    8.6715   11.8663 N.pl3     1 RES1    0.0000
     28 H12        7.9489    8.6238   12.1330 H         1 RES1    0.0000
     29 C12        6.7050    8.7497   10.5754 C.ar      1 RES1    0.0000
     30 C13        5.3158    8.8193   10.5514 C.ar      1 RES1    0.0000
     31 C14        4.6770    8.9118    9.3220 C.ar      1 RES1    0.0000
     32 H13        3.7478    8.9414    9.2827 H         1 RES1    0.0000
     33 C15        5.4179    8.9595    8.1594 C.ar      1 RES1    0.0000
     34 H14        4.9908    9.0396    7.3369 H         1 RES1    0.0000
     35 C16        6.8108    8.8861    8.2209 C.ar      1 RES1    0.0000
     36 H15        7.3017    8.8975    7.4310 H         1 RES1    0.0000
     37 C17        7.4749    8.7993    9.4212 C.ar      1 RES1    0.0000
     38 H16        8.4042    8.7735    9.4588 H         1 RES1    0.0000
@<TRIPOS>BOND
     1    1    2 1
     2    3    1 1
     3    4    3 ar
     4    5    4 1
     5    6    4 ar
     6    7    6 1
     7    8    6 ar
     8    9    8 ar
     9   10    9 1
    10   11    3 ar
    11   12   11 1
    12   13    8 1
    13   14   13 1
    14   15   14 1
    15   16   14 1
    16   17   14 1
    17   18    1 1
    18   19   18 1
    19   20   18 1
    20   21   18 1
    21   22   21 2
    22   23   21 2
    23   24    1 1
    24   25   24 2
    25   26   25 1
    26   27   25 1
    27   28   27 1
    28   29   27 1
    29   30   24 1
    30   31   30 ar
    31   32   31 1
    32   33   31 ar
    33   34   33 1
    34   35   33 ar
    35   36   35 1
    36   37   29 ar
    37   38   37 1
    38    9   11 ar
    39   29   30 ar
    40   35   37 ar
@<TRIPOS>SUBSTRUCTURE
     1 RES1 1

@<TRIPOS>CRYSIN
   9.3671    9.5385   17.0984  90.0000  90.0000  90.0000  19 1

