# MOL2 file generated by ConQuest
# Please check atom types

@<TRIPOS>MOLECULE
PIZQIY
    49    51     2
SMALL
NO_CHARGES
****
Generated from CSD

@<TRIPOS>ATOM
      1 O1         6.0836    4.9225   18.0912 O.2       1 RES1    0.0000
      2 O2         4.7773    4.4942   16.5232 O.2       1 RES1    0.0000
      3 O3         7.1218    3.3450   14.0344 O.2       1 RES1    0.0000
      4 O4         4.0825    2.8586   11.7249 O.2       1 RES1    0.0000
      5 N1         5.6315    4.1493   17.2795 N.pl3     1 RES1    0.0000
      6 N2         2.5987    2.5630   13.4223 N.am      1 RES1    0.0000
      7 C1        -0.5117    4.0969   16.5177 C.3       1 RES1    0.0000
      8 C2         0.7687    3.8314   15.7947 C.3       1 RES1    0.0000
      9 C3         1.0037    2.3518   15.3583 C.3       1 RES1    0.0000
     10 C4         1.2562    1.4942   16.6138 C.3       1 RES1    0.0000
     11 C5         2.7364    1.6851   16.9670 C.3       1 RES1    0.0000
     12 C6         2.3647    2.3043   14.7407 C.2       1 RES1    0.0000
     13 C7         3.3444    2.0368   15.6264 C.2       1 RES1    0.0000
     14 C8         4.6849    2.1822   15.2196 C.2       1 RES1    0.0000
     15 C9         6.4405    0.7103   16.1516 C.ar      1 RES1    0.0000
     16 C10        7.4591    0.3886   17.0373 C.ar      1 RES1    0.0000
     17 C11        7.8260    1.2645   18.0136 C.ar      1 RES1    0.0000
     18 C12        7.2005    2.4690   18.1042 C.ar      1 RES1    0.0000
     19 C13        6.1979    2.7994   17.1944 C.ar      1 RES1    0.0000
     20 C14        5.7866    1.9167   16.2033 C.ar      1 RES1    0.0000
     21 C15        4.9547    2.4564   13.8994 C.2       1 RES1    0.0000
     22 C16        6.3783    2.6085   13.4316 C.2       1 RES1    0.0000
     23 C17        6.8557    1.7897   12.2981 C.3       1 RES1    0.0000
     24 C18        3.9122    2.6250   12.9305 C.2       1 RES1    0.0000
     25 C19        1.4880    2.5766   12.4497 C.3       1 RES1    0.0000
     26 C20        0.1337    2.6076   13.0414 C.3       1 RES1    0.0000
     27 C21       -0.0133    1.8537   14.3635 C.3       1 RES1    0.0000
     28 H1        -0.5961    5.0204   16.7654 H         1 RES1    0.0000
     29 H2        -1.2409    3.8527   15.9426 H         1 RES1    0.0000
     30 H3        -0.5300    3.5494   17.3072 H         1 RES1    0.0000
     31 H4         1.4939    4.0931   16.3661 H         1 RES1    0.0000
     32 H5         0.7895    4.3925   15.0162 H         1 RES1    0.0000
     33 H6         1.0804    0.5669   16.4400 H         1 RES1    0.0000
     34 H7         0.6873    1.7917   17.3276 H         1 RES1    0.0000
     35 H8         3.1341    0.8924   17.3350 H         1 RES1    0.0000
     36 H9         2.8492    2.4138   17.5809 H         1 RES1    0.0000
     37 H10        6.1796    0.0775   15.4785 H         1 RES1    0.0000
     38 H11        7.9083   -0.4574   16.9633 H         1 RES1    0.0000
     39 H12        8.5245    1.0388   18.6330 H         1 RES1    0.0000
     40 H13        7.4484    3.1008   18.7846 H         1 RES1    0.0000
     41 H14        7.7745    2.0029   12.1206 H         1 RES1    0.0000
     42 H15        6.7801    0.8585   12.5182 H         1 RES1    0.0000
     43 H16        6.3262    1.9787   11.5197 H         1 RES1    0.0000
     44 H17        1.5733    1.8043   11.8858 H         1 RES1    0.0000
     45 H18        1.5894    3.3556   11.8987 H         1 RES1    0.0000
     46 H19       -0.6043    3.0659   12.6328 H         1 RES1    0.0000
     47 H20       -0.8955    1.9806   14.7222 H         1 RES1    0.0000
     48 H21        0.1224    0.9147   14.2174 H         1 RES1    0.0000
     49 H22       -0.4127    2.0552   12.1243 Du        2 SUP2    0.0000
@<TRIPOS>BOND
     1    1    5 2
     2    2    5 2
     3    3   22 2
     4    4   24 2
     5    5   19 1
     6    6   12 1
     7    7    8 1
     8    8    9 1
     9    9   10 1
    10   10   11 1
    11   11   13 1
    12   12    9 1
    13   13   12 2
    14   14   13 1
    15   15   16 ar
    16   16   17 ar
    17   17   18 ar
    18   18   19 ar
    19   19   20 ar
    20   20   14 1
    21   21   14 2
    22   22   21 1
    23   23   22 1
    24   24    6 1
    25   25    6 1
    26   26   25 1
    27   27    9 1
    28   28    7 1
    29   29    7 1
    30   30    7 1
    31   31    8 1
    32   32    8 1
    33   33   10 1
    34   34   10 1
    35   35   11 1
    36   36   11 1
    37   37   15 1
    38   38   16 1
    39   39   17 1
    40   40   18 1
    41   41   23 1
    42   42   23 1
    43   43   23 1
    44   44   25 1
    45   45   25 1
    46   46   26 1
    47   47   27 1
    48   48   27 1
    49   15   20 ar
    50   21   24 1
    51   26   27 1
@<TRIPOS>SUBSTRUCTURE
     1 RES1 1
     2 SUP2 49

@<TRIPOS>CRYSIN
  10.5030    9.6900   18.5160  90.0000  93.0000  90.0000 231 1

