# MOL2 file generated by ConQuest
# Please check atom types

@<TRIPOS>MOLECULE
PIZQOE
    49    52     1
SMALL
NO_CHARGES
****
Generated from CSD

@<TRIPOS>ATOM
      1 O1         6.2322    3.5467    0.9869 O.2       1 RES1    0.0000
      2 O2         4.2593    4.0152    1.6471 O.2       1 RES1    0.0000
      3 O3         6.3475    3.9349    4.5083 O.2       1 RES1    0.0000
      4 O4         3.0047    3.6210    6.6959 O.2       1 RES1    0.0000
      5 N1         5.4346    4.2740    1.5355 N.pl3     1 RES1    0.0000
      6 N2         1.7814    4.7748    5.1725 N.am      1 RES1    0.0000
      7 C1        -1.2276    5.2337    1.6511 C.3       1 RES1    0.0000
      8 C2         0.0864    4.9809    2.3705 C.3       1 RES1    0.0000
      9 C3         0.4492    6.0389    3.4474 C.3       1 RES1    0.0000
     10 C4         0.9610    7.3306    2.7550 C.3       1 RES1    0.0000
     11 C5         2.4370    7.0562    2.4068 C.3       1 RES1    0.0000
     12 C6         2.8482    6.0689    3.4770 C.2       1 RES1    0.0000
     13 C7         1.7281    5.5920    4.0915 C.2       1 RES1    0.0000
     14 C8         4.1082    5.5908    3.8629 C.2       1 RES1    0.0000
     15 C9         5.8605    7.3270    3.6303 C.ar      1 RES1    0.0000
     16 C10        6.9467    7.9033    3.0064 C.ar      1 RES1    0.0000
     17 C11        7.5063    7.3198    1.8999 C.ar      1 RES1    0.0000
     18 C12        7.0090    6.1264    1.4266 C.ar      1 RES1    0.0000
     19 C13        5.9255    5.5632    2.0585 C.ar      1 RES1    0.0000
     20 C14        5.3051    6.1348    3.1557 C.ar      1 RES1    0.0000
     21 C15        4.1922    4.7257    4.9426 C.2       1 RES1    0.0000
     22 C16        5.5154    4.1733    5.3513 C.2       1 RES1    0.0000
     23 C17        5.8373    3.9229    6.7820 C.3       1 RES1    0.0000
     24 C18        3.0152    4.3291    5.6781 C.2       1 RES1    0.0000
     25 C19        0.5715    4.5076    5.9793 C.3       1 RES1    0.0000
     26 C20       -0.7152    4.9090    5.3150 C.3       1 RES1    0.0000
     27 C21       -0.6233    6.2019    4.5110 C.3       1 RES1    0.0000
     28 H1        -1.3941    4.5448    1.0030 H         1 RES1    0.0000
     29 H2        -1.9410    5.2481    2.2938 H         1 RES1    0.0000
     30 H3        -1.1787    6.0845    1.2088 H         1 RES1    0.0000
     31 H4         0.7901    4.9474    1.7197 H         1 RES1    0.0000
     32 H5         0.0354    4.1194    2.7926 H         1 RES1    0.0000
     33 H6         0.8834    8.0795    3.3506 H         1 RES1    0.0000
     34 H7         0.4507    7.5091    1.9617 H         1 RES1    0.0000
     35 H8         2.9654    7.8566    2.4579 H         1 RES1    0.0000
     36 H9         2.5255    6.6740    1.5315 H         1 RES1    0.0000
     37 H10        5.4747    7.7452    4.4034 H         1 RES1    0.0000
     38 H11        7.3178    8.7205    3.3480 H         1 RES1    0.0000
     39 H12        8.2466    7.7380    1.4548 H         1 RES1    0.0000
     40 H13        7.4031    5.6915    0.6669 H         1 RES1    0.0000
     41 H14        6.7292    3.5778    6.8613 H         1 RES1    0.0000
     42 H15        5.7650    4.7401    7.2808 H         1 RES1    0.0000
     43 H16        5.2133    3.2807    7.1302 H         1 RES1    0.0000
     44 H17        0.6456    4.9977    6.8021 H         1 RES1    0.0000
     45 H18        0.5424    3.5718    6.1957 H         1 RES1    0.0000
     46 H19       -1.4092    4.9881    5.9739 H         1 RES1    0.0000
     47 H20       -0.9640    4.2057    4.7113 H         1 RES1    0.0000
     48 H21       -1.4658    6.3996    4.0955 H         1 RES1    0.0000
     49 H22       -0.3936    6.9268    5.0972 H         1 RES1    0.0000
@<TRIPOS>BOND
     1    1    5 2
     2    2    5 2
     3    3   22 2
     4    4   24 2
     5    5   19 1
     6    6   13 1
     7    7    8 1
     8    8    9 1
     9    9   10 1
    10   10   11 1
    11   11   12 1
    12   12   13 2
    13   13    9 1
    14   14   12 1
    15   15   16 ar
    16   16   17 ar
    17   17   18 ar
    18   18   19 ar
    19   19   20 ar
    20   20   14 1
    21   21   14 2
    22   22   21 1
    23   23   22 1
    24   24    6 1
    25   25    6 1
    26   26   25 1
    27   27    9 1
    28   28    7 1
    29   29    7 1
    30   30    7 1
    31   31    8 1
    32   32    8 1
    33   33   10 1
    34   34   10 1
    35   35   11 1
    36   36   11 1
    37   37   15 1
    38   38   16 1
    39   39   17 1
    40   40   18 1
    41   41   23 1
    42   42   23 1
    43   43   23 1
    44   44   25 1
    45   45   25 1
    46   46   26 1
    47   47   26 1
    48   48   27 1
    49   49   27 1
    50   15   20 ar
    51   21   24 1
    52   26   27 1
@<TRIPOS>SUBSTRUCTURE
     1 RES1 1

@<TRIPOS>CRYSIN
  11.6870   11.9820   13.8530  90.0000 103.9300  90.0000 231 1

