# MOL2 file generated by ConQuest
# Please check atom types

@<TRIPOS>MOLECULE
PMAANO10
    22    24     1
SMALL
NO_CHARGES
****
Generated from CSD

@<TRIPOS>ATOM
      1 C1         3.3090    6.4647    2.5432 C.ar      1 RES1    0.0000
      2 C2        -1.2927    5.2086    2.9034 C.ar      1 RES1    0.0000
      3 C3        -0.4384    4.1300    2.8832 C.ar      1 RES1    0.0000
      4 C4        -0.8631    2.9097    2.3778 C.ar      1 RES1    0.0000
      5 C5        -2.1372    2.7428    1.8845 C.ar      1 RES1    0.0000
      6 C6        -2.9972    3.8452    1.9279 C.ar      1 RES1    0.0000
      7 C7        -2.5953    5.0602    2.4181 C.ar      1 RES1    0.0000
      8 C8         2.4355    9.1809    1.9319 C.3       1 RES1    0.0000
      9 C9         2.7184    8.9133    4.4065 C.3       1 RES1    0.0000
     10 C10       -0.9183    7.7817    1.3407 C.3       1 RES1    0.0000
     11 C11        4.3242    6.1931    3.4784 C.ar      1 RES1    0.0000
     12 C12        5.5562    5.7439    3.0315 C.ar      1 RES1    0.0000
     13 C13        5.8090    5.5292    1.7231 C.ar      1 RES1    0.0000
     14 C14        4.8140    5.7558    0.7950 C.ar      1 RES1    0.0000
     15 C15        3.5810    6.2103    1.2126 C.ar      1 RES1    0.0000
     16 C16        1.9557    8.4535    3.1687 C.3       1 RES1    0.0000
     17 C17        0.4555    8.5370    3.3533 C.3       1 RES1    0.0000
     18 C18       -0.0774    7.3551    2.5614 C.3       1 RES1    0.0000
     19 N1         2.0776    6.9549    3.0688 N.3       1 RES1    0.0000
     20 N2        -0.8296    6.4355    3.5026 N.3       1 RES1    0.0000
     21 O1         1.0491    6.6595    2.0751 O.3       1 RES1    0.0000
     22 O2        -1.9356    7.1828    4.0212 O.3       1 RES1    0.0000
@<TRIPOS>BOND
     1    1   11 ar
     2    2    3 ar
     3    3    4 ar
     4    4    5 ar
     5    5    6 ar
     6    6    7 ar
     7    7    2 ar
     8    8   16 1
     9    9   16 1
    10   10   18 1
    11   11   12 ar
    12   12   13 ar
    13   13   14 ar
    14   14   15 ar
    15   15    1 ar
    16   16   17 1
    17   17   18 1
    18   18   20 1
    19   19    1 1
    20   20    2 1
    21   21   18 1
    22   22   20 1
    23   16   19 1
    24   19   21 1
@<TRIPOS>SUBSTRUCTURE
     1 RES1 1

@<TRIPOS>CRYSIN
  12.4500   13.2500   10.1800  90.0000  97.7000  90.0000 231 1

