# MOL2 file generated by ConQuest
# Please check atom types

@<TRIPOS>MOLECULE
PMAANO01
    22    24     1
SMALL
NO_CHARGES
****
Generated from CSD

@<TRIPOS>ATOM
      1 C1        -1.6503    1.2470   -7.0432 C.ar      1 RES1    0.0000
      2 C2        -4.8112    0.0317  -10.2516 C.ar      1 RES1    0.0000
      3 C3        -3.6961   -0.7481  -10.1277 C.ar      1 RES1    0.0000
      4 C4        -3.2126   -1.4526  -11.2594 C.ar      1 RES1    0.0000
      5 C5        -3.8474   -1.3524  -12.4700 C.ar      1 RES1    0.0000
      6 C6        -4.9640   -0.5719  -12.5731 C.ar      1 RES1    0.0000
      7 C7        -5.4687    0.1268  -11.4687 C.ar      1 RES1    0.0000
      8 C8        -4.0144    2.0024   -5.1548 C.3       1 RES1    0.0000
      9 C9        -2.9765    3.7911   -6.5989 C.3       1 RES1    0.0000
     10 C10       -4.6811    2.9635   -9.9731 C.3       1 RES1    0.0000
     11 C11       -0.6994    1.9228   -7.8063 C.ar      1 RES1    0.0000
     12 C12        0.6248    1.7319   -7.4601 C.ar      1 RES1    0.0000
     13 C13        0.9685    0.9485   -6.3751 C.ar      1 RES1    0.0000
     14 C14        0.0274    0.3140   -5.6539 C.ar      1 RES1    0.0000
     15 C15       -1.2824    0.4481   -5.9710 C.ar      1 RES1    0.0000
     16 C16       -3.7231    2.4911   -6.5924 C.3       1 RES1    0.0000
     17 C17       -4.9758    2.5692   -7.4408 C.3       1 RES1    0.0000
     18 C18       -4.5441    2.0091   -8.8205 C.3       1 RES1    0.0000
     19 N1        -3.0204    1.3583   -7.2814 N.3       1 RES1    0.0000
     20 N2        -5.2502    0.7001   -9.0555 N.3       1 RES1    0.0000
     21 O1        -3.1970    1.7224   -8.6997 O.3       1 RES1    0.0000
     22 O2        -6.6206    1.0561   -9.2133 O.3       1 RES1    0.0000
@<TRIPOS>BOND
     1    1   11 ar
     2    2    3 ar
     3    3    4 ar
     4    4    5 ar
     5    5    6 ar
     6    6    7 ar
     7    7    2 ar
     8    8   16 1
     9    9   16 1
    10   10   18 1
    11   11   12 ar
    12   12   13 ar
    13   13   14 ar
    14   14   15 ar
    15   15    1 ar
    16   16   17 1
    17   17   18 1
    18   18   20 1
    19   19    1 1
    20   20    2 1
    21   21   18 1
    22   22   20 1
    23   16   19 1
    24   19   21 1
@<TRIPOS>SUBSTRUCTURE
     1 RES1 1

@<TRIPOS>CRYSIN
  13.6400    7.3700   16.1400  90.0000  94.1000  90.0000 231 1

