# MOL2 file generated by ConQuest
# Please check atom types

@<TRIPOS>MOLECULE
PMNBOX
    42    44     1
SMALL
NO_CHARGES
****
Generated from CSD

@<TRIPOS>ATOM
      1 C1        -1.8487    0.8174    1.9084 C.2       1 RES1    0.0000
      2 C2        -4.8119    4.9956    2.3368 C.3       1 RES1    0.0000
      3 C3        -4.7230    3.9211    1.2639 C.3       1 RES1    0.0000
      4 C4        -3.3894    3.1732    1.4301 C.3       1 RES1    0.0000
      5 C5        -0.4202    2.8313    2.5386 C.3       1 RES1    0.0000
      6 C6        -5.9256    2.9778    1.3411 C.3       1 RES1    0.0000
      7 C7        -4.7487    4.5586   -0.1246 C.3       1 RES1    0.0000
      8 C8        -1.6119    1.9664    2.8436 C.3       1 RES1    0.0000
      9 C9        -1.5851    1.3392    4.2606 C.3       1 RES1    0.0000
     10 C10       -3.0322    0.8791    4.5039 C.3       1 RES1    0.0000
     11 C11       -3.7451    1.2801    3.2091 C.3       1 RES1    0.0000
     12 C12       -3.2565    0.3239    2.1208 C.3       1 RES1    0.0000
     13 C13       -3.0485    2.6244    2.8175 C.3       1 RES1    0.0000
     14 C14       -3.2119    3.7618    3.8298 C.3       1 RES1    0.0000
     15 C15       -4.5653    4.4558    3.7301 C.3       1 RES1    0.0000
     16 H1        -0.7024   -0.7711   -0.4272 H         1 RES1    0.0000
     17 H2        -5.7574    5.3978    2.3380 H         1 RES1    0.0000
     18 H3        -4.0196    5.6420    2.1481 H         1 RES1    0.0000
     19 H4        -3.3027    2.4419    0.7477 H         1 RES1    0.0000
     20 H5        -2.6739    3.8170    1.1749 H         1 RES1    0.0000
     21 H6        -0.3866    3.5986    3.1688 H         1 RES1    0.0000
     22 H7        -0.4387    3.2130    1.6853 H         1 RES1    0.0000
     23 H8         0.4380    2.2877    2.6703 H         1 RES1    0.0000
     24 H9        -6.1171    2.5447    2.2193 H         1 RES1    0.0000
     25 H10       -5.7741    2.1848    0.6646 H         1 RES1    0.0000
     26 H11       -6.7790    3.4572    1.0325 H         1 RES1    0.0000
     27 H12       -5.5002    5.1922   -0.2730 H         1 RES1    0.0000
     28 H13       -4.6671    3.7271   -0.8664 H         1 RES1    0.0000
     29 H14       -3.9400    5.0637   -0.2136 H         1 RES1    0.0000
     30 H15       -1.2849    2.0178    4.9252 H         1 RES1    0.0000
     31 H16       -0.9996    0.6683    4.2962 H         1 RES1    0.0000
     32 H17       -3.4355    1.3495    5.3050 H         1 RES1    0.0000
     33 H18       -3.0168   -0.1028    4.6641 H         1 RES1    0.0000
     34 H19       -4.7154    1.2852    3.2756 H         1 RES1    0.0000
     35 H20       -3.7962    0.3213    1.2224 H         1 RES1    0.0000
     36 H21       -3.2914   -0.5783    2.3143 H         1 RES1    0.0000
     37 H22       -3.0758    3.4700    4.7710 H         1 RES1    0.0000
     38 H23       -2.4674    4.4339    3.6554 H         1 RES1    0.0000
     39 H24       -5.2995    3.7142    3.9402 H         1 RES1    0.0000
     40 H25       -4.6520    5.2051    4.4149 H         1 RES1    0.0000
     41 N1        -0.9801    0.4228    1.0764 N.2       1 RES1    0.0000
     42 O1        -1.4637   -0.6709    0.3086 O.3       1 RES1    0.0000
@<TRIPOS>BOND
     1    1    8 1
     2    2    3 1
     3    3    4 1
     4    4   13 1
     5    5    8 1
     6    6    3 1
     7    7    3 1
     8    8    9 1
     9    9   10 1
    10   10   11 1
    11   11   12 1
    12   12    1 1
    13   13    8 1
    14   14   13 1
    15   15    2 1
    16   16   42 1
    17   17    2 1
    18   18    2 1
    19   19    4 1
    20   20    4 1
    21   21    5 1
    22   22    5 1
    23   23    5 1
    24   24    6 1
    25   25    6 1
    26   26    6 1
    27   27    7 1
    28   28    7 1
    29   29    7 1
    30   30    9 1
    31   31    9 1
    32   32   10 1
    33   33   10 1
    34   34   11 1
    35   35   12 1
    36   36   12 1
    37   37   14 1
    38   38   14 1
    39   39   15 1
    40   40   15 1
    41   41    1 2
    42   42   41 1
    43   11   13 1
    44   14   15 1
@<TRIPOS>SUBSTRUCTURE
     1 RES1 1

@<TRIPOS>CRYSIN
   9.2020   12.8520   12.6980  90.0000 110.8300  90.0000  14 1

