# MOL2 file generated by ConQuest
# Please check atom types

@<TRIPOS>MOLECULE
PMNTBZ01
    44    29     2
SMALL
NO_CHARGES
****
Generated from CSD

@<TRIPOS>ATOM
      1 C1         1.5867    2.2384    5.1773 C.ar      1 RES1    0.0000
      2 C2         2.4640    1.2419    4.7551 C.ar      1 RES1    0.0000
      3 C3         2.4436    0.9272    3.3879 C.ar      1 RES1    0.0000
      4 C4         1.5651    1.6014    2.5156 C.ar      1 RES1    0.0000
      5 C5         0.7049    2.6026    3.0012 C.ar      1 RES1    0.0000
      6 C6         0.7027    2.9378    4.3607 C.ar      1 RES1    0.0000
      7 C7         3.3934    0.5512    5.7186 C.3       1 RES1    0.0000
      8 H1         3.3236    0.9738    6.6002 H         1 RES1    0.0000
      9 H2         4.3145    0.6237    5.3931 H         1 RES1    0.0000
     10 H3         3.1458   -0.3948    5.7898 H         1 RES1    0.0000
     11 C8         3.3865   -0.1396    2.8798 C.3       1 RES1    0.0000
     12 H4         3.5793    0.0196    1.9317 H         1 RES1    0.0000
     13 H5         2.9705   -1.0205    2.9850 H         1 RES1    0.0000
     14 H6         4.2212   -0.1095    3.3925 H         1 RES1    0.0000
     15 C9         1.5560    1.2427    1.0463 C.3       1 RES1    0.0000
     16 H7         0.9648    1.8579    0.5630 H         1 RES1    0.0000
     17 H8         1.2322    0.3245    0.9357 H         1 RES1    0.0000
     18 H9         2.4648    1.3139    0.6867 H         1 RES1    0.0000
     19 C10       -0.2446    3.3240    2.0655 C.3       1 RES1    0.0000
     20 H10       -0.4322    4.2198    2.4174 H         1 RES1    0.0000
     21 H11       -1.0815    2.8189    1.9959 H         1 RES1    0.0000
     22 H12        0.1656    3.4007    1.1793 H         1 RES1    0.0000
     23 C11       -0.2185    3.9976    4.9252 C.3       1 RES1    0.0000
     24 H13       -0.0951    4.0548    5.8957 H         1 RES1    0.0000
     25 H14       -1.1487    3.7608    4.7272 H         1 RES1    0.0000
     26 H15       -0.0085    4.8634    4.5169 H         1 RES1    0.0000
     27 N1         1.5955    2.5766    6.6157 N.pl3     1 RES1    0.0000
     28 O1         2.2726    3.5152    6.9830 O.2       1 RES1    0.0000
     29 O2         0.9123    1.9133    7.3665 O.2       1 RES1    0.0000
     30 H16       -0.4665    2.7399    1.3108 Du        2 SUP2    0.0000
     31 H17        0.1828    4.1408    1.7322 Du        2 SUP2    0.0000
     32 H18       -1.0642    3.5583    2.5488 Du        2 SUP2    0.0000
     33 H19       -0.7396    4.3979    4.1975 Du        2 SUP2    0.0000
     34 H20        0.3141    4.6918    5.3660 Du        2 SUP2    0.0000
     35 H21       -0.8262    3.5893    5.5763 Du        2 SUP2    0.0000
     36 H22        3.8656   -0.1717    5.2554 Du        2 SUP2    0.0000
     37 H23        2.8748    0.1787    6.4618 Du        2 SUP2    0.0000
     38 H24        4.0435    1.1972    6.0651 Du        2 SUP2    0.0000
     39 H25        3.6011   -0.7594    3.6075 Du        2 SUP2    0.0000
     40 H26        4.2103    0.2805    2.5550 Du        2 SUP2    0.0000
     41 H27        2.9592   -0.6311    2.1475 Du        2 SUP2    0.0000
     42 H28        2.1432    0.4732    0.8939 Du        2 SUP2    0.0000
     43 H29        1.8758    2.0066    0.5212 Du        2 SUP2    0.0000
     44 H30        0.6428    1.0171    0.7702 Du        2 SUP2    0.0000
@<TRIPOS>BOND
     1    1    2 ar
     2    2    3 ar
     3    3    4 ar
     4    4    5 ar
     5    5    6 ar
     6    6    1 ar
     7    7    2 1
     8    8    7 1
     9    9    7 1
    10   10    7 1
    11   11    3 1
    12   12   11 1
    13   13   11 1
    14   14   11 1
    15   15    4 1
    16   16   15 1
    17   17   15 1
    18   18   15 1
    19   19    5 1
    20   20   19 1
    21   21   19 1
    22   22   19 1
    23   23    6 1
    24   24   23 1
    25   25   23 1
    26   26   23 1
    27   27    1 1
    28   28   27 2
    29   29   27 2
@<TRIPOS>SUBSTRUCTURE
     1 RES1 1
     2 SUP2 30

@<TRIPOS>CRYSIN
   5.2871    6.3187    8.1926 105.6250  98.6880  98.1210   1 1

