# MOL2 file generated by ConQuest
# Please check atom types

@<TRIPOS>MOLECULE
PMNTBZ
    14    14     1
SMALL
NO_CHARGES
****
Generated from CSD

@<TRIPOS>ATOM
      1 C1         2.5445   -2.8775    0.4629 C.ar      1 RES1    0.0000
      2 C2         3.3255   -3.5090   -0.4473 C.ar      1 RES1    0.0000
      3 C3         3.0110   -4.7966   -0.7750 C.ar      1 RES1    0.0000
      4 C4         1.9007   -5.4674   -0.1612 C.ar      1 RES1    0.0000
      5 C5         1.1269   -4.7361    0.7646 C.ar      1 RES1    0.0000
      6 C6         1.4207   -3.4268    1.1027 C.ar      1 RES1    0.0000
      7 C7         4.5326   -2.8147   -1.1339 C.3       1 RES1    0.0000
      8 C8         3.8473   -5.6454   -1.8205 C.3       1 RES1    0.0000
      9 C9         1.5539   -6.9301   -0.5618 C.3       1 RES1    0.0000
     10 C10       -0.0693   -5.4362    1.4044 C.3       1 RES1    0.0000
     11 C11        0.5885   -2.6701    2.0962 C.3       1 RES1    0.0000
     12 N1         2.8631   -1.4705    0.8270 N.pl3     1 RES1    0.0000
     13 O1         3.6570   -1.3054    1.6905 O.2       1 RES1    0.0000
     14 O2         2.3135   -0.6068    0.2393 O.2       1 RES1    0.0000
@<TRIPOS>BOND
     1    1    2 ar
     2    2    3 ar
     3    3    4 ar
     4    4    5 ar
     5    5    6 ar
     6    6    1 ar
     7    7    2 1
     8    8    3 1
     9    9    4 1
    10   10    5 1
    11   11    6 1
    12   12    1 1
    13   13   12 2
    14   14   12 2
@<TRIPOS>SUBSTRUCTURE
     1 RES1 1

@<TRIPOS>CRYSIN
   6.3540    8.2400    5.3670  99.4000  97.7000 105.5300   1 1

