# MOL2 file generated by ConQuest
# Please check atom types

@<TRIPOS>MOLECULE
PNBPIP
    31    32     1
SMALL
NO_CHARGES
****
Generated from CSD

@<TRIPOS>ATOM
      1 C1         2.3681    1.0391    3.1918 C.ar      1 RES1    0.0000
      2 C2         1.5377    1.8039    4.0181 C.ar      1 RES1    0.0000
      3 C3         0.1679    1.5794    4.0270 C.ar      1 RES1    0.0000
      4 C4        -0.3358    0.6151    3.2027 C.ar      1 RES1    0.0000
      5 C5         0.4577   -0.1631    2.3805 C.ar      1 RES1    0.0000
      6 C6         1.8206    0.0592    2.3834 C.ar      1 RES1    0.0000
      7 C7         3.8517    1.2157    3.3309 C.2       1 RES1    0.0000
      8 C8         6.0633    1.3124    2.2861 C.3       1 RES1    0.0000
      9 C9         6.6545    2.6341    1.8293 C.3       1 RES1    0.0000
     10 C10        6.1622    2.9531    0.4201 C.3       1 RES1    0.0000
     11 C11        4.6418    2.9646    0.3903 C.3       1 RES1    0.0000
     12 C12        4.0714    1.6563    0.8858 C.3       1 RES1    0.0000
     13 N1         4.5923    1.3446    2.2087 N.am      1 RES1    0.0000
     14 O1         4.3531    1.1555    4.4471 O.2       1 RES1    0.0000
     15 N2        -1.7907    0.3647    3.1988 N.pl3     1 RES1    0.0000
     16 O2        -2.2473   -0.4271    2.4182 O.2       1 RES1    0.0000
     17 O3        -2.4716    0.9612    3.9913 O.2       1 RES1    0.0000
     18 H1         1.9195    2.5073    4.5673 H         1 RES1    0.0000
     19 H2        -0.4646    2.1904    4.5524 H         1 RES1    0.0000
     20 H3         0.1047   -0.7492    1.8343 H         1 RES1    0.0000
     21 H4         2.4279   -0.6027    1.7916 H         1 RES1    0.0000
     22 H5         6.3704    0.4530    1.4827 H         1 RES1    0.0000
     23 H6         6.1887    1.2033    3.2186 H         1 RES1    0.0000
     24 H7         6.2772    3.2306    2.5821 H         1 RES1    0.0000
     25 H8         7.6804    2.6071    1.9107 H         1 RES1    0.0000
     26 H9         6.5786    3.8395    0.1718 H         1 RES1    0.0000
     27 H10        6.4302    2.2673   -0.1738 H         1 RES1    0.0000
     28 H11        4.2611    3.8862    1.0527 H         1 RES1    0.0000
     29 H12        4.2807    2.9240   -0.5790 H         1 RES1    0.0000
     30 H13        3.1145    1.7779    0.9901 H         1 RES1    0.0000
     31 H14        4.3761    0.8676    0.1450 H         1 RES1    0.0000
@<TRIPOS>BOND
     1    1    2 ar
     2    2    3 ar
     3    3    4 ar
     4    4    5 ar
     5    5    6 ar
     6    6    1 ar
     7    7    1 1
     8    8    9 1
     9    9   10 1
    10   10   11 1
    11   11   12 1
    12   12   13 1
    13   13    7 1
    14   14    7 2
    15   15    4 1
    16   16   15 2
    17   17   15 2
    18   18    2 1
    19   19    3 1
    20   20    5 1
    21   21    6 1
    22   22    8 1
    23   23    8 1
    24   24    9 1
    25   25    9 1
    26   26   10 1
    27   27   10 1
    28   28   11 1
    29   29   11 1
    30   30   12 1
    31   31   12 1
    32    8   13 1
@<TRIPOS>SUBSTRUCTURE
     1 RES1 1

@<TRIPOS>CRYSIN
  11.5010   10.3910    9.9310  90.0000  90.0000  90.0000  19 1

