# MOL2 file generated by ConQuest
# Please check atom types

@<TRIPOS>MOLECULE
PNBZNT
    11    11     1
SMALL
NO_CHARGES
****
Generated from CSD

@<TRIPOS>ATOM
      1 C1         2.3901    0.0000    1.1072 C.ar      1 RES1    0.0000
      2 C2         3.7389    0.0551    1.4566 C.ar      1 RES1    0.0000
      3 C3         4.4745    1.1893    1.1633 C.ar      1 RES1    0.0000
      4 C4         3.8448    2.2317    0.5006 C.ar      1 RES1    0.0000
      5 C5         2.5031    2.1894    0.1386 C.ar      1 RES1    0.0000
      6 C6         1.7673    1.0700    0.4549 C.ar      1 RES1    0.0000
      7 C7         1.6173   -1.1632    1.4439 C.1       1 RES1    0.0000
      8 N1         1.0287   -2.0913    1.7280 N.1       1 RES1    0.0000
      9 N2         4.6378    3.4492    0.2062 N.pl3     1 RES1    0.0000
     10 O1         5.7574    3.5558    0.6757 O.2       1 RES1    0.0000
     11 O2         4.1413    4.2637   -0.5286 O.2       1 RES1    0.0000
@<TRIPOS>BOND
     1    1    2 ar
     2    2    3 ar
     3    3    4 ar
     4    4    5 ar
     5    5    6 ar
     6    6    1 ar
     7    7    1 1
     8    8    7 3
     9    9    4 1
    10   10    9 2
    11   11    9 2
@<TRIPOS>SUBSTRUCTURE
     1 RES1 1

@<TRIPOS>CRYSIN
  12.7320    7.0580    3.8470  90.0000  93.6700  90.0000   4 1

