# MOL2 file generated by ConQuest
# Please check atom types

@<TRIPOS>MOLECULE
PNEBCH
    76    78     2
SMALL
NO_CHARGES
****
Generated from CSD

@<TRIPOS>ATOM
      1 C1         2.9477    2.1460    1.0486 C.2       1 RES1    0.0000
      2 C2        -1.1641   -9.3342    4.8981 C.2       2 RES2    0.0000
      3 C3        -0.7326    4.8959   -0.6896 C.3       1 RES1    0.0000
      4 C4         0.7747   -4.8776    5.0650 C.3       2 RES2    0.0000
      5 C5         1.3780    1.0593    2.7289 C.3       1 RES1    0.0000
      6 C6         0.7202  -10.2402    3.5658 C.3       2 RES2    0.0000
      7 C7         0.6064    0.2265    1.7207 C.3       1 RES1    0.0000
      8 C8         0.6114    1.3452    4.0230 C.ar      1 RES1    0.0000
      9 C9        -0.0276  -11.5397    3.3607 C.3       2 RES2    0.0000
     10 C10        1.6635  -10.0137    2.4037 C.ar      2 RES2    0.0000
     11 C11       -0.7505    1.4802    4.0557 C.ar      1 RES1    0.0000
     12 C12        1.2023   -9.9085    1.0922 C.ar      2 RES2    0.0000
     13 C13       -1.3658    1.8005    5.2505 C.ar      1 RES1    0.0000
     14 C14        2.1285   -9.6728    0.0295 C.ar      2 RES2    0.0000
     15 C15        3.4244   -9.5790    0.2870 C.ar      2 RES2    0.0000
     16 C16       -0.6691    1.9812    6.3776 C.ar      1 RES1    0.0000
     17 C17        0.6755    1.8463    6.3558 C.ar      1 RES1    0.0000
     18 C18        3.9117   -9.7186    1.6138 C.ar      2 RES2    0.0000
     19 C19        1.3616    1.5122    5.1807 C.ar      1 RES1    0.0000
     20 C20        3.0003   -9.9130    2.6787 C.ar      2 RES2    0.0000
     21 C21        1.8358    2.3816    2.0753 C.3       1 RES1    0.0000
     22 C22       -0.3057   -9.1077    3.6684 C.3       2 RES2    0.0000
     23 C23        0.7607    3.2212    1.4807 C.3       1 RES1    0.0000
     24 C24        0.2861   -7.7007    3.7731 C.3       2 RES2    0.0000
     25 C25        1.2403    4.5733    0.9144 C.3       1 RES1    0.0000
     26 C26        1.0504   -7.4720    5.1076 C.3       2 RES2    0.0000
     27 C27        2.3013    4.2324   -0.1811 C.3       1 RES1    0.0000
     28 C28        0.0691   -7.6779    6.2587 C.3       2 RES2    0.0000
     29 C29        3.4079    3.4248    0.3470 C.3       1 RES1    0.0000
     30 C30       -0.5775   -9.0528    6.2118 C.3       2 RES2    0.0000
     31 C31        0.1604    5.5113    0.4659 C.3       1 RES1    0.0000
     32 C32        1.7455   -6.0901    5.1643 C.3       2 RES2    0.0000
     33 C33       -0.7698    5.8110    1.6989 C.3       1 RES1    0.0000
     34 C34        2.7706   -5.9414    3.9870 C.3       2 RES2    0.0000
     35 C35        0.8289    6.8634   -0.0098 C.3       1 RES1    0.0000
     36 C36        2.5783   -5.9895    6.4944 C.3       2 RES2    0.0000
     37 H1         2.2942    0.4942    3.0028 H         1 RES1    0.0000
     38 H2         1.3099  -10.3180    4.4965 H         2 RES2    0.0000
     39 H3        -0.2849    0.7687    1.4217 H         1 RES1    0.0000
     40 H4        -0.7993  -11.6426    4.1397 H         2 RES2    0.0000
     41 H5         1.2420    0.0755    0.8238 H         1 RES1    0.0000
     42 H6        -0.5583  -11.4848    2.3819 H         2 RES2    0.0000
     43 H7        -1.3421    1.3384    3.1490 H         1 RES1    0.0000
     44 H8         0.1389  -10.0160    0.8576 H         2 RES2    0.0000
     45 H9        -2.4714    1.8714    5.2941 H         1 RES1    0.0000
     46 H10        1.8170   -9.5356   -1.0071 H         2 RES2    0.0000
     47 H11       -1.1553    2.2581    7.3094 H         1 RES1    0.0000
     48 H12        4.1083   -9.3937   -0.5281 H         2 RES2    0.0000
     49 H13        1.2454    1.9927    7.2854 H         1 RES1    0.0000
     50 H14        5.0167   -9.7003    1.7796 H         2 RES2    0.0000
     51 H15        2.4535    1.4070    5.1687 H         1 RES1    0.0000
     52 H16        3.3408   -9.9725    3.7185 H         2 RES2    0.0000
     53 H17        2.2529    3.0039    2.8806 H         1 RES1    0.0000
     54 H18       -0.9712   -9.1398    2.7791 H         2 RES2    0.0000
     55 H19        0.0015    3.3997    2.2281 H         1 RES1    0.0000
     56 H20       -0.5193   -6.9618    3.7011 H         2 RES2    0.0000
     57 H21        0.3357    2.6516    0.6481 H         1 RES1    0.0000
     58 H22        0.9691   -7.5520    2.9242 H         2 RES2    0.0000
     59 H23        1.7660    5.0721    1.7371 H         1 RES1    0.0000
     60 H24        1.8444   -8.2544    5.1850 H         2 RES2    0.0000
     61 H25        2.7057    5.1567   -0.6132 H         1 RES1    0.0000
     62 H26       -0.7193   -6.9252    6.1910 H         2 RES2    0.0000
     63 H27        1.8203    3.6605   -0.9995 H         1 RES1    0.0000
     64 H28        0.5879   -7.5566    7.2200 H         2 RES2    0.0000
     65 H29        3.9551    4.0380    1.0769 H         1 RES1    0.0000
     66 H30       -1.3483   -9.1169    6.9865 H         2 RES2    0.0000
     67 H31        4.0842    3.1457   -0.4572 H         1 RES1    0.0000
     68 H32        0.1968   -9.8055    6.4333 H         2 RES2    0.0000
     69 N1         0.2161   -1.1347    2.2826 N.pl3     1 RES1    0.0000
     70 N2         0.9196  -12.7545    3.3748 N.pl3     2 RES2    0.0000
     71 O1         3.4175    1.0776    0.8314 O.2       1 RES1    0.0000
     72 O2        -2.2954   -9.7346    4.7573 O.2       2 RES2    0.0000
     73 O3        -0.8631   -1.5305    2.0371 O.2       1 RES1    0.0000
     74 O4         1.7991  -12.7613    4.1441 O.2       2 RES2    0.0000
     75 O5         1.0176   -1.7296    2.9591 O.2       1 RES1    0.0000
     76 O6         0.7092  -13.5827    2.5150 O.2       2 RES2    0.0000
@<TRIPOS>BOND
     1    1   21 1
     2    2   22 1
     3    3   31 1
     4    4   32 1
     5    5    7 1
     6    6    9 1
     7    7   39 1
     8    8    5 1
     9    9   40 1
    10   10    6 1
    11   11    8 ar
    12   12   10 ar
    13   13   11 ar
    14   14   12 ar
    15   15   14 ar
    16   16   13 ar
    17   17   16 ar
    18   18   15 ar
    19   19    8 ar
    20   20   10 ar
    21   21    5 1
    22   22    6 1
    23   23   21 1
    24   24   22 1
    25   25   23 1
    26   26   24 1
    27   27   25 1
    28   28   26 1
    29   29    1 1
    30   30    2 1
    31   31   25 1
    32   32   26 1
    33   33   31 1
    34   34   32 1
    35   35   31 1
    36   36   32 1
    37   37    5 1
    38   38    6 1
    39   41    7 1
    40   42    9 1
    41   43   11 1
    42   44   12 1
    43   45   13 1
    44   46   14 1
    45   47   16 1
    46   48   15 1
    47   49   17 1
    48   50   18 1
    49   51   19 1
    50   52   20 1
    51   53   21 1
    52   54   22 1
    53   55   23 1
    54   56   24 1
    55   57   23 1
    56   58   24 1
    57   59   25 1
    58   60   26 1
    59   61   27 1
    60   62   28 1
    61   63   27 1
    62   64   28 1
    63   65   29 1
    64   66   30 1
    65   67   29 1
    66   68   30 1
    67   69    7 1
    68   70    9 1
    69   71    1 2
    70   72    2 2
    71   73   69 2
    72   74   70 2
    73   75   69 2
    74   76   70 2
    75   17   19 ar
    76   18   20 ar
    77   27   29 1
    78   28   30 1
@<TRIPOS>SUBSTRUCTURE
     1 RES1 1
     2 RES2 2

@<TRIPOS>CRYSIN
  13.8180   22.8780   14.1610  90.0000 129.6000  90.0000  14 1

