# MOL2 file generated by ConQuest
# Please check atom types

@<TRIPOS>MOLECULE
PNFPRO
    27    28     1
SMALL
NO_CHARGES
****
Generated from CSD

@<TRIPOS>ATOM
      1 C1        -0.1703   -2.3735    4.1244 C.ar      1 RES1    0.0000
      2 C2        -1.0937   -1.4526    3.6426 C.ar      1 RES1    0.0000
      3 C3        -1.5785   -1.5554    2.3372 C.ar      1 RES1    0.0000
      4 C4        -1.1460   -2.5566    1.5121 C.ar      1 RES1    0.0000
      5 C5        -0.2398   -3.4920    1.9876 C.ar      1 RES1    0.0000
      6 C6         0.2545   -3.3940    3.2868 C.ar      1 RES1    0.0000
      7 C7         0.3852   -2.2817    5.4981 C.2       1 RES1    0.0000
      8 O1         1.2452   -3.0837    5.8664 O.2       1 RES1    0.0000
      9 C8        -0.0751   -1.2197    6.4119 C.2       1 RES1    0.0000
     10 C9         0.5447   -1.0257    7.5836 C.2       1 RES1    0.0000
     11 C10        0.1879   -0.0099    8.5362 C.2       1 RES1    0.0000
     12 C11        0.7388    0.3217    9.7390 C.2       1 RES1    0.0000
     13 C12       -0.0166    1.4117   10.2519 C.2       1 RES1    0.0000
     14 C13       -0.9603    1.6570    9.3101 C.2       1 RES1    0.0000
     15 O2        -0.8718    0.8166    8.2503 O.3       1 RES1    0.0000
     16 N1        -1.9778    2.6339    9.2604 N.pl3     1 RES1    0.0000
     17 O3        -2.6800    2.7024    8.2658 O.2       1 RES1    0.0000
     18 O4        -2.0880    3.3592   10.2410 O.2       1 RES1    0.0000
     19 H1        -1.4134   -0.7159    4.2425 H         1 RES1    0.0000
     20 H2        -2.2642   -0.8820    2.0047 H         1 RES1    0.0000
     21 H3        -1.4922   -2.6459    0.5594 H         1 RES1    0.0000
     22 H4         0.0589   -4.2490    1.3986 H         1 RES1    0.0000
     23 H5         0.9055   -4.0570    3.6209 H         1 RES1    0.0000
     24 H6        -0.8487   -0.6277    6.1539 H         1 RES1    0.0000
     25 H7         1.3213   -1.6342    7.8167 H         1 RES1    0.0000
     26 H8         1.5453   -0.1453   10.1788 H         1 RES1    0.0000
     27 H9         0.1269    1.9040   11.1112 H         1 RES1    0.0000
@<TRIPOS>BOND
     1    1    2 ar
     2    2    3 ar
     3    3    4 ar
     4    4    5 ar
     5    5    6 ar
     6    6    1 ar
     7    7    1 1
     8    8    7 2
     9    9    7 1
    10   10    9 2
    11   11   10 1
    12   12   11 2
    13   13   12 1
    14   14   13 2
    15   15   11 1
    16   16   14 1
    17   17   16 2
    18   18   16 2
    19   19    2 1
    20   20    3 1
    21   21    4 1
    22   22    5 1
    23   23    6 1
    24   24    9 1
    25   25   10 1
    26   26   12 1
    27   27   13 1
    28   14   15 1
@<TRIPOS>SUBSTRUCTURE
     1 RES1 1

@<TRIPOS>CRYSIN
  14.0610    5.1880   18.3790  90.0000 122.2700  90.0000  14 1

