# MOL2 file generated by ConQuest
# Please check atom types

@<TRIPOS>MOLECULE
PNIANS
    18    18     1
SMALL
NO_CHARGES
****
Generated from CSD

@<TRIPOS>ATOM
      1 O1         0.7654    0.0075    2.9137 O.3       1 RES1    0.0000
      2 O2         2.8503    5.5778    4.8316 O.2       1 RES1    0.0000
      3 O3         1.3678    6.1798    3.3900 O.2       1 RES1    0.0000
      4 N1         1.9842    5.3048    3.9945 N.pl3     1 RES1    0.0000
      5 C1         1.1179    1.2739    3.2257 C.ar      1 RES1    0.0000
      6 C2         2.2012    1.6123    4.0629 C.ar      1 RES1    0.0000
      7 C3         2.4785    2.9312    4.2943 C.ar      1 RES1    0.0000
      8 C4         1.6917    3.9082    3.7372 C.ar      1 RES1    0.0000
      9 C5         0.6041    3.5964    2.9129 C.ar      1 RES1    0.0000
     10 C6         0.3454    2.2892    2.6689 C.ar      1 RES1    0.0000
     11 C7         1.4510   -1.0763    3.5612 C.3       1 RES1    0.0000
     12 H1         0.0289    4.4132    2.5038 H         1 RES1    0.0000
     13 H2         3.1549    3.1761    4.7987 H         1 RES1    0.0000
     14 H3         1.1130   -2.0152    3.2776 H         1 RES1    0.0000
     15 H4         1.3680   -0.9685    4.5491 H         1 RES1    0.0000
     16 H5        -0.3643    2.0194    2.0854 H         1 RES1    0.0000
     17 H6         2.8253    0.8247    4.4995 H         1 RES1    0.0000
     18 H7         2.4069   -1.0795    3.2895 H         1 RES1    0.0000
@<TRIPOS>BOND
     1    1    5 1
     2    2    4 2
     3    3    4 2
     4    4    8 1
     5    5    6 ar
     6    6    7 ar
     7    7    8 ar
     8    8    9 ar
     9    9   10 ar
    10   10    5 ar
    11   11    1 1
    12   12    9 1
    13   13    7 1
    14   14   11 1
    15   15   11 1
    16   16   10 1
    17   17    6 1
    18   18   11 1
@<TRIPOS>SUBSTRUCTURE
     1 RES1 1

@<TRIPOS>CRYSIN
   9.0450   10.5730    7.5330  90.0000 100.5600  90.0000  14 1

