# MOL2 file generated by ConQuest
# Please check atom types

@<TRIPOS>MOLECULE
PNOIZB
    28    30     1
SMALL
NO_CHARGES
****
Generated from CSD

@<TRIPOS>ATOM
      1 O1         6.0412    1.8744    1.5986 O.2       1 RES1    0.0000
      2 O2         4.3158    0.6923    2.0916 O.2       1 RES1    0.0000
      3 N1         5.5280    0.8921    2.1123 N.pl3     1 RES1    0.0000
      4 N2         8.4940   -0.7347    3.6894 N.pl3     1 RES1    0.0000
      5 C1         8.6075    1.3113    2.7799 C.2       1 RES1    0.0000
      6 C2         9.8743    0.9816    3.3464 C.2       1 RES1    0.0000
      7 C3         9.7520   -0.2880    3.9000 C.2       1 RES1    0.0000
      8 C4         7.9458   -1.9558    4.0814 C.2       1 RES1    0.0000
      9 C5         6.6615   -2.2263    3.7867 C.2       1 RES1    0.0000
     10 C6         5.8490   -1.2911    3.1298 C.2       1 RES1    0.0000
     11 C7         6.3929   -0.0774    2.7585 C.2       1 RES1    0.0000
     12 C8         7.7557    0.2523    2.9858 C.2       1 RES1    0.0000
     13 C9        11.0778    1.8307    3.3794 C.ar      1 RES1    0.0000
     14 C10       12.2288    1.4136    4.0454 C.ar      1 RES1    0.0000
     15 C11       13.3623    2.2512    4.0960 C.ar      1 RES1    0.0000
     16 C12       13.3449    3.4757    3.4858 C.ar      1 RES1    0.0000
     17 C13       12.2026    3.9036    2.8151 C.ar      1 RES1    0.0000
     18 C14       11.0712    3.0976    2.7646 C.ar      1 RES1    0.0000
     19 H1         8.3433    2.0857    2.2585 H         1 RES1    0.0000
     20 H2        10.4400   -0.8275    4.3563 H         1 RES1    0.0000
     21 H3         8.6272   -2.4961    4.6778 H         1 RES1    0.0000
     22 H4         6.4213   -3.0478    4.0653 H         1 RES1    0.0000
     23 H5         4.8487   -1.3792    2.7791 H         1 RES1    0.0000
     24 H6        12.2310    0.6122    4.5247 H         1 RES1    0.0000
     25 H7        14.1530    1.9309    4.5477 H         1 RES1    0.0000
     26 H8        14.1748    4.1310    3.4988 H         1 RES1    0.0000
     27 H9        12.1873    4.8711    2.2432 H         1 RES1    0.0000
     28 H10       10.2434    3.4447    2.1437 H         1 RES1    0.0000
@<TRIPOS>BOND
     1    1    3 2
     2    2    3 2
     3    3   11 1
     4    4    7 1
     5    5    6 1
     6    6    7 2
     7    7   20 1
     8    8    4 1
     9    9    8 2
    10   10    9 1
    11   11   10 2
    12   12    4 1
    13   13    6 1
    14   14   13 ar
    15   15   14 ar
    16   16   15 ar
    17   17   16 ar
    18   18   13 ar
    19   19    5 1
    20   21    8 1
    21   22    9 1
    22   23   10 1
    23   24   14 1
    24   25   15 1
    25   26   16 1
    26   27   17 1
    27   28   18 1
    28    5   12 2
    29   11   12 1
    30   17   18 ar
@<TRIPOS>SUBSTRUCTURE
     1 RES1 1

@<TRIPOS>CRYSIN
  21.8410    6.7280    7.6560  90.0000  90.0000  90.0000  29 1

