# MOL2 file generated by ConQuest
# Please check atom types

@<TRIPOS>MOLECULE
PNOIZC
    27    29     1
SMALL
NO_CHARGES
****
Generated from CSD

@<TRIPOS>ATOM
      1 O1         0.5591    0.1571    6.9603 O.2       1 RES1    0.0000
      2 O2        -0.2822   -0.2131    5.0350 O.2       1 RES1    0.0000
      3 N1         4.9546    2.4171    3.1586 N.pl3     1 RES1    0.0000
      4 N2         0.6209    0.2080    5.7334 N.pl3     1 RES1    0.0000
      5 C2         4.4622    2.4920    1.8574 C.2       1 RES1    0.0000
      6 C3         3.1889    1.9603    1.7873 C.2       1 RES1    0.0000
      7 C4         1.7619    0.9652    3.7275 C.ar      1 RES1    0.0000
      8 C5         1.7850    0.7790    5.0902 C.ar      1 RES1    0.0000
      9 C6         2.8998    1.0976    5.9245 C.ar      1 RES1    0.0000
     10 C7         4.0585    1.6366    5.3513 C.ar      1 RES1    0.0000
     11 C8         3.9889    1.8519    3.9588 C.ar      1 RES1    0.0000
     12 C9         2.8811    1.5472    3.1267 C.ar      1 RES1    0.0000
     13 C10        2.3839    1.7959    0.5816 C.ar      1 RES1    0.0000
     14 C11        1.0109    2.0236    0.6028 C.ar      1 RES1    0.0000
     15 C12        0.2223    1.8417   -0.5519 C.ar      1 RES1    0.0000
     16 C13        0.8548    1.4024   -1.7258 C.ar      1 RES1    0.0000
     17 C14        2.2257    1.1718   -1.7534 C.ar      1 RES1    0.0000
     18 C15        3.0032    1.3704   -0.6007 C.ar      1 RES1    0.0000
     19 H2         5.0247    2.9241    1.2736 H         1 RES1    0.0000
     20 H4         0.8676    0.8074    3.1841 H         1 RES1    0.0000
     21 H6         2.8951    0.8801    6.8775 H         1 RES1    0.0000
     22 H7         5.0757    1.4984    6.0285 H         1 RES1    0.0000
     23 H11        0.5512    2.3713    1.5071 H         1 RES1    0.0000
     24 H12       -0.3891    1.7966   -0.5731 H         1 RES1    0.0000
     25 H13        0.2907    1.3529   -2.5048 H         1 RES1    0.0000
     26 H14        2.6576    0.7856   -2.6321 H         1 RES1    0.0000
     27 H15        4.0928    1.0693   -0.6368 H         1 RES1    0.0000
@<TRIPOS>BOND
     1    1    4 2
     2    2    4 2
     3    3    5 1
     4    4    8 1
     5    5    6 2
     6    6   12 1
     7    7    8 ar
     8    8    9 ar
     9    9   10 ar
    10   10   11 ar
    11   11    3 1
    12   12    7 ar
    13   13    6 1
    14   14   13 ar
    15   15   14 ar
    16   16   15 ar
    17   17   16 ar
    18   18   13 ar
    19   19    5 1
    20   20    7 1
    21   21    9 1
    22   22   10 1
    23   23   14 1
    24   24   15 1
    25   25   16 1
    26   26   17 1
    27   27   18 1
    28   11   12 ar
    29   17   18 ar
@<TRIPOS>SUBSTRUCTURE
     1 RES1 1

@<TRIPOS>CRYSIN
   7.4500    7.3020   21.2270  90.0000  90.0000  95.0300  14 3

