# MOL2 file generated by ConQuest
# Please check atom types

@<TRIPOS>MOLECULE
PNOIZE
    23    25     1
SMALL
NO_CHARGES
****
Generated from CSD

@<TRIPOS>ATOM
      1 O1         0.1766    4.5105    3.5722 O.2       1 RES1    0.0000
      2 O2        -1.8206    4.6676    2.7636 O.2       1 RES1    0.0000
      3 N1        -1.8249    9.6825    6.4943 N.3       1 RES1    0.0000
      4 N2        -0.9183    5.0830    3.5043 N.pl3     1 RES1    0.0000
      5 N3        -2.4335    8.1750    4.8739 N.pl3     1 RES1    0.0000
      6 C1        -3.4051    6.9364    3.2488 C.2       1 RES1    0.0000
      7 C2        -4.1705    8.1267    3.4994 C.2       1 RES1    0.0000
      8 C3        -3.5898    8.8729    4.4842 C.2       1 RES1    0.0000
      9 C4        -1.5193    8.5481    5.8393 C.2       1 RES1    0.0000
     10 C5        -0.4075    7.7294    6.0415 C.2       1 RES1    0.0000
     11 C6        -0.1953    6.5784    5.2653 C.2       1 RES1    0.0000
     12 C7        -1.1506    6.2355    4.3177 C.2       1 RES1    0.0000
     13 C8        -2.3460    7.0029    4.0719 C.2       1 RES1    0.0000
     14 C9        -5.4199    8.4817    2.7685 C.ar      1 RES1    0.0000
     15 C10       -6.1554    9.6584    3.1323 C.ar      1 RES1    0.0000
     16 C11       -7.3399    9.9454    2.4305 C.ar      1 RES1    0.0000
     17 C12       -7.8350    9.1267    1.3907 C.ar      1 RES1    0.0000
     18 C13       -7.0848    7.9907    1.0382 C.ar      1 RES1    0.0000
     19 C14       -5.9105    7.6705    1.7449 C.ar      1 RES1    0.0000
     20 C15       -1.0161   10.2913    7.6020 C.3       1 RES1    0.0000
     21 C16       -1.9000   11.4846    8.0839 C.3       1 RES1    0.0000
     22 C17        0.3590   10.8139    7.0586 C.3       1 RES1    0.0000
     23 C18       -0.8470    9.3170    8.8326 C.3       1 RES1    0.0000
@<TRIPOS>BOND
     1    1    4 2
     2    2    4 2
     3    3    9 1
     4    4   12 1
     5    5    8 1
     6    6    7 1
     7    7    8 2
     8    9    5 1
     9   10    9 2
    10   11   10 1
    11   12   11 2
    12   13    5 1
    13   14    7 1
    14   15   14 ar
    15   16   15 ar
    16   17   16 ar
    17   18   17 ar
    18   19   14 ar
    19   20    3 1
    20   21   20 1
    21   22   20 1
    22   23   20 1
    23    6   13 2
    24   12   13 1
    25   18   19 ar
@<TRIPOS>SUBSTRUCTURE
     1 RES1 1

@<TRIPOS>CRYSIN
   6.5320   15.6900   16.1710  90.0000  90.0000 105.6900  14 3

