# MOL2 file generated by ConQuest
# Please check atom types

@<TRIPOS>MOLECULE
PNOIZF
    24    27     1
SMALL
NO_CHARGES
****
Generated from CSD

@<TRIPOS>ATOM
      1 O1        -2.5512    1.1342    4.1199 O.2       1 RES1    0.0000
      2 O2        -2.9039    0.2314    2.2005 O.2       1 RES1    0.0000
      3 N1         2.3435    3.3666    0.8626 N.3       1 RES1    0.0000
      4 N2        -2.2365    0.9494    2.9430 N.pl3     1 RES1    0.0000
      5 N3         0.3078    2.2489    0.5648 N.pl3     1 RES1    0.0000
      6 C1        -1.4907    1.0561   -0.1073 C.2       1 RES1    0.0000
      7 C2        -0.7298    1.5053   -1.2408 C.2       1 RES1    0.0000
      8 C3         0.3440    2.2339   -0.8153 C.2       1 RES1    0.0000
      9 C4         1.2548    2.8483    1.4491 C.2       1 RES1    0.0000
     10 C5         0.9208    2.8814    2.8050 C.2       1 RES1    0.0000
     11 C6        -0.2646    2.2670    3.2650 C.2       1 RES1    0.0000
     12 C7        -1.0985    1.6270    2.4318 C.2       1 RES1    0.0000
     13 C8        -0.8402    1.5444    0.9993 C.2       1 RES1    0.0000
     14 C9        -1.0611    1.1733   -2.6593 C.ar      1 RES1    0.0000
     15 C10       -2.1785    0.4327   -2.9519 C.ar      1 RES1    0.0000
     16 C11       -2.4792    0.1037   -4.2976 C.ar      1 RES1    0.0000
     17 C12       -1.6496    0.4928   -5.2918 C.ar      1 RES1    0.0000
     18 C13       -0.5024    1.2830   -5.0132 C.ar      1 RES1    0.0000
     19 C14       -0.2286    1.6060   -3.6727 C.ar      1 RES1    0.0000
     20 C15        3.2416    2.4487    0.1418 C.3       1 RES1    0.0000
     21 C16        4.0808    3.2915   -0.8434 C.3       1 RES1    0.0000
     22 C17        4.9585    4.2590   -0.0728 C.3       1 RES1    0.0000
     23 C18        3.9872    5.1799    0.8089 C.3       1 RES1    0.0000
     24 C19        3.1537    4.3056    1.7482 C.3       1 RES1    0.0000
@<TRIPOS>BOND
     1    1    4 2
     2    2    4 2
     3    3    9 1
     4    4   12 1
     5    5    8 1
     6    6    7 1
     7    7    8 2
     8    9    5 1
     9   10    9 2
    10   11   10 1
    11   12   11 2
    12   13    5 1
    13   14    7 1
    14   15   14 ar
    15   16   15 ar
    16   17   16 ar
    17   18   17 ar
    18   19   14 ar
    19   20    3 1
    20   21   20 1
    21   22   21 1
    22   23   22 1
    23   24    3 1
    24    6   13 2
    25   12   13 1
    26   18   19 ar
    27   23   24 1
@<TRIPOS>SUBSTRUCTURE
     1 RES1 1

@<TRIPOS>CRYSIN
   8.3710   15.1430   12.7790  90.0000  90.0000  97.2200  14 3

