# MOL2 file generated by ConQuest
# Please check atom types

@<TRIPOS>MOLECULE
PNTSAN
    17    17     1
SMALL
NO_CHARGES
****
Generated from CSD

@<TRIPOS>ATOM
      1 O1         0.7495   -0.1885    3.0562 O.3       1 RES1    0.0000
      2 C1         1.0531    1.0879    3.3016 C.ar      1 RES1    0.0000
      3 C2         2.1149    1.5307    4.1036 C.ar      1 RES1    0.0000
      4 C3         2.3249    2.8989    4.2615 C.ar      1 RES1    0.0000
      5 C4         1.4926    3.8203    3.6459 C.ar      1 RES1    0.0000
      6 C5         0.4229    3.3586    2.8496 C.ar      1 RES1    0.0000
      7 C6         0.2222    2.0413    2.6760 C.ar      1 RES1    0.0000
      8 C7         1.5534   -1.2126    3.6818 C.3       1 RES1    0.0000
      9 H1         2.6838    1.0271    4.5341 H         1 RES1    0.0000
     10 H2        -0.1002    4.1284    2.4034 H         1 RES1    0.0000
     11 H3         1.2529   -1.9445    3.4149 H         1 RES1    0.0000
     12 H4         1.5129   -1.0371    4.7493 H         1 RES1    0.0000
     13 N1         1.6580    5.1226    3.7622 N.2       1 RES1    0.0000
     14 H5         3.0155    3.2210    4.8354 H         1 RES1    0.0000
     15 H6        -0.5260    1.6753    2.1451 H         1 RES1    0.0000
     16 H7         2.5876   -1.0770    3.3791 H         1 RES1    0.0000
     17 O2         2.4458    5.7798    4.4164 O.2       1 RES1    0.0000
@<TRIPOS>BOND
     1    1    2 1
     2    2    3 ar
     3    3    4 ar
     4    4    5 ar
     5    5    6 ar
     6    6    7 ar
     7    7    2 ar
     8    8    1 1
     9    9    3 1
    10   10    6 1
    11   11    8 1
    12   12    8 1
    13   13    5 1
    14   14    4 1
    15   15    7 1
    16   16    8 1
    17   17   13 2
@<TRIPOS>SUBSTRUCTURE
     1 RES1 1

@<TRIPOS>CRYSIN
   9.3410    9.9720    7.3650  90.0000 103.0700  90.0000  14 1

