# MOL2 file generated by ConQuest
# Please check atom types

@<TRIPOS>MOLECULE
POBGOD
    41    44     1
SMALL
NO_CHARGES
****
Generated from CSD

@<TRIPOS>ATOM
      1 O1         5.2627    3.3824    5.5272 O.3       1 RES1    0.0000
      2 O2         8.0302   -0.8081    6.7257 O.2       1 RES1    0.0000
      3 O3         9.4505   -2.1899    7.5702 O.2       1 RES1    0.0000
      4 O4        14.0620   -1.7855    6.7868 O.2       1 RES1    0.0000
      5 O5        14.8922    0.0319    5.9697 O.2       1 RES1    0.0000
      6 N1         8.7472    2.9974    5.9007 N.2       1 RES1    0.0000
      7 N2         8.8374    1.6509    6.1900 N.pl3     1 RES1    0.0000
      8 H1         8.1089    1.1579    6.3873 H         1 RES1    0.0000
      9 N3         9.7800    6.0660    4.9208 N.1       1 RES1    0.0000
     10 N4         9.1854   -1.1460    6.9899 N.pl3     1 RES1    0.0000
     11 N5        13.9486   -0.6458    6.3536 N.pl3     1 RES1    0.0000
     12 C1         7.6053    3.5587    6.0042 C.2       1 RES1    0.0000
     13 C2         6.2709    2.9751    6.4539 C.3       1 RES1    0.0000
     14 C3         5.1788    4.8278    5.7025 C.3       1 RES1    0.0000
     15 C4         6.3189    5.3952    4.8632 C.3       1 RES1    0.0000
     16 H2         6.2224    6.3504    4.7276 H         1 RES1    0.0000
     17 H3         6.3834    4.9521    4.0025 H         1 RES1    0.0000
     18 C5         7.5277    5.0662    5.7642 C.3       1 RES1    0.0000
     19 C6         3.7794    5.2611    5.3277 C.3       1 RES1    0.0000
     20 H4         3.5846    4.9735    4.4333 H         1 RES1    0.0000
     21 H5         3.7161    6.2177    5.3770 H         1 RES1    0.0000
     22 H6         3.1492    4.8677    5.9352 H         1 RES1    0.0000
     23 C7         8.8061    5.6112    5.2907 C.1       1 RES1    0.0000
     24 C8         5.8027    3.6458    7.7248 C.3       1 RES1    0.0000
     25 C9         5.6279    5.0662    7.1863 C.3       1 RES1    0.0000
     26 C10        7.0116    5.7073    7.0803 C.3       1 RES1    0.0000
     27 C11       10.0678    1.0729    6.2139 C.ar      1 RES1    0.0000
     28 C12       10.2739   -0.2705    6.6019 C.ar      1 RES1    0.0000
     29 C13       11.5447   -0.8262    6.6421 C.ar      1 RES1    0.0000
     30 H7        11.6645   -1.7106    6.9044 H         1 RES1    0.0000
     31 C14       12.6167   -0.0571    6.2911 C.ar      1 RES1    0.0000
     32 C15       12.4619    1.2637    5.8924 C.ar      1 RES1    0.0000
     33 H8        13.2031    1.7685    5.6475 H         1 RES1    0.0000
     34 C16       11.2172    1.8162    5.8612 C.ar      1 RES1    0.0000
     35 H9        11.1205    2.7044    5.6022 H         1 RES1    0.0000
     36 H10        6.2452    2.0282    6.4859 H         1 RES1    0.0000
     37 H11        6.4224    3.6520    8.4753 H         1 RES1    0.0000
     38 H12        4.8844    3.2512    8.0807 H         1 RES1    0.0000
     39 H13        4.8932    5.5622    7.6861 H         1 RES1    0.0000
     40 H14        7.5811    5.5186    7.8094 H         1 RES1    0.0000
     41 H15        6.9642    6.6892    6.9052 H         1 RES1    0.0000
@<TRIPOS>BOND
     1    1   13 1
     2    2   10 2
     3    3   10 2
     4    4   11 2
     5    5   11 2
     6    6    7 1
     7    7    8 1
     8    9   23 3
     9   10   28 1
    10   11   31 1
    11   12    6 2
    12   13   12 1
    13   14    1 1
    14   15   14 1
    15   16   15 1
    16   17   15 1
    17   18   12 1
    18   19   14 1
    19   20   19 1
    20   21   19 1
    21   22   19 1
    22   23   18 1
    23   24   13 1
    24   25   14 1
    25   26   18 1
    26   27    7 1
    27   28   27 ar
    28   29   28 ar
    29   30   29 1
    30   31   29 ar
    31   32   31 ar
    32   33   32 1
    33   34   27 ar
    34   35   34 1
    35   36   13 1
    36   37   24 1
    37   38   24 1
    38   39   25 1
    39   40   26 1
    40   41   26 1
    41   15   18 1
    42   24   25 1
    43   25   26 1
    44   32   34 ar
@<TRIPOS>SUBSTRUCTURE
     1 RES1 1

@<TRIPOS>CRYSIN
   9.8144    9.9855    9.9971  62.6110  68.8750  86.7670   2 1

