# MOL2 file generated by ConQuest
# Please check atom types

@<TRIPOS>MOLECULE
POBGUJ
    41    44     1
SMALL
NO_CHARGES
****
Generated from CSD

@<TRIPOS>ATOM
      1 N1         2.4981    1.6710   -3.6276 N.pl3     1 RES1    0.0000
      2 N2         4.6287    5.5257   -5.6099 N.pl3     1 RES1    0.0000
      3 N3         0.7020    3.4706   -2.1909 N.3       1 RES1    0.0000
      4 N4        -0.0230    4.3508   -1.4064 N.2       1 RES1    0.0000
      5 N5        -1.6176    7.1746   -0.1447 N.1       1 RES1    0.0000
      6 O1         1.6320    1.1336   -2.9198 O.2       1 RES1    0.0000
      7 O2         3.3189    1.0095   -4.2434 O.2       1 RES1    0.0000
      8 O3         5.2510    4.7659   -6.3112 O.2       1 RES1    0.0000
      9 O4         4.8165    6.7194   -5.6186 O.2       1 RES1    0.0000
     10 O5        -0.0680    2.3104    1.0930 O.3       1 RES1    0.0000
     11 C1         1.6614    3.9586   -3.0044 C.ar      1 RES1    0.0000
     12 C2         2.5467    3.1096   -3.7233 C.ar      1 RES1    0.0000
     13 C3         3.5088    3.6287   -4.5785 C.ar      1 RES1    0.0000
     14 H1         4.0720    3.0613   -5.0544 H         1 RES1    0.0000
     15 C4         3.6186    4.9869   -4.7145 C.ar      1 RES1    0.0000
     16 C5         2.7900    5.8540   -4.0087 C.ar      1 RES1    0.0000
     17 H2         2.8874    6.7743   -4.1038 H         1 RES1    0.0000
     18 C6         1.8340    5.3488   -3.1782 C.ar      1 RES1    0.0000
     19 H3         1.2813    5.9359   -2.7139 H         1 RES1    0.0000
     20 C7        -0.7543    3.8252   -0.5154 C.2       1 RES1    0.0000
     21 C8        -0.9707    2.4030   -0.0299 C.3       1 RES1    0.0000
     22 H4        -0.8272    1.7185   -0.7172 H         1 RES1    0.0000
     23 C9        -2.4137    2.4153    0.5661 C.3       1 RES1    0.0000
     24 H5        -3.0016    1.7333    0.1782 H         1 RES1    0.0000
     25 C10       -2.1349    2.2040    2.0572 C.3       1 RES1    0.0000
     26 H6        -2.8166    2.6126    2.6121 H         1 RES1    0.0000
     27 H7        -2.0574    1.2625    2.2789 H         1 RES1    0.0000
     28 C11       -0.7990    2.9245    2.1796 C.3       1 RES1    0.0000
     29 C12       -0.9704    4.4277    1.8675 C.3       1 RES1    0.0000
     30 H8        -0.1063    4.8674    1.9118 H         1 RES1    0.0000
     31 H9        -1.5472    4.8322    2.5357 H         1 RES1    0.0000
     32 C13       -1.5879    4.6414    0.4505 C.3       1 RES1    0.0000
     33 C14       -2.9172    3.8563    0.3469 C.3       1 RES1    0.0000
     34 H10       -3.5458    4.1248    1.0355 H         1 RES1    0.0000
     35 H11       -3.3284    3.9627   -0.5241 H         1 RES1    0.0000
     36 C15       -0.0038    2.6994    3.4481 C.3       1 RES1    0.0000
     37 H12        0.1193    1.7578    3.5860 H         1 RES1    0.0000
     38 H13       -0.4800    3.0727    4.1950 H         1 RES1    0.0000
     39 H14        0.8523    3.1268    3.3696 H         1 RES1    0.0000
     40 C16       -1.6326    6.0603    0.1106 C.1       1 RES1    0.0000
     41 H15        0.6487    2.5627   -1.9734 H         1 RES1    0.0000
@<TRIPOS>BOND
     1    1    6 2
     2    2    8 2
     3    3    4 1
     4    4   20 2
     5    5   40 3
     6    7    1 2
     7    9    2 2
     8   10   21 1
     9   11    3 1
    10   12    1 1
    11   13   12 ar
    12   14   13 1
    13   15    2 1
    14   16   15 ar
    15   17   16 1
    16   18   11 ar
    17   19   18 1
    18   20   21 1
    19   21   22 1
    20   23   21 1
    21   24   23 1
    22   25   23 1
    23   26   25 1
    24   27   25 1
    25   28   10 1
    26   29   28 1
    27   30   29 1
    28   31   29 1
    29   32   20 1
    30   33   23 1
    31   34   33 1
    32   35   33 1
    33   36   28 1
    34   37   36 1
    35   38   36 1
    36   39   36 1
    37   40   32 1
    38   41    3 1
    39   11   12 ar
    40   13   15 ar
    41   16   18 ar
    42   25   28 1
    43   29   32 1
    44   32   33 1
@<TRIPOS>SUBSTRUCTURE
     1 RES1 1

@<TRIPOS>CRYSIN
   9.3975    8.1874   21.3155  90.0000  95.4490  90.0000   9 1

