# MOL2 file generated by ConQuest
# Please check atom types

@<TRIPOS>MOLECULE
POBKOI
    63    64     1
SMALL
NO_CHARGES
****
Generated from CSD

@<TRIPOS>ATOM
      1 C1         3.2584   12.3394   12.1772 C.3       1 RES1    0.0000
      2 C2         2.7272   11.5213   11.0071 C.3       1 RES1    0.0000
      3 H1         1.8377   11.8386   10.7883 H         1 RES1    0.0000
      4 H2         2.6451   10.5964   11.2900 H         1 RES1    0.0000
      5 C3         3.5828   11.5671    9.7434 C.3       1 RES1    0.0000
      6 H3         3.6232   12.4986    9.4408 H         1 RES1    0.0000
      7 C4         4.9945   11.1267   10.0886 C.3       1 RES1    0.0000
      8 H4         5.5331   11.1263    9.2807 H         1 RES1    0.0000
      9 H5         4.9694   10.2198   10.4307 H         1 RES1    0.0000
     10 C5         5.6530   12.0347   11.1288 C.3       1 RES1    0.0000
     11 C6         2.8996   13.8071   12.0529 C.3       1 RES1    0.0000
     12 H6         3.2585   14.2883   12.8029 H         1 RES1    0.0000
     13 H7         1.9447   13.9020   12.0398 H         1 RES1    0.0000
     14 H8         3.2693   14.1582   11.2393 H         1 RES1    0.0000
     15 C7         2.6559   11.8099   13.4791 C.3       1 RES1    0.0000
     16 H9         2.9866   12.3259   14.2172 H         1 RES1    0.0000
     17 H10        2.9037   10.8895   13.5954 H         1 RES1    0.0000
     18 H11        1.6993   11.8814   13.4407 H         1 RES1    0.0000
     19 C8         6.0023   13.4070   10.5455 C.3       1 RES1    0.0000
     20 H12        6.4200   13.9447   11.2232 H         1 RES1    0.0000
     21 H13        5.2007   13.8399   10.2413 H         1 RES1    0.0000
     22 H14        6.6066   13.2964    9.8063 H         1 RES1    0.0000
     23 C9         6.9157   11.3683   11.6657 C.3       1 RES1    0.0000
     24 H15        7.3302   11.9435   12.3120 H         1 RES1    0.0000
     25 H16        7.5267   11.2097   10.9404 H         1 RES1    0.0000
     26 H17        6.6861   10.5323   12.0798 H         1 RES1    0.0000
     27 C10        0.6115    7.8953    9.5814 C.3       1 RES1    0.0000
     28 C11        1.0562    9.2263    8.9746 C.3       1 RES1    0.0000
     29 H18        0.7336    9.2822    8.0612 H         1 RES1    0.0000
     30 H19        0.6573    9.9539    9.4781 H         1 RES1    0.0000
     31 C12        2.5665    9.3876    8.9794 C.3       1 RES1    0.0000
     32 H20        2.8664    9.2104    9.8944 H         1 RES1    0.0000
     33 C13        3.1729    8.3001    8.1002 C.3       1 RES1    0.0000
     34 H21        4.1347    8.4185    8.0639 H         1 RES1    0.0000
     35 H22        2.8266    8.3893    7.1993 H         1 RES1    0.0000
     36 C14        2.8562    6.8922    8.6272 C.3       1 RES1    0.0000
     37 C15       -0.8679    7.6651    9.2724 C.3       1 RES1    0.0000
     38 H23       -1.1489    6.8307    9.6542 H         1 RES1    0.0000
     39 H24       -0.9964    7.6420    8.3200 H         1 RES1    0.0000
     40 H25       -1.3885    8.3796    9.6489 H         1 RES1    0.0000
     41 C16        0.8007    7.8585   11.1018 C.3       1 RES1    0.0000
     42 H26        0.5131    7.0073   11.4394 H         1 RES1    0.0000
     43 H27        0.2793    8.5563   11.5061 H         1 RES1    0.0000
     44 H28        1.7283    7.9895   11.3113 H         1 RES1    0.0000
     45 C17        3.6813    6.5461    9.8714 C.3       1 RES1    0.0000
     46 H29        3.4541    5.6621   10.1692 H         1 RES1    0.0000
     47 H30        3.4906    7.1781   10.5668 H         1 RES1    0.0000
     48 H31        4.6163    6.5803    9.6542 H         1 RES1    0.0000
     49 C18        3.1416    5.8735    7.5262 C.3       1 RES1    0.0000
     50 H32        2.9518    4.9905    7.8504 H         1 RES1    0.0000
     51 H33        4.0659    5.9281    7.2714 H         1 RES1    0.0000
     52 H34        2.5879    6.0601    6.7644 H         1 RES1    0.0000
     53 C19        2.8996   11.2095    7.3672 C.2       1 RES1    0.0000
     54 C20        3.5395   12.5328    7.0205 C.3       1 RES1    0.0000
     55 H35        3.3903   12.7277    6.0919 H         1 RES1    0.0000
     56 H36        4.4837   12.4850    7.1886 H         1 RES1    0.0000
     57 H37        3.1524   13.2265    7.5595 H         1 RES1    0.0000
     58 N1         4.7348   12.1983   12.2879 N.3       1 RES1    0.0000
     59 N2         1.3997    6.7944    8.9476 N.3       1 RES1    0.0000
     60 N3         3.0026   10.7582    8.6461 N.am      1 RES1    0.0000
     61 O1         5.2546   12.6609   13.3654 O.2       1 RES1    0.0000
     62 O2         0.9252    5.6084    9.0578 O.2       1 RES1    0.0000
     63 O3         2.3268   10.5682    6.4986 O.2       1 RES1    0.0000
@<TRIPOS>BOND
     1    1    2 1
     2    2    3 1
     3    4    2 1
     4    5    2 1
     5    6    5 1
     6    7    5 1
     7    8    7 1
     8    9    7 1
     9   10    7 1
    10   11    1 1
    11   12   11 1
    12   13   11 1
    13   14   11 1
    14   15    1 1
    15   16   15 1
    16   17   15 1
    17   18   15 1
    18   19   10 1
    19   20   19 1
    20   21   19 1
    21   22   19 1
    22   23   10 1
    23   24   23 1
    24   25   23 1
    25   26   23 1
    26   27   28 1
    27   28   29 1
    28   30   28 1
    29   31   28 1
    30   32   31 1
    31   33   31 1
    32   34   33 1
    33   35   33 1
    34   36   33 1
    35   37   27 1
    36   38   37 1
    37   39   37 1
    38   40   37 1
    39   41   27 1
    40   42   41 1
    41   43   41 1
    42   44   41 1
    43   45   36 1
    44   46   45 1
    45   47   45 1
    46   48   45 1
    47   49   36 1
    48   50   49 1
    49   51   49 1
    50   52   49 1
    51   53   54 1
    52   54   55 1
    53   56   54 1
    54   57   54 1
    55   58    1 1
    56   59   27 1
    57   60    5 1
    58   61   58 1
    59   62   59 1
    60   63   53 2
    61   10   58 1
    62   31   60 1
    63   36   59 1
    64   53   60 1
@<TRIPOS>SUBSTRUCTURE
     1 RES1 1

@<TRIPOS>CRYSIN
   8.2893   19.4108   26.6839  90.0000  90.0000  90.0000  61 1

