# MOL2 file generated by ConQuest
# Please check atom types

@<TRIPOS>MOLECULE
POBKEY
    46    46     1
SMALL
NO_CHARGES
****
Generated from CSD

@<TRIPOS>ATOM
      1 C1         7.5920    4.3345    7.2647 C.3       1 RES1    0.0000
      2 C2         6.0731    4.2315    7.1095 C.3       1 RES1    0.0000
      3 H1         5.6484    4.1917    7.9686 H         1 RES1    0.0000
      4 H2         5.7929    5.0827    6.7348 H         1 RES1    0.0000
      5 C3         5.6051    3.0061    6.3432 C.3       1 RES1    0.0000
      6 H3         5.9588    3.0061    5.3992 H         1 RES1    0.0000
      7 C4         8.2691    4.8109    5.9798 C.3       1 RES1    0.0000
      8 H4         9.2177    4.8602    6.1179 H         1 RES1    0.0000
      9 H5         7.9340    5.6791    5.7444 H         1 RES1    0.0000
     10 H6         8.0809    4.1917    5.2701 H         1 RES1    0.0000
     11 C5         7.9278    5.2797    8.4236 C.3       1 RES1    0.0000
     12 H7         8.8810    5.3424    8.5198 H         1 RES1    0.0000
     13 H8         7.5459    4.9384    9.2352 H         1 RES1    0.0000
     14 H9         7.5662    6.1504    8.2414 H         1 RES1    0.0000
     15 C6         3.4522    3.0061    5.1275 C.2       1 RES1    0.0000
     16 C7         1.0931    3.0061    4.4178 C.3       1 RES1    0.0000
     17 C8         1.1870    1.7844    3.5678 C.3       1 RES1    0.0000
     18 H10        2.0038    1.8073    3.0641 H         1 RES1    0.0000
     19 H11        0.4406    1.7568    2.9644 H         1 RES1    0.0000
     20 H12        1.1762    1.0040    4.1269 H         1 RES1    0.0000
     21 C9        -0.1684    3.0061    5.2135 C.3       1 RES1    0.0000
     22 H13       -0.2030    2.2846    5.8406 H         1 RES1    0.0000
     23 H14       -0.9673    3.0061    4.6861 H         1 RES1    0.0000
     24 N1         8.1439    3.0061    7.6172 N.3       1 RES1    0.0000
     25 N2         4.1487    3.0061    6.2571 N.am      1 RES1    0.0000
     26 H15        3.7079    3.0061    6.9963 H         1 RES1    0.0000
     27 O1         9.3857    3.0061    7.9484 O.2       1 RES1    0.0000
     28 O2         2.1398    3.0061    5.4331 O.3       1 RES1    0.0000
     29 O3         3.9221    3.0061    4.0339 O.2       1 RES1    0.0000
     30 C1G        7.5920    1.6776    7.2647 C.3       1 RES1    0.0000
     31 C2G        6.0731    1.7807    7.1095 C.3       1 RES1    0.0000
     32 H1G        5.6484    1.8205    7.9686 H         1 RES1    0.0000
     33 H2G        5.7929    0.9295    6.7348 H         1 RES1    0.0000
     34 C4G        8.2691    1.2012    5.9798 C.3       1 RES1    0.0000
     35 H4G        9.2177    1.1519    6.1179 H         1 RES1    0.0000
     36 H5G        7.9340    0.3331    5.7444 H         1 RES1    0.0000
     37 H6G        8.0809    1.8205    5.2701 H         1 RES1    0.0000
     38 C5G        7.9278    0.7324    8.4236 C.3       1 RES1    0.0000
     39 H7G        8.8810    0.6698    8.5198 H         1 RES1    0.0000
     40 H8G        7.5459    1.0738    9.2352 H         1 RES1    0.0000
     41 H9G        7.5662   -0.1383    8.2414 H         1 RES1    0.0000
     42 C8G        1.1870    4.2277    3.5678 C.3       1 RES1    0.0000
     43 H10G       2.0038    4.2049    3.0641 H         1 RES1    0.0000
     44 H11G       0.4406    4.2554    2.9644 H         1 RES1    0.0000
     45 H12G       1.1762    5.0081    4.1269 H         1 RES1    0.0000
     46 H13G      -0.2030    3.7275    5.8406 H         1 RES1    0.0000
@<TRIPOS>BOND
     1    1    2 1
     2    2    3 1
     3    4    2 1
     4    5    2 1
     5    6    5 1
     6    7    1 1
     7    8    7 1
     8    9    7 1
     9   10    7 1
    10   11    1 1
    11   12   11 1
    12   13   11 1
    13   14   11 1
    14   15   25 1
    15   16   17 1
    16   17   18 1
    17   19   17 1
    18   20   17 1
    19   21   16 1
    20   22   21 1
    21   23   21 1
    22   24    1 1
    23   25    5 1
    24   26   25 1
    25   27   24 1
    26   28   15 1
    27   29   15 2
    28   30   24 1
    29   31    5 1
    30   32   31 1
    31   33   31 1
    32   34   30 1
    33   35   34 1
    34   36   34 1
    35   37   34 1
    36   38   30 1
    37   39   38 1
    38   40   38 1
    39   41   38 1
    40   42   16 1
    41   43   42 1
    42   44   42 1
    43   45   42 1
    44   46   21 1
    45   16   28 1
    46   30   31 1
@<TRIPOS>SUBSTRUCTURE
     1 RES1 1

@<TRIPOS>CRYSIN
  11.9416   12.0243   11.3190  90.0000  90.0000  90.0000  62 1

