# MOL2 file generated by ConQuest
# Please check atom types

@<TRIPOS>MOLECULE
POBRUU
    51    53     1
SMALL
NO_CHARGES
****
Generated from CSD

@<TRIPOS>ATOM
      1 N1         2.9486    6.7833   -5.3001 N.pl3     1 RES1    0.0000
      2 N2         2.7315    6.8850    3.3515 N.3       1 RES1    0.0000
      3 H1         2.7857    6.5047    4.1355 H         1 RES1    0.0000
      4 O1         3.0587    5.8829   -6.1265 O.2       1 RES1    0.0000
      5 O2         2.8507    7.9722   -5.6003 O.2       1 RES1    0.0000
      6 O3         2.7769    6.5023    1.0832 O.3       1 RES1    0.0000
      7 O4         2.3831    2.2023   -0.0164 O.2       1 RES1    0.0000
      8 O5         4.4980    2.4737    0.6943 O.3       1 RES1    0.0000
      9 O6         3.0597    4.3644    4.6599 O.2       1 RES1    0.0000
     10 O7         3.0829    2.5477    3.3190 O.3       1 RES1    0.0000
     11 C1         2.9326    6.4226   -3.8806 C.ar      1 RES1    0.0000
     12 C2         3.2456    5.1235   -3.5196 C.ar      1 RES1    0.0000
     13 H2         3.4612    4.4890   -4.1647 H         1 RES1    0.0000
     14 C3         3.2301    4.7901   -2.1774 C.ar      1 RES1    0.0000
     15 H3         3.4409    3.9223   -1.9176 H         1 RES1    0.0000
     16 C4         2.8989    5.7464   -1.1999 C.ar      1 RES1    0.0000
     17 C5         2.5820    7.0466   -1.6104 C.ar      1 RES1    0.0000
     18 H4         2.3519    7.6852   -0.9752 H         1 RES1    0.0000
     19 C6         2.6070    7.3919   -2.9494 C.ar      1 RES1    0.0000
     20 H5         2.4086    8.2595   -3.2186 H         1 RES1    0.0000
     21 C7         2.9121    5.4100    0.2101 C.2       1 RES1    0.0000
     22 C8         3.0857    4.2817    0.9464 C.2       1 RES1    0.0000
     23 C9         3.0760    4.6557    2.3315 C.2       1 RES1    0.0000
     24 C10        2.8638    6.0255    2.3433 C.2       1 RES1    0.0000
     25 C11        2.2760    8.2669    3.1937 C.3       1 RES1    0.0000
     26 H6         1.6155    8.2913    2.4696 H         1 RES1    0.0000
     27 C12        3.4191    9.2139    2.8294 C.3       1 RES1    0.0000
     28 H7         3.8385    8.9197    2.0063 H         1 RES1    0.0000
     29 H8         4.0891    9.2038    3.5311 H         1 RES1    0.0000
     30 C13        2.8774   10.6364    2.6535 C.3       1 RES1    0.0000
     31 H9         3.6146   11.2401    2.4684 H         1 RES1    0.0000
     32 H10        2.2736   10.6584    1.8945 H         1 RES1    0.0000
     33 C14        2.1392   11.1095    3.9015 C.3       1 RES1    0.0000
     34 H11        1.7508   11.9822    3.7342 H         1 RES1    0.0000
     35 H12        2.7683   11.1972    4.6340 H         1 RES1    0.0000
     36 C15        1.0354   10.1322    4.2960 C.3       1 RES1    0.0000
     37 H13        0.6253   10.4247    5.1253 H         1 RES1    0.0000
     38 H14        0.3507   10.1232    3.6090 H         1 RES1    0.0000
     39 C16        1.5959    8.7263    4.4736 C.3       1 RES1    0.0000
     40 H15        2.2352    8.7200    5.2031 H         1 RES1    0.0000
     41 H16        0.8761    8.1143    4.6972 H         1 RES1    0.0000
     42 C17        3.2461    2.8783    0.4728 C.2       1 RES1    0.0000
     43 C18        4.7674    1.0721    0.4916 C.3       1 RES1    0.0000
     44 H17        5.6916    0.8932    0.6822 H         1 RES1    0.0000
     45 H18        4.5777    0.8389   -0.4195 H         1 RES1    0.0000
     46 H19        4.2134    0.5515    1.0773 H         1 RES1    0.0000
     47 C19        3.0822    3.8734    3.5418 C.2       1 RES1    0.0000
     48 C20        3.0574    1.7291    4.5080 C.3       1 RES1    0.0000
     49 H20        3.0611    0.8023    4.2583 H         1 RES1    0.0000
     50 H21        2.2632    1.9215    5.0122 H         1 RES1    0.0000
     51 H22        3.8308    1.9197    5.0438 H         1 RES1    0.0000
@<TRIPOS>BOND
     1    1    4 2
     2    2    3 1
     3    5    1 2
     4    6   21 1
     5    7   42 2
     6    8   42 1
     7    9   47 2
     8   10   47 1
     9   11    1 1
    10   12   11 ar
    11   13   12 1
    12   14   12 ar
    13   15   14 1
    14   16   14 ar
    15   17   16 ar
    16   18   17 1
    17   19   11 ar
    18   20   19 1
    19   21   16 1
    20   22   21 2
    21   23   22 1
    22   24    2 1
    23   25    2 1
    24   26   25 1
    25   27   25 1
    26   28   27 1
    27   29   27 1
    28   30   27 1
    29   31   30 1
    30   32   30 1
    31   33   30 1
    32   34   33 1
    33   35   33 1
    34   36   33 1
    35   37   36 1
    36   38   36 1
    37   39   25 1
    38   40   39 1
    39   41   39 1
    40   42   22 1
    41   43    8 1
    42   44   43 1
    43   45   43 1
    44   46   43 1
    45   47   23 1
    46   48   10 1
    47   49   48 1
    48   50   48 1
    49   51   48 1
    50    6   24 1
    51   17   19 ar
    52   23   24 2
    53   36   39 1
@<TRIPOS>SUBSTRUCTURE
     1 RES1 1

@<TRIPOS>CRYSIN
   6.8628   11.5872   12.6526  75.4490  80.4570  77.7990   2 1

