# MOL2 file generated by ConQuest
# Please check atom types

@<TRIPOS>MOLECULE
POBTEF
    55    58     1
SMALL
NO_CHARGES
****
Generated from CSD

@<TRIPOS>ATOM
      1 O1         3.5744    1.3773    8.5128 O.2       1 RES1    0.0000
      2 O2         3.9095    1.2252    6.3916 O.2       1 RES1    0.0000
      3 O3         1.1094    0.0745    4.9628 O.2       1 RES1    0.0000
      4 O4         1.0200    4.6149    6.7298 O.3       1 RES1    0.0000
      5 O5         2.0617    5.9255    8.2163 O.2       1 RES1    0.0000
      6 O6        -0.2038    8.9472    9.3466 O.3       1 RES1    0.0000
      7 O7        -0.9604    7.0031    8.5765 O.2       1 RES1    0.0000
      8 N1         3.1835    1.1879    7.3766 N.pl3     1 RES1    0.0000
      9 C1         1.6990    0.9503    7.0880 C.3       1 RES1    0.0000
     10 C2         0.8376    0.6941    8.3874 C.3       1 RES1    0.0000
     11 C3        -0.1474    1.8804    8.3277 C.3       1 RES1    0.0000
     12 C4         0.6193    3.1646    8.6959 C.3       1 RES1    0.0000
     13 C5         1.4717    3.4332    7.4502 C.3       1 RES1    0.0000
     14 C6         1.1321    2.2764    6.5209 C.3       1 RES1    0.0000
     15 C7        -0.3533    2.0916    6.8134 C.3       1 RES1    0.0000
     16 C8         1.6496   -0.1724    6.0095 C.2       1 RES1    0.0000
     17 C9         2.1748   -1.5419    6.2741 C.ar      1 RES1    0.0000
     18 C10        3.2738   -1.8308    7.0761 C.ar      1 RES1    0.0000
     19 C11        3.6841   -3.1382    7.2472 C.ar      1 RES1    0.0000
     20 C12        3.0162   -4.1615    6.6463 C.ar      1 RES1    0.0000
     21 C13        1.9265   -3.8975    5.8463 C.ar      1 RES1    0.0000
     22 C14        1.5144   -2.5947    5.6493 C.ar      1 RES1    0.0000
     23 C15        0.2027   -0.6863    8.4909 C.ar      1 RES1    0.0000
     24 C16        0.8517   -1.6848    9.2152 C.ar      1 RES1    0.0000
     25 C17        0.3354   -2.9658    9.2789 C.ar      1 RES1    0.0000
     26 C18       -0.8464   -3.2749    8.6561 C.ar      1 RES1    0.0000
     27 C19       -1.5206   -2.2919    7.9815 C.ar      1 RES1    0.0000
     28 C20       -1.0059   -1.0109    7.8999 C.ar      1 RES1    0.0000
     29 C21        1.3655    5.7982    7.2472 C.2       1 RES1    0.0000
     30 C22        0.7792    6.9255    6.4453 C.3       1 RES1    0.0000
     31 C23        0.6534    8.1802    7.2870 C.3       1 RES1    0.0000
     32 C24       -0.2372    7.9814    8.4591 C.2       1 RES1    0.0000
     33 H1        -0.9214    8.6475   10.2440 H         1 RES1    0.0000
     34 H2         1.3562    0.6693    9.1953 H         1 RES1    0.0000
     35 H3        -0.9217    1.7221    8.8710 H         1 RES1    0.0000
     36 H4         1.1723    3.0264    9.4679 H         1 RES1    0.0000
     37 H5         0.0133    3.8898    8.8610 H         1 RES1    0.0000
     38 H6         2.3920    3.5373    7.6989 H         1 RES1    0.0000
     39 H7         1.4289    2.4441    5.6235 H         1 RES1    0.0000
     40 H8        -0.8788    2.8696    6.6104 H         1 RES1    0.0000
     41 H9        -0.7322    1.3261    6.3736 H         1 RES1    0.0000
     42 H10        3.7483   -1.1180    7.5099 H         1 RES1    0.0000
     43 H11        4.4487   -3.3277    7.7964 H         1 RES1    0.0000
     44 H12        3.3039   -5.0668    6.7776 H         1 RES1    0.0000
     45 H13        1.4528   -4.6196    5.4265 H         1 RES1    0.0000
     46 H14        0.7658   -2.4131    5.0762 H         1 RES1    0.0000
     47 H15        1.6694   -1.4798    9.6749 H         1 RES1    0.0000
     48 H16        0.8078   -3.6444    9.7664 H         1 RES1    0.0000
     49 H17       -1.1974   -4.1693    8.6939 H         1 RES1    0.0000
     50 H18       -2.3610   -2.4922    7.5636 H         1 RES1    0.0000
     51 H19       -1.4937   -0.3354    7.4223 H         1 RES1    0.0000
     52 H20        1.3504    7.1056    5.6951 H         1 RES1    0.0000
     53 H21       -0.0900    6.6677    6.1309 H         1 RES1    0.0000
     54 H22        0.2937    8.8836    6.7418 H         1 RES1    0.0000
     55 H23        1.5256    8.4317    7.5994 H         1 RES1    0.0000
@<TRIPOS>BOND
     1    1    8 2
     2    2    8 2
     3    3   16 2
     4    4   13 1
     5    5   29 2
     6    6   32 1
     7    7   32 2
     8    8    9 1
     9    9   10 1
    10   10   11 1
    11   11   12 1
    12   12   13 1
    13   13   14 1
    14   14    9 1
    15   15   11 1
    16   16    9 1
    17   17   16 1
    18   18   17 ar
    19   19   18 ar
    20   20   19 ar
    21   21   20 ar
    22   22   17 ar
    23   23   10 1
    24   24   23 ar
    25   25   24 ar
    26   26   25 ar
    27   27   26 ar
    28   28   23 ar
    29   29    4 1
    30   30   29 1
    31   31   30 1
    32   32   31 1
    33   33    6 1
    34   34   10 1
    35   35   11 1
    36   36   12 1
    37   37   12 1
    38   38   13 1
    39   39   14 1
    40   40   15 1
    41   41   15 1
    42   42   18 1
    43   43   19 1
    44   44   20 1
    45   45   21 1
    46   46   22 1
    47   47   24 1
    48   48   25 1
    49   49   26 1
    50   50   27 1
    51   51   28 1
    52   52   30 1
    53   53   30 1
    54   54   31 1
    55   55   31 1
    56   14   15 1
    57   21   22 ar
    58   27   28 ar
@<TRIPOS>SUBSTRUCTURE
     1 RES1 1

@<TRIPOS>CRYSIN
  13.9340   15.5280   20.1010  90.0000  98.1300  90.0000  15 1

