# MOL2 file generated by ConQuest
# Please check atom types

@<TRIPOS>MOLECULE
POBYIO
    52    55     1
SMALL
NO_CHARGES
****
Generated from CSD

@<TRIPOS>ATOM
      1 O1         6.3287    9.4691    0.6564 O.3       1 RES1    0.0000
      2 O2         2.1523    5.6291    4.8916 O.2       1 RES1    0.0000
      3 O3         0.5674    7.1327    4.8185 O.3       1 RES1    0.0000
      4 O4        11.7219    8.6417    1.0415 O.2       1 RES1    0.0000
      5 O5         9.5753    8.8510    1.0190 O.2       1 RES1    0.0000
      6 O6        12.6790    2.7375    2.2589 O.2       1 RES1    0.0000
      7 O7        13.8418    4.4932    1.7503 O.2       1 RES1    0.0000
      8 N1         6.8536    6.3032    2.3360 N.2       1 RES1    0.0000
      9 N2         8.0380    6.9142    1.9395 N.3       1 RES1    0.0000
     10 N3        10.5904    8.1793    1.1953 N.pl3     1 RES1    0.0000
     11 N4        12.7775    3.9332    1.9857 N.pl3     1 RES1    0.0000
     12 C1         5.9239    7.0939    2.6696 C.2       1 RES1    0.0000
     13 C2         4.5329    6.7086    3.0100 C.3       1 RES1    0.0000
     14 C3         4.2093    7.5186    4.2566 C.3       1 RES1    0.0000
     15 C4         5.0893    8.7812    4.1434 C.3       1 RES1    0.0000
     16 C5         5.9206    8.6522    2.8809 C.3       1 RES1    0.0000
     17 C6         5.3159    9.1842    1.6148 C.3       1 RES1    0.0000
     18 C7         4.3694    8.1734    0.9323 C.3       1 RES1    0.0000
     19 C8         3.5943    7.2963    1.8963 C.3       1 RES1    0.0000
     20 C9         2.5014    8.0730    2.6726 C.3       1 RES1    0.0000
     21 C10        2.7225    7.8500    4.1547 C.3       1 RES1    0.0000
     22 C11        1.8123    6.7261    4.6454 C.2       1 RES1    0.0000
     23 C12       -0.4120    6.2060    5.3733 C.3       1 RES1    0.0000
     24 C13       -0.6141    6.4504    6.7557 C.3       1 RES1    0.0000
     25 C14        9.1943    6.2307    1.9458 C.ar      1 RES1    0.0000
     26 C15       10.4561    6.7780    1.5813 C.ar      1 RES1    0.0000
     27 C16       11.6131    6.0295    1.5949 C.ar      1 RES1    0.0000
     28 C17       11.5457    4.7123    1.9650 C.ar      1 RES1    0.0000
     29 C18       10.3427    4.1383    2.3517 C.ar      1 RES1    0.0000
     30 C19        9.2013    4.8759    2.3500 C.ar      1 RES1    0.0000
     31 H1         4.3713    5.6409    3.1587 H         1 RES1    0.0000
     32 H2         4.4311    6.9665    5.1844 H         1 RES1    0.0000
     33 H3         5.7362    8.8893    5.0277 H         1 RES1    0.0000
     34 H4         4.4541    9.6704    4.1025 H         1 RES1    0.0000
     35 H5         6.9505    9.0420    3.0268 H         1 RES1    0.0000
     36 H6         4.7361   10.1049    1.8418 H         1 RES1    0.0000
     37 H7         4.9479    7.5475    0.2764 H         1 RES1    0.0000
     38 H8         3.6470    8.7381    0.2983 H         1 RES1    0.0000
     39 H9         3.0926    6.4948    1.3289 H         1 RES1    0.0000
     40 H10        1.5073    7.7633    2.3844 H         1 RES1    0.0000
     41 H11        2.5829    9.1604    2.4230 H         1 RES1    0.0000
     42 H12        2.5079    8.8063    4.7052 H         1 RES1    0.0000
     43 H13       -0.1445    5.1535    5.2284 H         1 RES1    0.0000
     44 H14       -1.4276    6.3140    4.8862 H         1 RES1    0.0000
     45 H15       12.5958    6.4702    1.3163 H         1 RES1    0.0000
     46 H16       10.3180    3.0715    2.6675 H         1 RES1    0.0000
     47 H17        8.2681    4.4125    2.7007 H         1 RES1    0.0000
     48 H18        0.3332    6.3201    7.2871 H         1 RES1    0.0000
     49 H19       -1.3589    5.7773    7.2456 H         1 RES1    0.0000
     50 H20       -0.9801    7.4809    6.9913 H         1 RES1    0.0000
     51 H21        8.0481    7.9384    1.7977 H         1 RES1    0.0000
     52 H22        7.0897   10.2309    1.2019 H         1 RES1    0.0000
@<TRIPOS>BOND
     1    1   17 1
     2    2   22 2
     3    3   22 1
     4    4   10 2
     5    5   10 2
     6    6   11 2
     7    7   11 2
     8    8    9 1
     9    9   25 1
    10   10   26 1
    11   11   28 1
    12   12    8 2
    13   13   12 1
    14   14   13 1
    15   15   14 1
    16   16   12 1
    17   17   16 1
    18   18   17 1
    19   19   13 1
    20   20   19 1
    21   21   14 1
    22   22   21 1
    23   23    3 1
    24   24   23 1
    25   25   26 ar
    26   26   27 ar
    27   27   28 ar
    28   28   29 ar
    29   29   30 ar
    30   30   25 ar
    31   31   13 1
    32   32   14 1
    33   33   15 1
    34   34   15 1
    35   35   16 1
    36   36   17 1
    37   37   18 1
    38   38   18 1
    39   39   19 1
    40   40   20 1
    41   41   20 1
    42   42   21 1
    43   43   23 1
    44   44   23 1
    45   45   27 1
    46   46   29 1
    47   47   30 1
    48   48   24 1
    49   49   24 1
    50   50   24 1
    51   51    9 1
    52   52    1 1
    53   15   16 1
    54   18   19 1
    55   20   21 1
@<TRIPOS>SUBSTRUCTURE
     1 RES1 1

@<TRIPOS>CRYSIN
  12.3872   12.2690   13.8479  90.0000 112.2080  90.0000  14 1

