# MOL2 file generated by ConQuest
# Please check atom types

@<TRIPOS>MOLECULE
POCREG
   394   168     2
SMALL
NO_CHARGES
****
Generated from CSD

@<TRIPOS>ATOM
      1 O1        13.4984   23.4804    4.6961 O.2       1 RES1    0.0000
      2 O2        12.1037   25.1521    4.1346 O.3       1 RES1    0.0000
      3 O3        14.8474   14.7354   11.4232 O.3       1 RES1    0.0000
      4 O4        12.6818   27.2855    5.6203 O.3       1 RES1    0.0000
      5 O5        13.0761   23.6951    9.7495 O.3       1 RES1    0.0000
      6 O6        14.0898   24.2826   13.2742 O.3       1 RES1    0.0000
      7 O7        11.2874   28.7525   18.5506 O.2       1 RES1    0.0000
      8 O8        12.8789   24.7507   22.7980 O.2       1 RES1    0.0000
      9 O9        11.5943   28.5678   20.6165 O.2       1 RES1    0.0000
     10 O10       13.2983   22.8850   21.7959 O.2       1 RES1    0.0000
     11 O11       10.4157   20.3527   15.6787 O.3       1 RES1    0.0000
     12 O12       10.8300   18.2153   12.9089 O.3       1 RES1    0.0000
     13 O13       11.9266   27.5495   10.4802 O.2       1 RES1    0.0000
     14 O14       14.7208   19.0309   14.0399 O.2       1 RES1    0.0000
     15 O15       11.6154   14.1471    9.6689 O.2       1 RES1    0.0000
     16 O16       12.6478   13.1095   11.1707 O.3       1 RES1    0.0000
     17 N1        11.6357   28.0483   19.5204 N.pl3     1 RES1    0.0000
     18 N2        12.9115   24.0887   21.7530 N.pl3     1 RES1    0.0000
     19 N3        12.8786   25.7438   11.5065 N.am      1 RES1    0.0000
     20 H1        13.2565   24.9905   11.3372 H         1 RES1    0.0000
     21 N4        12.9291   22.6862   19.1416 N.pl3     1 RES1    0.0000
     22 H2        13.1535   22.2826   19.8670 H         1 RES1    0.0000
     23 N5        11.9785   26.8182   16.9494 N.pl3     1 RES1    0.0000
     24 H3        11.7003   27.6225   17.0730 H         1 RES1    0.0000
     25 N6        12.5526   19.3200   14.6659 N.am      1 RES1    0.0000
     26 H4        11.7412   19.1705   14.4267 H         1 RES1    0.0000
     27 C1        10.9703   23.6986    2.6006 C.3       1 RES1    0.0000
     28 H5        10.9760   23.3965    1.6898 H         1 RES1    0.0000
     29 H6        10.1260   24.1125    2.7967 H         1 RES1    0.0000
     30 H7        11.1039   22.9501    3.1862 H         1 RES1    0.0000
     31 C2        12.0363   24.6608    2.7967 C.3       1 RES1    0.0000
     32 H8        12.8834   24.2456    2.5710 H         1 RES1    0.0000
     33 H9        11.9032   25.4078    2.1922 H         1 RES1    0.0000
     34 C3        12.8686   24.5279    4.9486 C.2       1 RES1    0.0000
     35 C4        12.9203   25.0609    6.3908 C.ar      1 RES1    0.0000
     36 C5        12.7139   26.4091    6.6546 C.ar      1 RES1    0.0000
     37 C6        12.6277   26.8563    7.9683 C.ar      1 RES1    0.0000
     38 H10       12.4899   27.7570    8.1456 H         1 RES1    0.0000
     39 C7        12.7498   25.9531    9.0187 C.ar      1 RES1    0.0000
     40 C8        12.9569   24.6026    8.7555 C.ar      1 RES1    0.0000
     41 C9        13.0421   24.1572    7.4390 C.ar      1 RES1    0.0000
     42 H11       13.1809   23.2548    7.2644 H         1 RES1    0.0000
     43 C10       12.6448   28.6442    5.9131 C.3       1 RES1    0.0000
     44 H12       13.4520   28.8958    6.3859 H         1 RES1    0.0000
     45 H13       11.8870   28.8329    6.4880 H         1 RES1    0.0000
     46 C11       12.5291   29.4673    4.6235 C.3       1 RES1    0.0000
     47 H14       13.2598   29.1747    4.0379 H         1 RES1    0.0000
     48 C12       12.7059   30.9542    4.8170 C.3       1 RES1    0.0000
     49 H15       12.6690   31.3946    3.9627 H         1 RES1    0.0000
     50 H16       13.5571   31.1242    5.2280 H         1 RES1    0.0000
     51 H17       12.0052   31.2889    5.3812 H         1 RES1    0.0000
     52 C13       11.2429   29.1923    3.8713 C.3       1 RES1    0.0000
     53 H18       11.2468   29.6797    3.0439 H         1 RES1    0.0000
     54 H19       10.4960   29.4748    4.4059 H         1 RES1    0.0000
     55 H20       11.1727   28.2541    3.6913 H         1 RES1    0.0000
     56 C14       13.4966   22.3122    9.4513 C.3       1 RES1    0.0000
     57 H21       14.3165   22.3314    8.9328 H         1 RES1    0.0000
     58 H22       12.8138   21.8793    8.9166 H         1 RES1    0.0000
     59 C15       13.7204   21.5268   10.6978 C.3       1 RES1    0.0000
     60 H23       14.2887   22.0851   11.2701 H         1 RES1    0.0000
     61 C16       12.4599   21.2907   11.4742 C.3       1 RES1    0.0000
     62 H24       12.6673   20.8186   12.2856 H         1 RES1    0.0000
     63 H25       11.8523   20.7686   10.9450 H         1 RES1    0.0000
     64 H26       12.0542   22.1340   11.6892 H         1 RES1    0.0000
     65 C17       14.4487   20.2549   10.5151 C.3       1 RES1    0.0000
     66 H27       14.5878   19.8405   11.3721 H         1 RES1    0.0000
     67 H28       15.2980   20.4297   10.1041 H         1 RES1    0.0000
     68 H29       13.9355   19.6714    9.9563 H         1 RES1    0.0000
     69 C18       12.5281   26.5034   10.4668 C.2       1 RES1    0.0000
     70 C19       12.6766   26.0819   12.8532 C.ar      1 RES1    0.0000
     71 C20       11.8333   27.1029   13.2742 C.ar      1 RES1    0.0000
     72 H30       11.4197   27.6512   12.6483 H         1 RES1    0.0000
     73 C21       11.6083   27.3018   14.6309 C.ar      1 RES1    0.0000
     74 H31       11.0445   27.9851   14.9130 H         1 RES1    0.0000
     75 C22       12.2266   26.4799   15.5672 C.ar      1 RES1    0.0000
     76 C23       13.0699   25.4590   15.1467 C.ar      1 RES1    0.0000
     77 H32       13.4829   24.9078   15.7700 H         1 RES1    0.0000
     78 C24       13.2947   25.2595   13.7874 C.ar      1 RES1    0.0000
     79 C25       14.9648   23.6249   14.1635 C.3       1 RES1    0.0000
     80 H33       15.3856   24.2939   14.7223 H         1 RES1    0.0000
     81 H34       14.4313   23.0581   14.7438 H         1 RES1    0.0000
     82 C26       15.9365   22.8636   13.6181 C.3       1 RES1    0.0000
     83 H35       15.4520   22.0535   13.3494 H         1 RES1    0.0000
     84 C27       16.6157   23.2997   12.3017 C.3       1 RES1    0.0000
     85 H36       17.2627   22.6397   12.0438 H         1 RES1    0.0000
     86 H37       17.0524   24.1449   12.4333 H         1 RES1    0.0000
     87 H38       15.9531   23.3869   11.6139 H         1 RES1    0.0000
     88 C28       16.9751   22.3189   14.6336 C.3       1 RES1    0.0000
     89 H39       17.6272   21.7866   14.1688 H         1 RES1    0.0000
     90 H40       16.5275   21.7759   15.2864 H         1 RES1    0.0000
     91 H41       17.4111   23.0513   15.0688 H         1 RES1    0.0000
     92 C29       12.1063   26.0864   18.0939 C.ar      1 RES1    0.0000
     93 C30       12.0344   26.7526   19.3109 C.ar      1 RES1    0.0000
     94 C31       12.2622   26.0612   20.4957 C.ar      1 RES1    0.0000
     95 H42       12.2142   26.5059   21.3097 H         1 RES1    0.0000
     96 C32       12.5609   24.7036   20.4634 C.ar      1 RES1    0.0000
     97 C33       12.6324   24.0369   19.2437 C.ar      1 RES1    0.0000
     98 C34       12.4046   24.7283   18.0590 C.ar      1 RES1    0.0000
     99 H43       12.4526   24.2836   17.2449 H         1 RES1    0.0000
    100 C35       12.8983   21.9012   17.9434 C.ar      1 RES1    0.0000
    101 C36       11.6598   21.5760   17.4034 C.ar      1 RES1    0.0000
    102 H44       10.8837   21.9357   17.7688 H         1 RES1    0.0000
    103 C37       11.5823   20.7111   16.3154 C.ar      1 RES1    0.0000
    104 C38       12.7419   20.1743   15.7700 C.ar      1 RES1    0.0000
    105 C39       13.9811   20.5023   16.3127 C.ar      1 RES1    0.0000
    106 H45       14.7572   20.1425   15.9473 H         1 RES1    0.0000
    107 C40       14.0579   21.3644   17.3981 C.ar      1 RES1    0.0000
    108 H46       14.8861   21.5825   17.7608 H         1 RES1    0.0000
    109 C41        9.1439   20.7577   16.2590 C.3       1 RES1    0.0000
    110 H47        8.4440   20.6466   15.5981 H         1 RES1    0.0000
    111 H48        9.1878   21.6991   16.4900 H         1 RES1    0.0000
    112 C42        8.7937   19.9939   17.4518 C.3       1 RES1    0.0000
    113 H49        9.4747   20.1229   18.1449 H         1 RES1    0.0000
    114 C43        7.4153   20.4437   17.9784 C.3       1 RES1    0.0000
    115 H50        7.4500   21.3723   18.2148 H         1 RES1    0.0000
    116 H51        7.1835   19.9248   18.7521 H         1 RES1    0.0000
    117 H52        6.7535   20.3116   17.2933 H         1 RES1    0.0000
    118 C44        8.6876   18.4394   17.0703 C.3       1 RES1    0.0000
    119 H53        8.4296   17.9344   17.8440 H         1 RES1    0.0000
    120 H54        9.5390   18.1263   16.7533 H         1 RES1    0.0000
    121 H55        8.0291   18.3225   16.3799 H         1 RES1    0.0000
    122 C45       13.5503   18.6966   13.9297 C.2       1 RES1    0.0000
    123 C46       13.0732   17.6404   12.9959 C.ar      1 RES1    0.0000
    124 C47       11.8044   17.3062   12.5384 C.ar      1 RES1    0.0000
    125 C48       11.6205   16.1608   11.7722 C.ar      1 RES1    0.0000
    126 H56       10.7713   15.9378   11.4662 H         1 RES1    0.0000
    127 C49       12.7065   15.3496   11.4635 C.ar      1 RES1    0.0000
    128 C50       13.9752   15.6836   11.9202 C.ar      1 RES1    0.0000
    129 C51       14.1592   16.8292   12.6872 C.ar      1 RES1    0.0000
    130 H57       15.0086   17.0543   12.9921 H         1 RES1    0.0000
    131 C52        9.4915   17.9365   12.3581 C.3       1 RES1    0.0000
    132 H58        9.1547   17.0914   12.6912 H         1 RES1    0.0000
    133 H59        9.5241   17.8980   11.3883 H         1 RES1    0.0000
    134 C53        8.6044   19.0860   12.8202 C.3       1 RES1    0.0000
    135 H60        8.6331   19.1192   13.7981 H         1 RES1    0.0000
    136 C54        9.0530   20.4356   12.2909 C.3       1 RES1    0.0000
    137 H61        8.4518   21.1173   12.5999 H         1 RES1    0.0000
    138 H62        9.0525   20.4224   11.3318 H         1 RES1    0.0000
    139 H63        9.9396   20.6256   12.6053 H         1 RES1    0.0000
    140 C55        7.1855   18.7265   12.3984 C.3       1 RES1    0.0000
    141 H64        6.5898   19.4388   12.6402 H         1 RES1    0.0000
    142 H65        6.9155   17.9196   12.8417 H         1 RES1    0.0000
    143 H66        7.1575   18.5923   11.4474 H         1 RES1    0.0000
    144 C56       16.2341   15.1346   11.6381 C.3       1 RES1    0.0000
    145 H67       16.4442   15.1081   12.5838 H         1 RES1    0.0000
    146 H68       16.3730   16.0378   11.3184 H         1 RES1    0.0000
    147 C57       17.1279   14.1770   10.8859 C.3       1 RES1    0.0000
    148 H69       16.8891   14.2284    9.9375 H         1 RES1    0.0000
    149 C58       18.6564   14.6582   11.0363 C.3       1 RES1    0.0000
    150 H70       18.7492   15.5447   10.6790 H         1 RES1    0.0000
    151 H71       19.2299   14.0579   10.5554 H         1 RES1    0.0000
    152 H72       18.9007   14.6603   11.9632 H         1 RES1    0.0000
    153 C59       16.9237   12.8359   11.3184 C.3       1 RES1    0.0000
    154 H73       17.4692   12.2455   10.7945 H         1 RES1    0.0000
    155 H74       15.9993   12.6010   11.2083 H         1 RES1    0.0000
    156 H75       17.1662   12.7593   12.2453 H         1 RES1    0.0000
    157 C60       12.3349   14.1908   10.9665 C.2       1 RES1    0.0000
    158 C61       12.3459   11.8606   10.5930 C.3       1 RES1    0.0000
    159 H76       11.4904   11.9186   10.1417 H         1 RES1    0.0000
    160 H77       12.2677   11.1982   11.2969 H         1 RES1    0.0000
    161 C62       13.3807   11.4213    9.6205 C.3       1 RES1    0.0000
    162 H78       13.1059   10.5972    9.2122 H         1 RES1    0.0000
    163 H79       14.2145   11.2885   10.0799 H         1 RES1    0.0000
    164 H80       13.4908   12.0913    8.9435 H         1 RES1    0.0000
    165 H81       10.4938   23.5739    3.4253 Du        2 SUP2    0.0000
    166 H82       11.3442   22.8603    2.3185 Du        2 SUP2    0.0000
    167 H83       10.3663   24.0226    1.9289 Du        2 SUP2    0.0000
    168 H84       12.8185   31.1449    5.7492 Du        2 SUP2    0.0000
    169 H85       11.9303   31.4135    4.4865 Du        2 SUP2    0.0000
    170 H86       13.4822   31.2487    4.3334 Du        2 SUP2    0.0000
    171 H87       10.6961   28.5908    4.3818 Du        2 SUP2    0.0000
    172 H88       11.4471   28.7962    3.0224 Du        2 SUP2    0.0000
    173 H89       10.7705   30.0169    3.7370 Du        2 SUP2    0.0000
    174 H90       11.7150   21.6603   10.9960 Du        2 SUP2    0.0000
    175 H91       12.5301   21.7121   12.3339 Du        2 SUP2    0.0000
    176 H92       12.3283   20.3466   11.5898 Du        2 SUP2    0.0000
    177 H93       14.6266   20.1198    9.5829 Du        2 SUP2    0.0000
    178 H94       13.9164   19.5306   10.8510 Du        2 SUP2    0.0000
    179 H95       15.2793   20.2912   10.9987 Du        2 SUP2    0.0000
    180 H96       16.2493   24.1405   12.0169 Du        2 SUP2    0.0000
    181 H97       16.4596   22.6353   11.6274 Du        2 SUP2    0.0000
    182 H98       17.5600   23.3934   12.4468 Du        2 SUP2    0.0000
    183 H99       16.7500   22.6220   15.5148 Du        2 SUP2    0.0000
    184 H100      17.8501   22.6350   14.3972 Du        2 SUP2    0.0000
    185 H101      16.9661   21.3574   14.6148 Du        2 SUP2    0.0000
    186 H102       6.8083   19.6996   17.9596 Du        2 SUP2    0.0000
    187 H103       7.0748   21.1471   17.4222 Du        2 SUP2    0.0000
    188 H104       7.5049   20.7620   18.8784 Du        2 SUP2    0.0000
    189 H105       8.9025   18.3210   16.1408 Du        2 SUP2    0.0000
    190 H106       7.7931   18.1291   17.2315 Du        2 SUP2    0.0000
    191 H107       9.3020   17.9330   17.6049 Du        2 SUP2    0.0000
    192 H108       9.8443   20.3249   11.7590 Du        2 SUP2    0.0000
    193 H109       9.2440   21.0221   13.0271 Du        2 SUP2    0.0000
    194 H110       8.3555   20.8166   11.7536 Du        2 SUP2    0.0000
    195 H111       7.1860   17.8609   11.9793 Du        2 SUP2    0.0000
    196 H112       6.8606   19.3824   11.7778 Du        2 SUP2    0.0000
    197 H113       6.6172   18.7074   13.1721 Du        2 SUP2    0.0000
    198 H114      19.1703   13.9639   11.4527 Du        2 SUP2    0.0000
    199 H115      18.6907   15.4508   11.5763 Du        2 SUP2    0.0000
    200 H116      19.0189   14.8483   10.1686 Du        2 SUP2    0.0000
    201 H117      16.2880   12.8245   12.0384 Du        2 SUP2    0.0000
    202 H118      17.7565   12.4684   11.6220 Du        2 SUP2    0.0000
    203 H119      16.5899   12.3106   10.5877 Du        2 SUP2    0.0000
    204 H120      14.1022   12.0536    9.6125 Du        2 SUP2    0.0000
    205 H121      12.9941   11.3645    8.7447 Du        2 SUP2    0.0000
    206 H122      13.7160   10.5589    9.8784 Du        2 SUP2    0.0000
    207 H123      12.6936   12.0608    5.4510 Du        2 SUP2    0.0000
    208 H124      12.4154   12.3847    6.9582 Du        2 SUP2    0.0000
    209 H125      11.9789   13.3982    5.8459 Du        2 SUP2    0.0000
    210 H126       8.6137   11.2485    5.5423 Du        2 SUP2    0.0000
    211 H127       9.5058    9.9653    5.6740 Du        2 SUP2    0.0000
    212 H128       9.5748   10.8372    4.3737 Du        2 SUP2    0.0000
    213 H129       2.8854   17.1273    8.9166 Du        2 SUP2    0.0000
    214 H130       1.4152   17.6518    8.7743 Du        2 SUP2    0.0000
    215 H131       2.6093   18.5145    8.2396 Du        2 SUP2    0.0000
    216 H132       0.2032   16.5841    7.7829 Du        2 SUP2    0.0000
    217 H133       0.8692   15.4133    6.9823 Du        2 SUP2    0.0000
    218 H134       0.3580   16.6879    6.2274 Du        2 SUP2    0.0000
    219 H135       2.5809   21.2194    3.1970 Du        2 SUP2    0.0000
    220 H136       1.5920   20.0401    2.8988 Du        2 SUP2    0.0000
    221 H137       2.8896   20.2082    2.0364 Du        2 SUP2    0.0000
    222 H138       5.2425   18.7172    3.7128 Du        2 SUP2    0.0000
    223 H139       4.4485   18.6448    2.3642 Du        2 SUP2    0.0000
    224 H140       4.1914   17.5774    3.4844 Du        2 SUP2    0.0000
    225 H141       8.8018   18.1306    5.1904 Du        2 SUP2    0.0000
    226 H142       8.9184   18.0320    3.6295 Du        2 SUP2    0.0000
    227 H143       7.7591   18.8650    4.2797 Du        2 SUP2    0.0000
    228 H144      10.0181   19.0498    6.1683 Du        2 SUP2    0.0000
    229 H145      10.0268   20.6142    6.0662 Du        2 SUP2    0.0000
    230 H146      11.1802   19.7801    5.4107 Du        2 SUP2    0.0000
    231 H147       0.4688   16.0702   -1.7274 Du        2 SUP2    0.0000
    232 H148      -0.1233   14.6577   -1.3970 Du        2 SUP2    0.0000
    233 H149       0.1989   15.0461   -2.8827 Du        2 SUP2    0.0000
    234 H150       3.2789   14.4867   -3.3904 Du        2 SUP2    0.0000
    235 H151       1.8120   14.1137   -3.7988 Du        2 SUP2    0.0000
    236 H152       2.7016   13.0750   -3.0331 Du        2 SUP2    0.0000
    237 H153      10.5400   20.8379   -1.2895 Du        2 SUP2    0.0000
    238 H154       9.8375   21.3134    0.0269 Du        2 SUP2    0.0000
    239 H155       9.0798   20.3660   -0.9645 Du        2 SUP2    0.0000
    240 H156      12.0498   19.5022   -1.1310 Du        2 SUP2    0.0000
    241 H157      11.7296   18.0618   -0.6045 Du        2 SUP2    0.0000
    242 H158      12.4224   19.1036    0.3385 Du        2 SUP2    0.0000
    243 O17        4.6574   19.5520    5.8674 Du        2 SUP2    0.0000
    244 O18        7.8373   13.6333   -0.5481 Du        2 SUP2    0.0000
    245 O19        8.0202   20.8944    2.9015 Du        2 SUP2    0.0000
    246 O20        6.7832   10.7959    6.9152 Du        2 SUP2    0.0000
    247 O21        5.9306   12.9943   -1.3621 Du        2 SUP2    0.0000
    248 O22        4.5583   20.1119   -0.2901 Du        2 SUP2    0.0000
    249 O23        4.1884   15.1343   -1.1418 Du        2 SUP2    0.0000
    250 O24        5.7068   25.5236    9.8811 Du        2 SUP2    0.0000
    251 O25        8.2478   18.4742    0.3493 Du        2 SUP2    0.0000
    252 O26        8.6488   12.6701    7.1247 Du        2 SUP2    0.0000
    253 O27        4.4565   16.1723    7.0871 Du        2 SUP2    0.0000
    254 O28        8.0764   17.4394    8.4519 Du        2 SUP2    0.0000
    255 O29        5.3221   27.5553    9.2686 Du        2 SUP2    0.0000
    256 O30        5.0133   27.7170    3.2722 Du        2 SUP2    0.0000
    257 O31        5.0868   28.9976    4.9943 Du        2 SUP2    0.0000
    258 N7         5.5823   26.3713    8.9811 Du        2 SUP2    0.0000
    259 N8         5.2349   27.9387    4.5107 Du        2 SUP2    0.0000
    260 N9         6.2684   18.1568    7.3746 Du        2 SUP2    0.0000
    261 H159       5.5746   17.8778    6.9501 Du        2 SUP2    0.0000
    262 N10        6.1743   23.6379    8.0596 Du        2 SUP2    0.0000
    263 H160       6.3598   23.8419    8.8737 Du        2 SUP2    0.0000
    264 N11        6.4513   20.3966    0.9054 Du        2 SUP2    0.0000
    265 H161       7.2279   20.0661    1.0692 Du        2 SUP2    0.0000
    266 N12        5.7704   25.2362    3.5006 Du        2 SUP2    0.0000
    267 H162       5.6086   25.8941    2.9713 Du        2 SUP2    0.0000
    268 C63        4.5553    9.4082    5.8620 Du        2 SUP2    0.0000
    269 C64        5.7589   11.5887    6.8883 Du        2 SUP2    0.0000
    270 C65        6.2881   13.0349    6.9125 Du        2 SUP2    0.0000
    271 C66        5.2416   13.9476    6.9528 Du        2 SUP2    0.0000
    272 H163       4.3684   13.6618    6.8077 Du        2 SUP2    0.0000
    273 C67        5.4980   15.2895    7.2080 Du        2 SUP2    0.0000
    274 C68        6.8020   15.7191    7.4251 Du        2 SUP2    0.0000
    275 C69        7.8497   14.8068    7.3864 Du        2 SUP2    0.0000
    276 H164       8.7234   15.0883    7.5331 Du        2 SUP2    0.0000
    277 C70        7.5773   13.4441    7.1193 Du        2 SUP2    0.0000
    278 C71        9.9626   13.0665    6.8158 Du        2 SUP2    0.0000
    279 H165      10.4764   13.2343    7.6217 Du        2 SUP2    0.0000
    280 H166       9.9672   13.8636    6.2650 Du        2 SUP2    0.0000
    281 C72       10.5821   11.7024    5.9507 Du        2 SUP2    0.0000
    282 H167      10.7050   11.1359    6.7405 Du        2 SUP2    0.0000
    283 C73       12.0825   12.4699    6.0635 Du        2 SUP2    0.0000
    284 H168      12.0319   13.1675    6.7191 Du        2 SUP2    0.0000
    285 H169      12.3101   12.8437    5.2119 Du        2 SUP2    0.0000
    286 H170      12.7456   11.8302    6.3241 Du        2 SUP2    0.0000
    287 C74        9.4591   10.8493    5.3274 Du        2 SUP2    0.0000
    288 H171       9.8499   10.1205    4.8519 Du        2 SUP2    0.0000
    289 H172       8.9570   11.4009    4.7176 Du        2 SUP2    0.0000
    290 H173       8.8884   10.5295    6.0205 Du        2 SUP2    0.0000
    291 C75        3.0829   15.7535    7.2725 Du        2 SUP2    0.0000
    292 H174       2.9807   15.3062    8.1268 Du        2 SUP2    0.0000
    293 H175       2.8234   15.1365    6.5686 Du        2 SUP2    0.0000
    294 C76        2.1835   17.0458    7.2214 Du        2 SUP2    0.0000
    295 H176       2.4177   17.6400    6.4773 Du        2 SUP2    0.0000
    296 C77        2.2789   17.6219    8.3578 Du        2 SUP2    0.0000
    297 H177       1.7210   18.4020    8.3713 Du        2 SUP2    0.0000
    298 H178       3.1920   17.8769    8.5110 Du        2 SUP2    0.0000
    299 H179       1.9971   17.0147    9.0483 Du        2 SUP2    0.0000
    300 C78        0.7637   16.3657    7.0361 Du        2 SUP2    0.0000
    301 H180       0.7506   15.8726    6.2113 Du        2 SUP2    0.0000
    302 H181       0.0847   17.0434    7.0119 Du        2 SUP2    0.0000
    303 H182       0.5959   15.7688    7.7668 Du        2 SUP2    0.0000
    304 C79        7.1022   17.1794    7.8098 Du        2 SUP2    0.0000
    305 C80        6.3587   19.5383    7.5035 Du        2 SUP2    0.0000
    306 C81        5.4244   20.2419    6.7513 Du        2 SUP2    0.0000
    307 C82        5.3318   21.6241    6.8722 Du        2 SUP2    0.0000
    308 H183       4.7169   22.0984    6.3617 Du        2 SUP2    0.0000
    309 C83        6.1625   22.2942    7.7609 Du        2 SUP2    0.0000
    310 C84        7.0875   21.5930    8.5252 Du        2 SUP2    0.0000
    311 H184       7.6416   22.0468    9.1181 Du        2 SUP2    0.0000
    312 C85        7.1854   20.2107    8.4038 Du        2 SUP2    0.0000
    313 H185       7.7976   19.7375    8.9193 Du        2 SUP2    0.0000
    314 C86        3.8692   20.3452    4.9379 Du        2 SUP2    0.0000
    315 H186       4.4284   21.0102    4.5027 Du        2 SUP2    0.0000
    316 H187       3.1552   20.8045    5.4080 Du        2 SUP2    0.0000
    317 C87        3.2945   19.3978    3.9116 Du        2 SUP2    0.0000
    318 H188       2.6463   18.8174    4.3656 Du        2 SUP2    0.0000
    319 C88        2.5140   20.3025    2.9149 Du        2 SUP2    0.0000
    320 H189       2.1283   19.7598    2.2245 Du        2 SUP2    0.0000
    321 H190       3.1172   20.9391    2.5227 Du        2 SUP2    0.0000
    322 H191       1.8181   20.7688    3.3850 Du        2 SUP2    0.0000
    323 C89        4.3986   18.4986    3.3125 Du        2 SUP2    0.0000
    324 H192       4.0117   17.9079    2.6597 Du        2 SUP2    0.0000
    325 H193       4.8064   17.9832    4.0110 Du        2 SUP2    0.0000
    326 H194       5.0642   19.0483    2.8907 Du        2 SUP2    0.0000
    327 C90        5.9188   24.7228    7.1892 Du        2 SUP2    0.0000
    328 C91        5.9614   24.5416    5.8056 Du        2 SUP2    0.0000
    329 H195       6.1589   23.6917    5.4886 Du        2 SUP2    0.0000
    330 C92        5.7346   25.5243    4.8868 Du        2 SUP2    0.0000
    331 C93        5.4739   26.8087    5.3758 Du        2 SUP2    0.0000
    332 C94        5.4569   27.0394    6.7056 Du        2 SUP2    0.0000
    333 H196       5.2930   27.8894    7.0468 Du        2 SUP2    0.0000
    334 C95        5.7120   25.8641    7.6217 Du        2 SUP2    0.0000
    335 C96        6.0331   24.0383    2.9119 Du        2 SUP2    0.0000
    336 C97        5.2158   23.8005    1.8126 Du        2 SUP2    0.0000
    337 H197       4.5881   24.4358    1.5528 Du        2 SUP2    0.0000
    338 C98        5.3373   22.6125    1.0999 Du        2 SUP2    0.0000
    339 H198       4.7913   22.4544    0.3654 Du        2 SUP2    0.0000
    340 C99        6.2760   21.6625    1.4867 Du        2 SUP2    0.0000
    341 C100       7.0922   21.9003    2.5861 Du        2 SUP2    0.0000
    342 C101       6.9708   23.0883    3.2988 Du        2 SUP2    0.0000
    343 H199       7.5180   23.2468    4.0352 Du        2 SUP2    0.0000
    344 C102       8.6602   20.9525    4.1668 Du        2 SUP2    0.0000
    345 H200       7.9952   21.0189    4.8707 Du        2 SUP2    0.0000
    346 H201       9.2311   21.7343    4.2125 Du        2 SUP2    0.0000
    347 C103       9.4734   19.7222    4.3549 Du        2 SUP2    0.0000
    348 H202      10.1029   19.6472    3.6080 Du        2 SUP2    0.0000
    349 C104       8.6782   18.6040    4.3629 Du        2 SUP2    0.0000
    350 H203       8.1847   18.5539    3.5436 Du        2 SUP2    0.0000
    351 H204       8.0668   18.6519    5.1017 Du        2 SUP2    0.0000
    352 H205       9.2278   17.8217    4.4543 Du        2 SUP2    0.0000
    353 C105      10.2420   19.7990    5.6095 Du        2 SUP2    0.0000
    354 H206      10.7986   20.5801    5.5934 Du        2 SUP2    0.0000
    355 H207      10.7899   19.0156    5.6955 Du        2 SUP2    0.0000
    356 H208       9.6365   19.8497    6.3510 Du        2 SUP2    0.0000
    357 C106       5.6464   19.5238    0.1021 Du        2 SUP2    0.0000
    358 C107       5.9753   18.1089   -0.1714 Du        2 SUP2    0.0000
    359 C108       4.9196   17.2848   -0.5446 Du        2 SUP2    0.0000
    360 H209       4.0660   17.6378   -0.6421 Du        2 SUP2    0.0000
    361 C109       5.1416   15.9302   -0.7705 Du        2 SUP2    0.0000
    362 C110       6.4185   15.4020   -0.6235 Du        2 SUP2    0.0000
    363 C111       7.4732   16.2260   -0.2504 Du        2 SUP2    0.0000
    364 H210       8.3274   15.8706   -0.1531 Du        2 SUP2    0.0000
    365 C112       7.2519   17.5783   -0.0242 Du        2 SUP2    0.0000
    366 C113       2.8187   15.7159   -1.3460 Du        2 SUP2    0.0000
    367 H211       2.4739   16.0869   -0.5185 Du        2 SUP2    0.0000
    368 H212       2.8359   16.4120   -2.0203 Du        2 SUP2    0.0000
    369 C114       1.9817   14.5501   -1.7973 Du        2 SUP2    0.0000
    370 H213       1.9917   13.8436   -1.1176 Du        2 SUP2    0.0000
    371 C115       0.4770   15.1404   -1.9692 Du        2 SUP2    0.0000
    372 H214      -0.1065   14.4449   -2.2782 Du        2 SUP2    0.0000
    373 H215       0.4856   15.8573   -2.6086 Du        2 SUP2    0.0000
    374 H216       0.1639   15.4712   -1.1230 Du        2 SUP2    0.0000
    375 C116       2.4903   14.0071   -3.1271 Du        2 SUP2    0.0000
    376 H217       1.9157   13.2957   -3.4227 Du        2 SUP2    0.0000
    377 H218       3.3827   13.6705   -3.0170 Du        2 SUP2    0.0000
    378 H219       2.4933   14.7098   -3.7800 Du        2 SUP2    0.0000
    379 C117       9.5251   18.2855   -0.1558 Du        2 SUP2    0.0000
    380 H220       9.4644   18.1363   -1.1122 Du        2 SUP2    0.0000
    381 H221       9.9068   17.4885    0.2445 Du        2 SUP2    0.0000
    382 C118      10.4534   19.4533    0.0967 Du        2 SUP2    0.0000
    383 H222      10.4892   19.6406    1.0585 Du        2 SUP2    0.0000
    384 C119       9.9356   20.5845   -0.5884 Du        2 SUP2    0.0000
    385 H223       9.0986   20.8414   -0.1934 Du        2 SUP2    0.0000
    386 H224       9.8004   20.3631   -1.5125 Du        2 SUP2    0.0000
    387 H225      10.5584   21.3128   -0.5212 Du        2 SUP2    0.0000
    388 C120      11.7801   18.9886   -0.3654 Du        2 SUP2    0.0000
    389 H226      12.0848   18.2758    0.2015 Du        2 SUP2    0.0000
    390 H227      12.4050   19.7180   -0.3278 Du        2 SUP2    0.0000
    391 H228      11.7122   18.6744   -1.2680 Du        2 SUP2    0.0000
    392 C121       6.8048   14.1048   -1.1069 Du        2 SUP2    0.0000
    393 C122       5.5638   11.4898   -1.5045 Du        2 SUP2    0.0000
    394 O32        4.9412   10.9688    5.8916 Du        2 SUP2    0.0000
@<TRIPOS>BOND
     1    1   34 2
     2    2   31 1
     3    3  128 1
     4    4   36 1
     5    5   40 1
     6    6   78 1
     7    7   17 2
     8    8   18 2
     9    9   17 2
    10   10   18 2
    11   11  103 1
    12   12  124 1
    13   13   69 2
    14   14  122 2
    15   15  157 2
    16   16  157 1
    17   17   93 1
    18   18   96 1
    19   19   20 1
    20   21   22 1
    21   23   24 1
    22   25   26 1
    23   27   28 1
    24   29   27 1
    25   30   27 1
    26   31   27 1
    27   32   31 1
    28   33   31 1
    29   34    2 1
    30   35   34 1
    31   36   35 ar
    32   37   36 ar
    33   38   37 1
    34   39   37 ar
    35   40   39 ar
    36   41   35 ar
    37   42   41 1
    38   43    4 1
    39   44   43 1
    40   45   43 1
    41   46   43 1
    42   47   46 1
    43   48   46 1
    44   49   48 1
    45   50   48 1
    46   51   48 1
    47   52   46 1
    48   53   52 1
    49   54   52 1
    50   55   52 1
    51   56    5 1
    52   57   56 1
    53   58   56 1
    54   59   56 1
    55   60   59 1
    56   61   59 1
    57   62   61 1
    58   63   61 1
    59   64   61 1
    60   65   59 1
    61   66   65 1
    62   67   65 1
    63   68   65 1
    64   69   19 1
    65   70   19 1
    66   71   70 ar
    67   72   71 1
    68   73   71 ar
    69   74   73 1
    70   75   23 1
    71   76   75 ar
    72   77   76 1
    73   78   70 ar
    74   79    6 1
    75   80   79 1
    76   81   79 1
    77   82   79 1
    78   83   82 1
    79   84   82 1
    80   85   84 1
    81   86   84 1
    82   87   84 1
    83   88   82 1
    84   89   88 1
    85   90   88 1
    86   91   88 1
    87   92   23 1
    88   93   92 ar
    89   94   93 ar
    90   95   94 1
    91   96   94 ar
    92   97   21 1
    93   98   92 ar
    94   99   98 1
    95  100   21 1
    96  101  100 ar
    97  102  101 1
    98  103  101 ar
    99  104   25 1
   100  105  104 ar
   101  106  105 1
   102  107  100 ar
   103  108  107 1
   104  109   11 1
   105  110  109 1
   106  111  109 1
   107  112  109 1
   108  113  112 1
   109  114  112 1
   110  115  114 1
   111  116  114 1
   112  117  114 1
   113  118  112 1
   114  119  118 1
   115  120  118 1
   116  121  118 1
   117  122   25 1
   118  123  122 1
   119  124  123 ar
   120  125  124 ar
   121  126  125 1
   122  127  125 ar
   123  128  127 ar
   124  129  123 ar
   125  130  129 1
   126  131   12 1
   127  132  131 1
   128  133  131 1
   129  134  131 1
   130  135  134 1
   131  136  134 1
   132  137  136 1
   133  138  136 1
   134  139  136 1
   135  140  134 1
   136  141  140 1
   137  142  140 1
   138  143  140 1
   139  144    3 1
   140  145  144 1
   141  146  144 1
   142  147  144 1
   143  148  147 1
   144  149  147 1
   145  150  149 1
   146  151  149 1
   147  152  149 1
   148  153  147 1
   149  154  153 1
   150  155  153 1
   151  156  153 1
   152  157  127 1
   153  158   16 1
   154  159  158 1
   155  160  158 1
   156  161  158 1
   157  162  161 1
   158  163  161 1
   159  164  161 1
   160   39   69 1
   161   40   41 ar
   162   73   75 ar
   163   76   78 ar
   164   96   97 ar
   165   97   98 ar
   166  103  104 ar
   167  105  107 ar
   168  128  129 ar
@<TRIPOS>SUBSTRUCTURE
     1 RES1 1
     2 SUP2 165

@<TRIPOS>CRYSIN
  10.6040   23.4720   27.5530  77.8900  83.8600  80.2900   2 1

