# MOL2 file generated by ConQuest
# Please check atom types

@<TRIPOS>MOLECULE
POCYAH
    22    21     1
SMALL
NO_CHARGES
****
Generated from CSD

@<TRIPOS>ATOM
      1 C1         1.6134    4.3281    6.6358 C.3       1 RES1    0.0000
      2 H1         1.4199    3.4389    6.2782 H         1 RES1    0.0000
      3 H2         0.9293    4.5780    7.0907 H         1 RES1    0.0000
      4 H3         2.3681    4.2017    7.1749 H         1 RES1    0.0000
      5 C2         1.9278    5.2539    5.5029 C.2       1 RES1    0.0000
      6 C3         2.9622    4.9030    4.5120 C.2       1 RES1    0.0000
      7 C4         3.3138    5.8298    3.3810 C.3       1 RES1    0.0000
      8 H4         3.1687    6.7799    3.6693 H         1 RES1    0.0000
      9 H5         4.2795    5.7960    3.1797 H         1 RES1    0.0000
     10 C5         2.5438    5.5362    2.1189 C.3       1 RES1    0.0000
     11 H6         2.7956    4.6318    1.7621 H         1 RES1    0.0000
     12 H7         1.6340    5.4209    2.2518 H         1 RES1    0.0000
     13 C6         2.8364    6.5687    1.0339 C.3       1 RES1    0.0000
     14 H8         2.3471    6.3403    0.2994 H         1 RES1    0.0000
     15 H9         3.8696    6.6024    0.8748 H         1 RES1    0.0000
     16 H10        2.6904    7.4554    1.3208 H         1 RES1    0.0000
     17 N1         3.5033    3.7576    4.6981 N.2       1 RES1    0.0000
     18 N2         1.3462    6.3822    5.2934 N.2       1 RES1    0.0000
     19 O1         4.4692    3.4521    3.7230 O.3       1 RES1    0.0000
     20 O2         0.3702    6.6828    6.2514 O.3       1 RES1    0.0000
     21 H11        4.7250    2.7683    3.9890 H         1 RES1    0.0000
     22 H12        0.1102    7.4339    5.9632 H         1 RES1    0.0000
@<TRIPOS>BOND
     1    1    2 1
     2    3    1 1
     3    4    1 1
     4    5    1 1
     5    6    5 1
     6    7    6 1
     7    8    7 1
     8    9    7 1
     9   10    7 1
    10   11   10 1
    11   12   10 1
    12   13   10 1
    13   14   13 1
    14   15   13 1
    15   16   13 1
    16   17    6 2
    17   18    5 2
    18   19   17 1
    19   20   18 1
    20   21   19 1
    21   22   20 1
@<TRIPOS>SUBSTRUCTURE
     1 RES1 1

@<TRIPOS>CRYSIN
   4.8570    5.3920   15.7410  85.7100  82.6200  76.2000   2 1

