# MOL2 file generated by ConQuest
# Please check atom types

@<TRIPOS>MOLECULE
PODCBD
    21    22     1
SMALL
NO_CHARGES
****
Generated from CSD

@<TRIPOS>ATOM
      1 C1         4.3130    6.1575   -0.3779 C.2       1 RES1    0.0000
      2 C2         2.3709    6.8139   -0.6667 C.2       1 RES1    0.0000
      3 C3         0.9670    7.2711   -0.4079 C.2       1 RES1    0.0000
      4 C4         5.6200    5.7155    0.0780 C.ar      1 RES1    0.0000
      5 C5         6.4700    5.0273   -0.7700 C.ar      1 RES1    0.0000
      6 C6         7.6903    4.6142   -0.3067 C.ar      1 RES1    0.0000
      7 C7         8.1078    4.8973    1.0003 C.ar      1 RES1    0.0000
      8 C8         7.2409    5.5736    1.8515 C.ar      1 RES1    0.0000
      9 C9         5.9949    5.9828    1.4066 C.ar      1 RES1    0.0000
     10 N1         3.3051    6.5890    0.3078 N.2       1 RES1    0.0000
     11 N2         2.7464    6.5532   -1.8862 N.2       1 RES1    0.0000
     12 N3         0.6132    7.2163    0.8791 N.am      1 RES1    0.0000
     13 O1         4.0776    6.1117   -1.6997 O.3       1 RES1    0.0000
     14 O2         0.2702    7.6435   -1.3466 O.2       1 RES1    0.0000
     15 H1         6.2812    4.8257   -1.6074 H         1 RES1    0.0000
     16 H2         8.2637    4.2671   -0.9065 H         1 RES1    0.0000
     17 H3         8.9899    4.5737    1.3914 H         1 RES1    0.0000
     18 H4         7.4141    5.7989    2.6878 H         1 RES1    0.0000
     19 H5         5.4996    6.4930    2.0976 H         1 RES1    0.0000
     20 H6         1.0975    6.8620    1.5073 H         1 RES1    0.0000
     21 H7        -0.3816    7.4685    1.0014 H         1 RES1    0.0000
@<TRIPOS>BOND
     1    1    4 1
     2    2    3 1
     3    3   12 1
     4    4    5 ar
     5    5    6 ar
     6    6    7 ar
     7    7    8 ar
     8    8    9 ar
     9    9    4 ar
    10   10    1 2
    11   11    2 2
    12   12   20 1
    13   13    1 1
    14   14    3 2
    15   15    5 1
    16   16    6 1
    17   17    7 1
    18   18    8 1
    19   19    9 1
    20   21   12 1
    21    2   10 1
    22   11   13 1
@<TRIPOS>SUBSTRUCTURE
     1 RES1 1

@<TRIPOS>CRYSIN
  10.2900    8.1700    5.4230  98.5100  99.6300  95.8700   2 1

