# MOL2 file generated by ConQuest
# Please check atom types

@<TRIPOS>MOLECULE
PODLEZ
    32    33     1
SMALL
NO_CHARGES
****
Generated from CSD

@<TRIPOS>ATOM
      1 O1        -4.0108    5.2029   27.7184 O.2       1 RES1    0.0000
      2 O2        -2.7297    3.9870   28.9053 O.2       1 RES1    0.0000
      3 O3         4.5719    5.4510   18.9015 O.3       1 RES1    0.0000
      4 O4         5.7043    7.6265   12.8610 O.2       1 RES1    0.0000
      5 O5         7.5129    6.3972   12.4069 O.3       1 RES1    0.0000
      6 O6         6.7499    4.0996   14.1087 O.3       1 RES1    0.0000
      7 O7         8.4485    4.8557   15.3406 O.2       1 RES1    0.0000
      8 N1        -2.9738    4.5748   27.8735 N.pl3     1 RES1    0.0000
      9 N2         0.9740    4.7618   23.9034 N.2       1 RES1    0.0000
     10 N3         0.6265    5.1895   22.7682 N.2       1 RES1    0.0000
     11 C1        -1.9713    4.6027   26.8169 C.ar      1 RES1    0.0000
     12 C2        -2.2829    5.2350   25.6209 C.ar      1 RES1    0.0000
     13 C3        -1.3356    5.3065   24.6543 C.ar      1 RES1    0.0000
     14 C4        -0.0871    4.7317   24.8431 C.ar      1 RES1    0.0000
     15 C5         0.2005    4.0960   26.0458 C.ar      1 RES1    0.0000
     16 C6        -0.7521    4.0146   27.0327 C.ar      1 RES1    0.0000
     17 C7         1.6750    5.2400   21.8195 C.ar      1 RES1    0.0000
     18 C8         1.3260    5.7164   20.5718 C.ar      1 RES1    0.0000
     19 C9         2.2653    5.8189   19.5625 C.ar      1 RES1    0.0000
     20 C10        3.5673    5.4237   19.8075 C.ar      1 RES1    0.0000
     21 C11        3.9224    4.9536   21.0731 C.ar      1 RES1    0.0000
     22 C12        2.9905    4.8655   22.0488 C.ar      1 RES1    0.0000
     23 C13        4.3050    5.9799   17.5909 C.3       1 RES1    0.0000
     24 C14        5.5853    5.8938   16.8266 C.3       1 RES1    0.0000
     25 C15        5.4269    6.3926   15.3968 C.3       1 RES1    0.0000
     26 C16        6.7391    6.3904   14.6258 C.3       1 RES1    0.0000
     27 C17        6.5650    6.8661   13.2050 C.2       1 RES1    0.0000
     28 C18        7.5463    6.8607   11.0199 C.3       1 RES1    0.0000
     29 C19        6.6634    6.0492   10.1544 C.3       1 RES1    0.0000
     30 C20        7.4394    5.0461   14.7314 C.2       1 RES1    0.0000
     31 C21        7.2539    2.7359   14.2436 C.3       1 RES1    0.0000
     32 C22        6.4514    1.8942   13.3062 C.3       1 RES1    0.0000
@<TRIPOS>BOND
     1    1    8 2
     2    2    8 2
     3    3   20 1
     4    4   27 2
     5    5   27 1
     6    6   30 1
     7    7   30 2
     8    8   11 1
     9    9   10 2
    10   10   17 1
    11   11   12 ar
    12   12   13 ar
    13   13   14 ar
    14   14    9 1
    15   15   14 ar
    16   16   11 ar
    17   17   18 ar
    18   18   19 ar
    19   19   20 ar
    20   20   21 ar
    21   21   22 ar
    22   22   17 ar
    23   23    3 1
    24   24   23 1
    25   25   24 1
    26   26   25 1
    27   27   26 1
    28   28    5 1
    29   29   28 1
    30   30   26 1
    31   31    6 1
    32   32   31 1
    33   15   16 ar
@<TRIPOS>SUBSTRUCTURE
     1 RES1 1

@<TRIPOS>CRYSIN
   6.7970    7.7560   22.7400  81.4800  88.2900  68.1000   2 1

