# MOL2 file generated by ConQuest
# Please check atom types

@<TRIPOS>MOLECULE
PODXOV
    32    36     2
SMALL
NO_CHARGES
****
Generated from CSD

@<TRIPOS>ATOM
      1 C1         7.0443   -5.8325    6.3270 C.2       1 RES1    0.0000
      2 C2         7.9846   -5.1929    7.1628 C.2       1 RES1    0.0000
      3 C3         9.0806   -5.8899    7.9234 C.3       1 RES1    0.0000
      4 C4         9.1392   -7.3572    7.4484 C.3       1 RES1    0.0000
      5 C5         7.7521   -7.9687    7.2492 C.3       1 RES1    0.0000
      6 C6         6.9833   -7.2986    6.1083 C.3       1 RES1    0.0000
      7 C7         8.8776   -6.0254    9.4376 C.3       1 RES1    0.0000
      8 C8         9.5122   -7.3352    9.7691 C.2       1 RES1    0.0000
      9 C9         9.8358   -7.8259   11.1231 C.3       1 RES1    0.0000
     10 N1         6.2946   -4.9365    5.7545 N.2       1 RES1    0.0000
     11 N2         7.8142   -3.9087    7.1210 N.2       1 RES1    0.0000
     12 N3         9.6939   -8.0188    8.6937 N.pl3     1 RES1    0.0000
     13 N4         9.9423   -7.5390    6.2964 N.3       1 RES1    0.0000
     14 O1         6.7611   -3.7146    6.2379 O.3       1 RES1    0.0000
     15 O2        10.3329   -5.2954    7.6490 O.3       1 RES1    0.0000
     16 O3        10.2124   -9.2126    8.5600 O.2       1 RES1    0.0000
     17 C10        6.7566   -0.1941   11.0200 C.2       2 RES2    0.0000
     18 C11        7.6419    0.5811   10.2204 C.2       2 RES2    0.0000
     19 C12        8.9093    0.0586    9.6089 C.3       2 RES2    0.0000
     20 C13        9.1613   -1.3965   10.0811 C.3       2 RES2    0.0000
     21 C14        7.8827   -2.2119   10.2288 C.3       2 RES2    0.0000
     22 C15        6.9773   -1.6321   11.3084 C.3       2 RES2    0.0000
     23 C16        8.8624   -0.0720    8.0738 C.3       2 RES2    0.0000
     24 C17        9.7468   -1.2439    7.8008 C.2       2 RES2    0.0000
     25 C18       10.3430   -1.6077    6.4997 C.3       2 RES2    0.0000
     26 N5         5.7629    0.5481   11.4031 N.2       2 RES2    0.0000
     27 N6         7.1921    1.7871   10.1146 N.2       2 RES2    0.0000
     28 N7         9.9021   -1.9397    8.8692 N.pl3     2 RES2    0.0000
     29 N8         9.9424   -1.4526   11.2736 N.3       2 RES2    0.0000
     30 O4         6.0108    1.8066   10.8473 O.3       2 RES2    0.0000
     31 O5        10.0215    0.8240   10.0059 O.3       2 RES2    0.0000
     32 O6        10.5747   -3.0542    9.0197 O.2       2 RES2    0.0000
@<TRIPOS>BOND
     1    1    2 1
     2    2    3 1
     3    3    4 1
     4    4    5 1
     5    5    6 1
     6    6    1 1
     7    7    3 1
     8    8    7 1
     9    9    8 1
    10   10    1 2
    11   11    2 2
    12   12    4 1
    13   13    4 1
    14   14   10 1
    15   15    3 1
    16   16   12 1
    17   17   18 1
    18   18   19 1
    19   19   20 1
    20   20   21 1
    21   21   22 1
    22   22   17 1
    23   23   19 1
    24   24   23 1
    25   25   24 1
    26   26   17 2
    27   27   18 2
    28   28   20 1
    29   29   20 1
    30   30   26 1
    31   31   19 1
    32   32   28 1
    33    8   12 2
    34   11   14 1
    35   24   28 2
    36   27   30 1
@<TRIPOS>SUBSTRUCTURE
     1 RES1 1
     2 RES2 17

@<TRIPOS>CRYSIN
  23.8820   12.2070   13.9400  90.0000  92.1700  90.0000  15 1

