# MOL2 file generated by ConQuest
# Please check atom types

@<TRIPOS>MOLECULE
POFDAP
    26    28     1
SMALL
NO_CHARGES
****
Generated from CSD

@<TRIPOS>ATOM
      1 C1         7.9250    1.9263    3.2007 C.2       1 RES1    0.0000
      2 C2         9.0315    5.7863    4.5715 C.2       1 RES1    0.0000
      3 O1         8.0255    3.7825    1.8300 O.2       1 RES1    0.0000
      4 O2        10.3290    4.1081    5.3169 O.2       1 RES1    0.0000
      5 C3        10.7866    1.2179    0.9996 C.ar      1 RES1    0.0000
      6 C4        11.4270    0.7544   -0.1837 C.ar      1 RES1    0.0000
      7 C5        12.0124    1.6345   -1.1011 C.ar      1 RES1    0.0000
      8 C6        11.9477    2.9836   -0.8439 C.ar      1 RES1    0.0000
      9 C7        11.2923    3.4554    0.3354 C.ar      1 RES1    0.0000
     10 C8        10.7222    2.5779    1.2847 C.ar      1 RES1    0.0000
     11 C9        10.0487    3.0294    2.6159 C.3       1 RES1    0.0000
     12 N1         8.5619    2.9083    2.5763 N.pl3     1 RES1    0.0000
     13 C10        6.5365    1.5552    3.1244 C.ar      1 RES1    0.0000
     14 C11        6.0447    0.5402    3.9818 C.ar      1 RES1    0.0000
     15 C12        4.7449    0.0952    3.9509 C.ar      1 RES1    0.0000
     16 C13        3.9019    0.5570    2.8769 C.ar      1 RES1    0.0000
     17 C14        4.3862    1.6299    2.2099 C.ar      1 RES1    0.0000
     18 C15        5.6803    2.1022    2.2350 C.ar      1 RES1    0.0000
     19 C16       10.4026    4.4520    2.9929 C.3       1 RES1    0.0000
     20 N2         9.8744    4.8125    4.3763 N.pl3     1 RES1    0.0000
     21 C17        8.4651    6.3161    5.8485 C.ar      1 RES1    0.0000
     22 C18        8.9653    6.0572    7.0908 C.ar      1 RES1    0.0000
     23 C19        8.1934    6.6448    8.2508 C.ar      1 RES1    0.0000
     24 C20        7.2798    7.4624    8.1909 C.ar      1 RES1    0.0000
     25 C21        6.7799    7.7313    6.9767 C.ar      1 RES1    0.0000
     26 C22        7.3728    7.1680    5.8031 C.ar      1 RES1    0.0000
@<TRIPOS>BOND
     1    1   12 2
     2    2   20 2
     3    3   12 1
     4    4   20 1
     5    5    6 ar
     6    6    7 ar
     7    7    8 ar
     8    8    9 ar
     9    9   10 ar
    10   10    5 ar
    11   11   10 1
    12   12   11 1
    13   13    1 1
    14   14   13 ar
    15   15   14 ar
    16   16   15 ar
    17   17   16 ar
    18   18   13 ar
    19   19   11 1
    20   20   19 1
    21   21    2 1
    22   22   21 ar
    23   23   22 ar
    24   24   23 ar
    25   25   24 ar
    26   26   21 ar
    27   17   18 ar
    28   25   26 ar
@<TRIPOS>SUBSTRUCTURE
     1 RES1 1

@<TRIPOS>CRYSIN
   9.6495    9.8965   10.4141  68.3490  85.5170  85.1190   2 1

