# MOL2 file generated by ConQuest
# Please check atom types

@<TRIPOS>MOLECULE
POFSAF
    24    24     1
SMALL
NO_CHARGES
****
Generated from CSD

@<TRIPOS>ATOM
      1 C1        -0.0306    4.7981    2.6017 C.2       1 RES1    0.0000
      2 C2        -2.1149    2.2402    4.7454 C.ar      1 RES1    0.0000
      3 H1        -2.2213    3.1472    4.9202 H         1 RES1    0.0000
      4 C3        -0.2588    6.2311    2.8816 C.2       1 RES1    0.0000
      5 C4        -1.1509    6.6431    4.0120 C.3       1 RES1    0.0000
      6 H2        -0.6581    7.1976    4.6214 H         1 RES1    0.0000
      7 H3        -1.4658    5.8614    4.4720 H         1 RES1    0.0000
      8 H4        -1.8995    7.1341    3.6661 H         1 RES1    0.0000
      9 C5         0.8977    4.3675    1.5116 C.3       1 RES1    0.0000
     10 H5         1.4464    3.6449    1.8252 H         1 RES1    0.0000
     11 H6         1.4556    5.1061    1.2561 H         1 RES1    0.0000
     12 H7         0.3874    4.0757    0.7529 H         1 RES1    0.0000
     13 C6        -1.2002    1.8196    3.7841 C.ar      1 RES1    0.0000
     14 C7        -1.7285   -0.3141    4.1683 C.ar      1 RES1    0.0000
     15 H8        -1.6250   -1.2201    3.9865 H         1 RES1    0.0000
     16 C8        -2.6395    0.0691    5.1197 C.ar      1 RES1    0.0000
     17 H9        -3.1297   -0.5810    5.5689 H         1 RES1    0.0000
     18 N1        -0.9886    0.5600    3.4970 N.ar      1 RES1    0.0000
     19 N2        -2.8358    1.3498    5.4128 N.ar      1 RES1    0.0000
     20 N3        -0.6899    4.0190    3.3634 N.2       1 RES1    0.0000
     21 N4         0.3427    7.0496    2.1000 N.2       1 RES1    0.0000
     22 O1         0.0501    8.3680    2.4150 O.3       1 RES1    0.0000
     23 H10        0.3924    8.8080    1.8311 H         1 RES1    0.0000
     24 O2        -0.4286    2.6617    3.0344 O.3       1 RES1    0.0000
@<TRIPOS>BOND
     1    1    4 1
     2    2    3 1
     3    4    5 1
     4    5    6 1
     5    7    5 1
     6    8    5 1
     7    9    1 1
     8   10    9 1
     9   11    9 1
    10   12    9 1
    11   13    2 ar
    12   14   15 1
    13   16   14 ar
    14   17   16 1
    15   18   13 ar
    16   19    2 ar
    17   20    1 2
    18   21    4 2
    19   22   21 1
    20   23   22 1
    21   24   13 1
    22   14   18 ar
    23   16   19 ar
    24   20   24 1
@<TRIPOS>SUBSTRUCTURE
     1 RES1 1

@<TRIPOS>CRYSIN
  18.1740   10.9620   13.2710  90.0000 132.2170  90.0000  15 1

