# MOL2 file generated by ConQuest
# Please check atom types

@<TRIPOS>MOLECULE
POFVIR
    57    60     1
SMALL
NO_CHARGES
****
Generated from CSD

@<TRIPOS>ATOM
      1 C1         0.6919    4.2312    9.2580 C.3       1 RES1    0.0000
      2 H1         0.0854    3.5840    9.6761 H         1 RES1    0.0000
      3 C2         2.1269    3.7273    9.4423 C.3       1 RES1    0.0000
      4 H2         2.1965    2.8163    9.1150 H         1 RES1    0.0000
      5 H3         2.7355    4.2800    8.9276 H         1 RES1    0.0000
      6 C3         2.5074    3.7720   10.8830 C.2       1 RES1    0.0000
      7 C4         2.2959    5.1072   11.5259 C.3       1 RES1    0.0000
      8 H4         2.8187    5.7581   11.0145 H         1 RES1    0.0000
      9 C5         0.8102    5.4791   11.3459 C.3       1 RES1    0.0000
     10 H5         0.2637    4.7775   11.7575 H         1 RES1    0.0000
     11 C6         0.5065    6.7879   12.0367 C.ar      1 RES1    0.0000
     12 C7        -0.3363    6.8246   13.1367 C.ar      1 RES1    0.0000
     13 H6        -0.7453    6.0427   13.4308 H         1 RES1    0.0000
     14 C8        -0.5753    8.0158   13.8029 C.ar      1 RES1    0.0000
     15 H7        -1.1414    8.0255   14.5407 H         1 RES1    0.0000
     16 C9         0.0130    9.1765   13.3871 C.ar      1 RES1    0.0000
     17 H8        -0.1534    9.9736   13.8355 H         1 RES1    0.0000
     18 C10        0.8551    9.1551   12.2990 C.ar      1 RES1    0.0000
     19 H9         1.2633    9.9401   12.0125 H         1 RES1    0.0000
     20 C11        1.0958    7.9683   11.6314 C.ar      1 RES1    0.0000
     21 H10        1.6657    7.9657   10.8959 H         1 RES1    0.0000
     22 C12        0.3617    4.3000    7.7817 C.ar      1 RES1    0.0000
     23 C13        1.0766    5.1187    6.9338 C.ar      1 RES1    0.0000
     24 H11        1.7937    5.6110    7.2632 H         1 RES1    0.0000
     25 C14        0.7348    5.2124    5.5974 C.ar      1 RES1    0.0000
     26 H12        1.2213    5.7665    5.0310 H         1 RES1    0.0000
     27 C15       -0.3258    4.4850    5.1044 C.ar      1 RES1    0.0000
     28 H13       -0.5674    4.5646    4.2093 H         1 RES1    0.0000
     29 C16       -1.0213    3.6510    5.9240 C.ar      1 RES1    0.0000
     30 H14       -1.7261    3.1451    5.5865 H         1 RES1    0.0000
     31 C17       -0.6773    3.5581    7.2582 C.ar      1 RES1    0.0000
     32 H15       -1.1543    2.9849    7.8143 H         1 RES1    0.0000
     33 C18        2.7725    5.1848   12.9638 C.3       1 RES1    0.0000
     34 H16        2.1977    4.6531   13.5206 H         1 RES1    0.0000
     35 H17        2.7498    6.0977   13.2600 H         1 RES1    0.0000
     36 H18        3.6712    4.8528   13.0216 H         1 RES1    0.0000
     37 C19        3.4717    0.6026   11.5693 C.2       1 RES1    0.0000
     38 C20        4.2667   -1.6161   11.0972 C.ar      1 RES1    0.0000
     39 C21        4.1984   -2.5521   10.1050 C.ar      1 RES1    0.0000
     40 H19        3.8570   -2.3331    9.2680 H         1 RES1    0.0000
     41 C22        4.6459   -3.8319   10.3710 C.ar      1 RES1    0.0000
     42 H20        4.6135   -4.4797    9.7049 H         1 RES1    0.0000
     43 C23        5.1389   -4.1543   11.6113 C.ar      1 RES1    0.0000
     44 H21        5.4266   -5.0215   11.7874 H         1 RES1    0.0000
     45 C24        5.2054   -3.2067   12.5776 C.ar      1 RES1    0.0000
     46 H22        5.5385   -3.4274   13.4174 H         1 RES1    0.0000
     47 C25        4.7832   -1.9145   12.3265 C.ar      1 RES1    0.0000
     48 H23        4.8495   -1.2593   12.9828 H         1 RES1    0.0000
     49 C26       -0.9257    5.9285    9.7404 C.3       1 RES1    0.0000
     50 H24       -1.1416    5.9566    8.8056 H         1 RES1    0.0000
     51 H25       -1.0683    6.7949   10.1285 H         1 RES1    0.0000
     52 H26       -1.4879    5.2857   10.1795 H         1 RES1    0.0000
     53 N1         0.4788    5.5438    9.9053 N.3       1 RES1    0.0000
     54 N2         2.9463    2.8341   11.6153 N.2       1 RES1    0.0000
     55 O1         3.1272    1.6438   10.8153 O.3       1 RES1    0.0000
     56 O2         3.4144    0.5201   12.7388 O.2       1 RES1    0.0000
     57 O3         3.8391   -0.3384   10.7024 O.3       1 RES1    0.0000
@<TRIPOS>BOND
     1    1    2 1
     2    3    1 1
     3    4    3 1
     4    5    3 1
     5    6    3 1
     6    7    6 1
     7    8    7 1
     8    9    7 1
     9   10    9 1
    10   11    9 1
    11   12   11 ar
    12   13   12 1
    13   14   12 ar
    14   15   14 1
    15   16   14 ar
    16   17   16 1
    17   18   16 ar
    18   19   18 1
    19   20   11 ar
    20   21   20 1
    21   22    1 1
    22   23   22 ar
    23   24   23 1
    24   25   23 ar
    25   26   25 1
    26   27   25 ar
    27   28   27 1
    28   29   27 ar
    29   30   29 1
    30   31   22 ar
    31   32   31 1
    32   33    7 1
    33   34   33 1
    34   35   33 1
    35   36   33 1
    36   37   55 1
    37   38   39 ar
    38   39   40 1
    39   41   39 ar
    40   42   41 1
    41   43   41 ar
    42   44   43 1
    43   45   43 ar
    44   46   45 1
    45   47   38 ar
    46   48   47 1
    47   49   50 1
    48   51   49 1
    49   52   49 1
    50   53    1 1
    51   54    6 2
    52   55   54 1
    53   56   37 2
    54   57   37 1
    55    9   53 1
    56   18   20 ar
    57   29   31 ar
    58   38   57 1
    59   45   47 ar
    60   49   53 1
@<TRIPOS>SUBSTRUCTURE
     1 RES1 1

@<TRIPOS>CRYSIN
  16.2004   11.9587   11.3601  90.0000 102.5470  90.0000  14 1

