# MOL2 file generated by ConQuest
# Please check atom types

@<TRIPOS>MOLECULE
POGGOH
    30    32     1
SMALL
USER_CHARGES
****
Generated from CSD

@<TRIPOS>ATOM
      1 O1         8.6538    8.0199    1.5441 O.3       1 RES1    0.0000
      2 O2         7.3012    7.7590   -0.2163 O.2       1 RES1   -1.0000
      3 O3         7.5228    5.9036    4.0879 O.2       1 RES1    0.0000
      4 N1         8.7470    7.4982    2.8740 N.4       1 RES1    1.0000
      5 C1         7.5087    7.4167    0.9193 C.2       1 RES1    0.0000
      6 C2         6.8544    6.5615    1.8460 C.2       1 RES1    0.0000
      7 C3         7.5738    6.5068    3.0307 C.2       1 RES1    0.0000
      8 C4         8.7083    8.6410    3.8361 C.3       1 RES1    0.0000
      9 C5        10.0996    9.1704    3.8570 C.3       1 RES1    0.0000
     10 C6        11.0090    8.0848    3.3054 C.3       1 RES1    0.0000
     11 C7        10.1084    6.9013    3.0474 C.3       1 RES1    0.0000
     12 C8         5.6496    5.7865    1.5566 C.ar      1 RES1    0.0000
     13 C9         5.1184    5.6872    0.2768 C.ar      1 RES1    0.0000
     14 C10        4.0085    4.9033    0.0198 C.ar      1 RES1    0.0000
     15 C11        3.3947    4.2174    1.0374 C.ar      1 RES1    0.0000
     16 C12        3.8731    4.3179    2.3203 C.ar      1 RES1    0.0000
     17 C13        4.9918    5.0929    2.5783 C.ar      1 RES1    0.0000
     18 H1         5.5247    6.1683   -0.4346 H         1 RES1    0.0000
     19 H2         3.6708    4.8384   -0.8650 H         1 RES1    0.0000
     20 H3         2.6383    3.6727    0.8535 H         1 RES1    0.0000
     21 H4         3.4369    3.8585    3.0275 H         1 RES1    0.0000
     22 H5         5.3189    5.1553    3.4684 H         1 RES1    0.0000
     23 H6         8.1015    9.3078    3.5394 H         1 RES1    0.0000
     24 H7         8.4533    8.3406    4.7012 H         1 RES1    0.0000
     25 H8        10.1559    9.9479    3.3148 H         1 RES1    0.0000
     26 H9        10.3511    9.3842    4.7471 H         1 RES1    0.0000
     27 H10       11.4188    8.3724    2.4989 H         1 RES1    0.0000
     28 H11       11.6791    7.8596    3.9385 H         1 RES1    0.0000
     29 H12       10.1207    6.3032    3.7839 H         1 RES1    0.0000
     30 H13       10.3758    6.4419    2.2597 H         1 RES1    0.0000
@<TRIPOS>BOND
     1    1    4 1
     2    2    5 1
     3    3    7 2
     4    4    7 1
     5    5    1 1
     6    6    5 2
     7    7    6 1
     8    8    4 1
     9    9    8 1
    10   10    9 1
    11   11    4 1
    12   12    6 1
    13   13   12 ar
    14   14   13 ar
    15   15   14 ar
    16   16   15 ar
    17   17   12 ar
    18   18   13 1
    19   19   14 1
    20   20   15 1
    21   21   16 1
    22   22   17 1
    23   23    8 1
    24   24    8 1
    25   25    9 1
    26   26    9 1
    27   27   10 1
    28   28   10 1
    29   29   11 1
    30   30   11 1
    31   10   11 1
    32   16   17 ar
@<TRIPOS>SUBSTRUCTURE
     1 RES1 1

@<TRIPOS>CRYSIN
  17.5890   12.7260   10.4470  90.0000  90.0000  90.0000  61 1

