# MOL2 file generated by ConQuest
# Please check atom types

@<TRIPOS>MOLECULE
POGMEF
    61    63     1
SMALL
NO_CHARGES
****
Generated from CSD

@<TRIPOS>ATOM
      1 O1         5.6416    6.7421    0.4072 O.2       1 RES1    0.0000
      2 O2         4.7110    6.4186    2.4460 O.3       1 RES1    0.0000
      3 O3         1.4503    4.2617    3.2993 O.2       1 RES1    0.0000
      4 O4         0.6377    4.3448    1.3049 O.2       1 RES1    0.0000
      5 N1         3.4742    5.6996   -0.8532 N.2       1 RES1    0.0000
      6 N2         1.1756    4.8649    2.2761 N.pl3     1 RES1    0.0000
      7 C1         4.7284    6.3976    1.1066 C.2       1 RES1    0.0000
      8 C2         3.4071    5.8309    0.5922 C.3       1 RES1    0.0000
      9 H1         3.2741    4.9230    0.9885 H         1 RES1    0.0000
     10 C3         2.1597    6.6987    0.9155 C.3       1 RES1    0.0000
     11 H2         1.4844    6.5221    0.1999 H         1 RES1    0.0000
     12 C4         1.5144    6.3352    2.2424 C.3       1 RES1    0.0000
     13 H3         2.1444    6.5483    2.9879 H         1 RES1    0.0000
     14 C5         0.2097    7.1047    2.4433 C.3       1 RES1    0.0000
     15 H4        -0.4140    6.9127    1.6981 H         1 RES1    0.0000
     16 H5        -0.2213    6.8259    3.2907 H         1 RES1    0.0000
     17 C6         0.5266    8.5902    2.4864 C.3       1 RES1    0.0000
     18 H6        -0.3082    9.1046    2.6261 H         1 RES1    0.0000
     19 H7         1.1350    8.7780    3.2442 H         1 RES1    0.0000
     20 C7         1.1820    9.0240    1.1873 C.3       1 RES1    0.0000
     21 H8         1.4172    9.9841    1.2433 H         1 RES1    0.0000
     22 H9         0.5411    8.9093    0.4421 H         1 RES1    0.0000
     23 C8         2.4496    8.2032    0.9016 C.3       1 RES1    0.0000
     24 H10        2.8125    8.4581    0.0169 H         1 RES1    0.0000
     25 H11        3.1350    8.4113    1.5841 H         1 RES1    0.0000
     26 C9         5.9231    6.8066    3.2096 C.3       1 RES1    0.0000
     27 C10        5.4312    6.7401    4.6476 C.3       1 RES1    0.0000
     28 H12        5.0944    5.8390    4.8367 H         1 RES1    0.0000
     29 H13        4.7110    7.3924    4.7776 H         1 RES1    0.0000
     30 H14        6.1717    6.9458    5.2563 H         1 RES1    0.0000
     31 C11        6.3452    8.2321    2.8677 C.3       1 RES1    0.0000
     32 H15        6.6997    8.2571    1.9544 H         1 RES1    0.0000
     33 H16        7.0371    8.5278    3.4962 H         1 RES1    0.0000
     34 H17        5.5700    8.8271    2.9330 H         1 RES1    0.0000
     35 C12        7.0195    5.7875    2.9515 C.3       1 RES1    0.0000
     36 H18        6.6643    4.8841    3.0865 H         1 RES1    0.0000
     37 H19        7.7625    5.9430    3.5709 H         1 RES1    0.0000
     38 H20        7.3395    5.8779    2.0290 H         1 RES1    0.0000
     39 C13        3.6395    4.5411   -1.3672 C.2       1 RES1    0.0000
     40 C14        3.8358    3.2869   -0.5600 C.ar      1 RES1    0.0000
     41 C15        4.9975    3.0856    0.1746 C.ar      1 RES1    0.0000
     42 H21        5.7007    3.7225    0.1394 H         1 RES1    0.0000
     43 C16        5.1244    1.9454    0.9626 C.ar      1 RES1    0.0000
     44 H22        5.9147    1.8058    1.4700 H         1 RES1    0.0000
     45 C17        4.0987    1.0117    1.0075 C.ar      1 RES1    0.0000
     46 H23        4.1894    0.2353    1.5475 H         1 RES1    0.0000
     47 C18        2.9585    1.2039    0.2768 C.ar      1 RES1    0.0000
     48 H24        2.2608    0.5608    0.3098 H         1 RES1    0.0000
     49 C19        2.8188    2.3361   -0.5132 C.ar      1 RES1    0.0000
     50 H25        2.0281    2.4626   -1.0237 H         1 RES1    0.0000
     51 C20        3.6474    4.4203   -2.8501 C.ar      1 RES1    0.0000
     52 C21        3.3566    5.5351   -3.6482 C.ar      1 RES1    0.0000
     53 H26        3.0909    6.3507   -3.2400 H         1 RES1    0.0000
     54 C22        3.4538    5.4579   -5.0189 C.ar      1 RES1    0.0000
     55 H27        3.2706    6.2251   -5.5478 H         1 RES1    0.0000
     56 C23        3.8170    4.2663   -5.6357 C.ar      1 RES1    0.0000
     57 H28        3.8893    4.2216   -6.5813 H         1 RES1    0.0000
     58 C24        4.0735    3.1460   -4.8647 C.ar      1 RES1    0.0000
     59 H29        4.3065    2.3244   -5.2817 H         1 RES1    0.0000
     60 C25        3.9904    3.2256   -3.4810 C.ar      1 RES1    0.0000
     61 H30        4.1707    2.4546   -2.9569 H         1 RES1    0.0000
@<TRIPOS>BOND
     1    1    7 2
     2    2    7 1
     3    3    6 2
     4    4    6 2
     5    5    8 1
     6    6   12 1
     7    7    8 1
     8    8    9 1
     9   10    8 1
    10   11   10 1
    11   12   10 1
    12   13   12 1
    13   14   12 1
    14   15   14 1
    15   16   14 1
    16   17   14 1
    17   18   17 1
    18   19   17 1
    19   20   17 1
    20   21   20 1
    21   22   20 1
    22   23   10 1
    23   24   23 1
    24   25   23 1
    25   26    2 1
    26   27   26 1
    27   28   27 1
    28   29   27 1
    29   30   27 1
    30   31   26 1
    31   32   31 1
    32   33   31 1
    33   34   31 1
    34   35   26 1
    35   36   35 1
    36   37   35 1
    37   38   35 1
    38   39    5 2
    39   40   39 1
    40   41   40 ar
    41   42   41 1
    42   43   41 ar
    43   44   43 1
    44   45   43 ar
    45   46   45 1
    46   47   45 ar
    47   48   47 1
    48   49   40 ar
    49   50   49 1
    50   51   39 1
    51   52   51 ar
    52   53   52 1
    53   54   52 ar
    54   55   54 1
    55   56   54 ar
    56   57   56 1
    57   58   56 ar
    58   59   58 1
    59   60   51 ar
    60   61   60 1
    61   20   23 1
    62   47   49 ar
    63   58   60 ar
@<TRIPOS>SUBSTRUCTURE
     1 RES1 1

@<TRIPOS>CRYSIN
  14.0392   11.4222   14.7277  90.0000 107.0460  90.0000 231 1

