# MOL2 file generated by ConQuest
# Please check atom types

@<TRIPOS>MOLECULE
POHJIH
    66    69     1
SMALL
NO_CHARGES
****
Generated from CSD

@<TRIPOS>ATOM
      1 O1         5.7056   11.0564    1.8924 O.2       1 RES1    0.0000
      2 O2         9.5178   10.9416    3.6147 O.2       1 RES1    0.0000
      3 O3         8.0708    9.9418    2.2005 O.3       1 RES1    0.0000
      4 O4         7.5417   13.0223    0.1829 O.2       1 RES1    0.0000
      5 O5         5.4977   13.3320   -0.4547 O.2       1 RES1    0.0000
      6 N1         6.4167   13.4938    0.3329 N.pl3     1 RES1    0.0000
      7 N2         7.3686   11.6916    3.4185 N.am      1 RES1    0.0000
      8 C1         8.4410   10.8312    3.0967 C.2       1 RES1    0.0000
      9 C2         4.0441   12.2472    4.0640 C.ar      1 RES1    0.0000
     10 C3         6.1013   14.4257    5.4275 C.ar      1 RES1    0.0000
     11 C4         2.1174   15.1544    1.5945 C.ar      1 RES1    0.0000
     12 C5         6.1779   14.3617    1.5294 C.3       1 RES1    0.0000
     13 C6         1.8085   10.9704    5.1708 C.ar      1 RES1    0.0000
     14 C7         5.2994   12.8855    3.4513 C.3       1 RES1    0.0000
     15 C8         6.2656   13.4186    4.4809 C.ar      1 RES1    0.0000
     16 C9         7.4606   12.7125    4.4305 C.ar      1 RES1    0.0000
     17 C10        4.9478   13.9353    2.3452 C.3       1 RES1    0.0000
     18 C11        7.1430   14.7292    6.2906 C.ar      1 RES1    0.0000
     19 C12        1.7570   11.4796    3.8947 C.ar      1 RES1    0.0000
     20 C13        8.3369   14.0193    6.2043 C.ar      1 RES1    0.0000
     21 C14        2.8677   12.0954    3.3343 C.ar      1 RES1    0.0000
     22 C15        3.3847   15.9157    1.8929 C.3       1 RES1    0.0000
     23 C16        9.0752    8.9951    1.6148 C.3       1 RES1    0.0000
     24 C17        8.5177   12.9909    5.2860 C.ar      1 RES1    0.0000
     25 C18        4.2577   15.1832    2.9205 C.3       1 RES1    0.0000
     26 C19        2.0254   14.3341    0.4671 C.ar      1 RES1    0.0000
     27 C20       10.1454    9.7752    0.8871 C.3       1 RES1    0.0000
     28 C21        4.0869   11.7179    5.3419 C.ar      1 RES1    0.0000
     29 C22       -0.0800   14.4332    2.2596 C.ar      1 RES1    0.0000
     30 C23        0.8664   13.5891    0.2373 C.ar      1 RES1    0.0000
     31 C24        2.9937   11.0758    5.8856 C.ar      1 RES1    0.0000
     32 C25        9.6437    8.1121    2.7086 C.3       1 RES1    0.0000
     33 C26        1.0549   15.1845    2.4805 C.ar      1 RES1    0.0000
     34 C27       -0.1829   13.6243    1.1371 C.ar      1 RES1    0.0000
     35 C28        8.2329    8.2149    0.6461 C.3       1 RES1    0.0000
     36 C29        6.1067   11.7518    2.7979 C.2       1 RES1    0.0000
     37 H1         5.2808   14.9023    5.4811 H         1 RES1    0.0000
     38 H2         6.0564   15.2974    1.2284 H         1 RES1    0.0000
     39 H3         6.9776   14.3329    2.1136 H         1 RES1    0.0000
     40 H4         1.0472   10.5528    5.5560 H         1 RES1    0.0000
     41 H5         4.3059   13.5014    1.7139 H         1 RES1    0.0000
     42 H6         7.0422   15.4178    6.9377 H         1 RES1    0.0000
     43 H7         0.9541   11.4106    3.3913 H         1 RES1    0.0000
     44 H8         9.0511   14.2451    6.7898 H         1 RES1    0.0000
     45 H9         2.8250   12.4165    2.4421 H         1 RES1    0.0000
     46 H10        3.1536   16.8124    2.2414 H         1 RES1    0.0000
     47 H11        3.8985   16.0373    1.0550 H         1 RES1    0.0000
     48 H12        9.3294   12.4993    5.2457 H         1 RES1    0.0000
     49 H13        3.6925   14.9123    3.6869 H         1 RES1    0.0000
     50 H14        4.9489   15.8053    3.2580 H         1 RES1    0.0000
     51 H15        2.7505   14.2840   -0.1442 H         1 RES1    0.0000
     52 H16       10.5956    9.1907    0.2428 H         1 RES1    0.0000
     53 H17       10.7994   10.1138    1.5350 H         1 RES1    0.0000
     54 H18        9.7357   10.5289    0.4143 H         1 RES1    0.0000
     55 H19        4.8832   11.7982    5.8535 H         1 RES1    0.0000
     56 H20       -0.7963   14.4696    2.8820 H         1 RES1    0.0000
     57 H21        0.7996   13.0524   -0.5439 H         1 RES1    0.0000
     58 H22        3.0528   10.7020    6.7570 H         1 RES1    0.0000
     59 H23        8.9098    7.7133    3.2215 H         1 RES1    0.0000
     60 H24       10.2035    8.6514    3.3055 H         1 RES1    0.0000
     61 H25       10.1848    7.4010    2.3071 H         1 RES1    0.0000
     62 H26        1.1085   15.7326    3.2544 H         1 RES1    0.0000
     63 H27       -0.9628   13.1025    0.9893 H         1 RES1    0.0000
     64 H28        7.8298    8.8270   -0.0037 H         1 RES1    0.0000
     65 H29        7.5253    7.7434    1.1335 H         1 RES1    0.0000
     66 H30        8.7948    7.5628    0.1752 H         1 RES1    0.0000
@<TRIPOS>BOND
     1    1   36 2
     2    2    8 2
     3    3    8 1
     4    4    6 2
     5    5    6 2
     6    6   12 1
     7    7    8 1
     8    9   14 1
     9   10   15 ar
    10   11   22 1
    11   12   17 1
    12   13   19 ar
    13   14   15 1
    14   15   16 ar
    15   16    7 1
    16   17   14 1
    17   18   10 ar
    18   19   21 ar
    19   20   18 ar
    20   21    9 ar
    21   22   25 1
    22   23    3 1
    23   24   16 ar
    24   25   17 1
    25   26   11 ar
    26   27   23 1
    27   28    9 ar
    28   29   33 ar
    29   30   26 ar
    30   31   13 ar
    31   32   23 1
    32   33   11 ar
    33   34   29 ar
    34   35   23 1
    35   36    7 1
    36   37   10 1
    37   38   12 1
    38   39   12 1
    39   40   13 1
    40   41   17 1
    41   42   18 1
    42   43   19 1
    43   44   20 1
    44   45   21 1
    45   46   22 1
    46   47   22 1
    47   48   24 1
    48   49   25 1
    49   50   25 1
    50   51   26 1
    51   52   27 1
    52   53   27 1
    53   54   27 1
    54   55   28 1
    55   56   29 1
    56   57   30 1
    57   58   31 1
    58   59   32 1
    59   60   32 1
    60   61   32 1
    61   62   33 1
    62   63   34 1
    63   64   35 1
    64   65   35 1
    65   66   35 1
    66   14   36 1
    67   20   24 ar
    68   28   31 ar
    69   30   34 ar
@<TRIPOS>SUBSTRUCTURE
     1 RES1 1

@<TRIPOS>CRYSIN
  10.9538   12.5419   18.2522  90.0000  90.0000  90.0000  19 1

