# MOL2 file generated by ConQuest
# Please check atom types

@<TRIPOS>MOLECULE
POHVUE
    46    50     1
SMALL
NO_CHARGES
****
Generated from CSD

@<TRIPOS>ATOM
      1 O1        14.4232    1.3542    2.8010 O.2       1 RES1    0.0000
      2 O2        14.8455    2.9504    1.4114 O.2       1 RES1    0.0000
      3 N1         9.2492    4.6217    3.6127 N.pl3     1 RES1    0.0000
      4 H1         8.8221    5.3554    3.3813 H         1 RES1    0.0000
      5 N2         8.2172    2.6644    7.1996 N.2       1 RES1    0.0000
      6 N3        10.1661    1.6040    7.7427 N.pl3     1 RES1    0.0000
      7 H2        10.8579    1.1248    7.4824 H         1 RES1    0.0000
      8 N4         9.2416    0.0162   10.1831 N.ar      1 RES1    0.0000
      9 N5        14.1350    2.4114    2.2501 N.pl3     1 RES1    0.0000
     10 C1        12.8771    3.0668    2.6177 C.ar      1 RES1    0.0000
     11 C2        12.5755    4.3085    2.0416 C.ar      1 RES1    0.0000
     12 H3        13.1910    4.7218    1.4465 H         1 RES1    0.0000
     13 C3        11.3810    4.9289    2.3440 C.ar      1 RES1    0.0000
     14 H4        11.1652    5.7804    1.9814 H         1 RES1    0.0000
     15 C4        10.5016    4.2666    3.1985 C.ar      1 RES1    0.0000
     16 C5         8.7586    3.6361    4.4591 C.2       1 RES1    0.0000
     17 C6         7.4251    3.6455    5.0403 C.ar      1 RES1    0.0000
     18 C7         6.3471    4.1927    4.3350 C.ar      1 RES1    0.0000
     19 H5         6.5001    4.6035    3.4919 H         1 RES1    0.0000
     20 C8         5.0656    4.1457    4.8442 C.ar      1 RES1    0.0000
     21 H6         4.3415    4.5193    4.3551 H         1 RES1    0.0000
     22 C9         4.8451    3.5480    6.0765 C.ar      1 RES1    0.0000
     23 H7         3.9631    3.5027    6.4256 H         1 RES1    0.0000
     24 C10        5.8940    3.0189    6.7980 C.ar      1 RES1    0.0000
     25 H8         5.7247    2.6205    7.6440 H         1 RES1    0.0000
     26 C11        7.2045    3.0576    6.3060 C.ar      1 RES1    0.0000
     27 C12        9.2192    1.9242    6.8419 C.2       1 RES1    0.0000
     28 C13       10.0822    2.0246    9.1361 C.3       1 RES1    0.0000
     29 H9         9.9085    2.9995    9.1683 H         1 RES1    0.0000
     30 H10       10.9533    1.8586    9.5753 H         1 RES1    0.0000
     31 C14        8.9988    1.3071    9.9062 C.ar      1 RES1    0.0000
     32 C15        7.8301    1.9384   10.2988 C.ar      1 RES1    0.0000
     33 H11        7.6856    2.8551   10.0912 H         1 RES1    0.0000
     34 C16        6.8750    1.2208   10.9967 C.ar      1 RES1    0.0000
     35 H12        6.0698    1.6381   11.2802 H         1 RES1    0.0000
     36 C17        7.1095   -0.1081   11.2724 C.ar      1 RES1    0.0000
     37 H13        6.4694   -0.6276   11.7442 H         1 RES1    0.0000
     38 C18        8.2971   -0.6629   10.8464 C.ar      1 RES1    0.0000
     39 H14        8.4543   -1.5799   11.0339 H         1 RES1    0.0000
     40 C19        9.4522    1.4264    5.4312 C.3       1 RES1    0.0000
     41 H15       10.2383    0.8261    5.4025 H         1 RES1    0.0000
     42 H16        8.6615    0.9283    5.1061 H         1 RES1    0.0000
     43 C20        9.6904    2.6354    4.5853 C.2       1 RES1    0.0000
     44 C21       10.8152    3.0099    3.7853 C.ar      1 RES1    0.0000
     45 C22       12.0381    2.4070    3.4901 C.ar      1 RES1    0.0000
     46 H17       12.2832    1.5739    3.8756 H         1 RES1    0.0000
@<TRIPOS>BOND
     1    1    9 2
     2    2    9 2
     3    3    4 1
     4    5   26 1
     5    6    7 1
     6    8   31 ar
     7    9   10 1
     8   10   11 ar
     9   11   12 1
    10   13   11 ar
    11   14   13 1
    12   15    3 1
    13   16    3 1
    14   17   16 1
    15   18   17 ar
    16   19   18 1
    17   20   18 ar
    18   21   20 1
    19   22   20 ar
    20   23   22 1
    21   24   22 ar
    22   25   24 1
    23   26   17 ar
    24   27    5 2
    25   28    6 1
    26   29   28 1
    27   30   28 1
    28   31   28 1
    29   32   31 ar
    30   33   32 1
    31   34   32 ar
    32   35   34 1
    33   36   34 ar
    34   37   36 1
    35   38    8 ar
    36   39   38 1
    37   40   27 1
    38   41   40 1
    39   42   40 1
    40   43   16 2
    41   44   15 ar
    42   45   10 ar
    43   46   45 1
    44    6   27 1
    45   13   15 ar
    46   24   26 ar
    47   36   38 ar
    48   40   43 1
    49   43   44 1
    50   44   45 ar
@<TRIPOS>SUBSTRUCTURE
     1 RES1 1

@<TRIPOS>CRYSIN
  10.8951   20.0500    8.6412  90.0000  90.1600  90.0000  14 1

