# MOL2 file generated by ConQuest
# Please check atom types

@<TRIPOS>MOLECULE
POJHOM
    82    90     2
SMALL
NO_CHARGES
****
Generated from CSD

@<TRIPOS>ATOM
      1 C1         2.0931   11.2273    6.5916 C.2       1 RES1    0.0000
      2 C2         0.6414   11.6831    8.1241 C.ar      1 RES1    0.0000
      3 C3        -0.0456   12.1013    9.2333 C.ar      1 RES1    0.0000
      4 H1         0.3483   12.6879    9.8369 H         1 RES1    0.0000
      5 C4        -1.3086   11.6485    9.4439 C.ar      1 RES1    0.0000
      6 H2        -1.7856   11.9433   10.1851 H         1 RES1    0.0000
      7 C5        -1.9058   10.7325    8.5442 C.ar      1 RES1    0.0000
      8 H3        -2.7811   10.4602    8.6943 H         1 RES1    0.0000
      9 C6        -1.2313   10.2301    7.4527 C.ar      1 RES1    0.0000
     10 H4        -1.6083    9.5968    6.8856 H         1 RES1    0.0000
     11 C7         0.0638   10.7355    7.2515 C.ar      1 RES1    0.0000
     12 C8         4.5816   11.3311    6.4499 C.2       1 RES1    0.0000
     13 H5         4.7486   11.4048    7.3620 H         1 RES1    0.0000
     14 C9         3.3201   11.2304    5.8494 C.2       1 RES1    0.0000
     15 C10        3.4978   11.0844    4.4504 C.2       1 RES1    0.0000
     16 C11        5.5564   11.1145    3.0117 C.2       1 RES1    0.0000
     17 H6         5.1043   11.0333    2.2038 H         1 RES1    0.0000
     18 C12        6.9250   11.2409    3.0503 C.2       1 RES1    0.0000
     19 H7         7.4014   11.2379    2.2518 H         1 RES1    0.0000
     20 C13        7.6291   11.3763    4.2721 C.2       1 RES1    0.0000
     21 H8         8.5582   11.4304    4.2825 H         1 RES1    0.0000
     22 C14        6.9346   11.4229    5.4001 C.2       1 RES1    0.0000
     23 H9         7.3954   11.5417    6.1997 H         1 RES1    0.0000
     24 C15        5.5362   11.3041    5.4460 C.2       1 RES1    0.0000
     25 C16        2.5239   10.9686    3.3808 C.ar      1 RES1    0.0000
     26 C17        1.3771   11.7734    3.4121 C.ar      1 RES1    0.0000
     27 H10        1.2703   12.3841    4.1053 H         1 RES1    0.0000
     28 C18        0.4187   11.6846    2.4551 C.ar      1 RES1    0.0000
     29 H11       -0.3409   12.2216    2.4957 H         1 RES1    0.0000
     30 C19        0.5875   10.7941    1.4313 C.ar      1 RES1    0.0000
     31 C20        1.7205    9.9894    1.3281 C.ar      1 RES1    0.0000
     32 H12        1.8317    9.4073    0.6119 H         1 RES1    0.0000
     33 C21        2.6528   10.0811    2.3060 C.ar      1 RES1    0.0000
     34 H13        3.4053    9.5351    2.2622 H         1 RES1    0.0000
     35 N1         0.9924   10.4858    6.2664 N.pl3     1 RES1    0.0000
     36 H14        0.8977    9.9683    5.5856 H         1 RES1    0.0000
     37 N2         1.9327   11.9569    7.6727 N.2       1 RES1    0.0000
     38 N3         4.8718   11.1130    4.2210 N.pl3     1 RES1    0.0000
     39 N4        -0.4191   10.7415    0.3451 N.pl3     1 RES1    0.0000
     40 O1        -1.5089   11.2499    0.5348 O.2       1 RES1    0.0000
     41 O2        -0.1245   10.1248   -0.6714 O.2       1 RES1    0.0000
     42 C22        2.0678    7.4819    4.2137 C.2       2 RES2    0.0000
     43 C23        0.6744    7.0276    2.5791 C.ar      2 RES2    0.0000
     44 C24        0.0113    6.5794    1.4355 C.ar      2 RES2    0.0000
     45 H15        0.4130    6.0003    0.8288 H         2 RES2    0.0000
     46 C25       -1.2874    7.0502    1.2562 C.ar      2 RES2    0.0000
     47 H16       -1.7758    6.7734    0.5139 H         2 RES2    0.0000
     48 C26       -1.8735    7.9362    2.1778 C.ar      2 RES2    0.0000
     49 H17       -2.7408    8.2370    2.0318 H         2 RES2    0.0000
     50 C27       -1.1887    8.3694    3.2922 C.ar      2 RES2    0.0000
     51 H18       -1.5838    8.9485    3.9031 H         2 RES2    0.0000
     52 C28        0.0904    7.9226    3.4715 C.ar      2 RES2    0.0000
     53 C29        4.5949    7.2863    4.3555 C.2       2 RES2    0.0000
     54 H19        4.7563    7.1450    3.4506 H         2 RES2    0.0000
     55 C30        3.3438    7.4458    4.9873 C.2       2 RES2    0.0000
     56 C31        3.4889    7.6263    6.3435 C.2       2 RES2    0.0000
     57 C32        5.5690    7.6007    7.7280 C.2       2 RES2    0.0000
     58 H20        5.1149    7.7211    8.5317 H         2 RES2    0.0000
     59 C33        6.8863    7.4699    7.7394 C.2       2 RES2    0.0000
     60 H21        7.3466    7.5105    8.5463 H         2 RES2    0.0000
     61 C34        7.5868    7.2683    6.5520 C.2       2 RES2    0.0000
     62 H22        8.5115    7.1765    6.5812 H         2 RES2    0.0000
     63 C35        6.9491    7.2036    5.3490 C.2       2 RES2    0.0000
     64 H23        7.4152    7.0517    4.5598 H         2 RES2    0.0000
     65 C36        5.5196    7.3841    5.3584 C.2       2 RES2    0.0000
     66 C37        2.5028    7.7406    7.4017 C.ar      2 RES2    0.0000
     67 C38        1.3597    6.9238    7.3756 C.ar      2 RES2    0.0000
     68 H24        1.2389    6.3161    6.6823 H         2 RES2    0.0000
     69 C39        0.4176    7.0231    8.3722 C.ar      2 RES2    0.0000
     70 H25       -0.3411    6.4861    8.3607 H         2 RES2    0.0000
     71 C40        0.6175    7.9286    9.3866 C.ar      2 RES2    0.0000
     72 C41        1.7247    8.7424    9.4481 C.ar      2 RES2    0.0000
     73 H26        1.8401    9.3426   10.1497 H         2 RES2    0.0000
     74 C42        2.6472    8.6431    8.4514 C.ar      2 RES2    0.0000
     75 H27        3.3950    9.1952    8.4733 H         2 RES2    0.0000
     76 N5         0.9831    8.2024    4.5254 N.2       2 RES2    0.0000
     77 N6         1.9193    6.7809    3.0545 N.pl3     2 RES2    0.0000
     78 H28        2.5093    6.2725    2.6907 H         2 RES2    0.0000
     79 N7         4.8639    7.5646    6.5604 N.pl3     2 RES2    0.0000
     80 N8        -0.3914    8.0369   10.4739 N.pl3     2 RES2    0.0000
     81 O3        -1.4712    7.5300   10.2925 O.2       2 RES2    0.0000
     82 O4        -0.0580    8.5800   11.5143 O.2       2 RES2    0.0000
@<TRIPOS>BOND
     1    1   14 1
     2    2    3 ar
     3    3    4 1
     4    5    3 ar
     5    6    5 1
     6    7    5 ar
     7    8    7 1
     8    9    7 ar
     9   10    9 1
    10   11    2 ar
    11   12   13 1
    12   14   12 1
    13   15   14 2
    14   16   17 1
    15   18   16 2
    16   19   18 1
    17   20   18 1
    18   21   20 1
    19   22   20 2
    20   23   22 1
    21   24   12 2
    22   25   15 1
    23   26   25 ar
    24   27   26 1
    25   28   26 ar
    26   29   28 1
    27   30   28 ar
    28   31   30 ar
    29   32   31 1
    30   33   25 ar
    31   34   33 1
    32   35    1 1
    33   36   35 1
    34   37    1 2
    35   38   15 1
    36   39   30 1
    37   40   39 2
    38   41   39 2
    39   42   55 1
    40   43   44 ar
    41   44   45 1
    42   46   44 ar
    43   47   46 1
    44   48   46 ar
    45   49   48 1
    46   50   48 ar
    47   51   50 1
    48   52   43 ar
    49   53   54 1
    50   55   53 1
    51   56   55 2
    52   57   58 1
    53   59   57 2
    54   60   59 1
    55   61   59 1
    56   62   61 1
    57   63   61 2
    58   64   63 1
    59   65   53 2
    60   66   56 1
    61   67   66 ar
    62   68   67 1
    63   69   67 ar
    64   70   69 1
    65   71   69 ar
    66   72   71 ar
    67   73   72 1
    68   74   66 ar
    69   75   74 1
    70   76   42 2
    71   77   42 1
    72   78   77 1
    73   79   56 1
    74   80   71 1
    75   81   80 2
    76   82   80 2
    77    2   37 1
    78    9   11 ar
    79   11   35 1
    80   16   38 1
    81   22   24 1
    82   24   38 1
    83   31   33 ar
    84   43   77 1
    85   50   52 ar
    86   52   76 1
    87   57   79 1
    88   63   65 1
    89   65   79 1
    90   72   74 ar
@<TRIPOS>SUBSTRUCTURE
     1 RES1 1
     2 RES2 42

@<TRIPOS>CRYSIN
  10.8916   15.0420   11.7510  90.0000 117.4830  90.0000   4 1

