# MOL2 file generated by ConQuest
# Please check atom types

@<TRIPOS>MOLECULE
POJJII
    35    37     1
SMALL
NO_CHARGES
****
Generated from CSD

@<TRIPOS>ATOM
      1 O1         5.7349    1.3390    0.4232 O.3       1 RES1    0.0000
      2 H1         5.5908    0.9790   -0.2990 H         1 RES1    0.0000
      3 N1         5.1046    0.5661    1.4835 N.3       1 RES1    0.0000
      4 C1         3.9175    1.3323    1.8962 C.3       1 RES1    0.0000
      5 H2         3.2588    1.2530    1.1743 H         1 RES1    0.0000
      6 C2         7.3000   -0.3834    2.0327 C.ar      1 RES1    0.0000
      7 C3         6.1273    0.4257    2.5362 C.3       1 RES1    0.0000
      8 H3         6.4446    1.3182    2.7880 H         1 RES1    0.0000
      9 C4         3.2639    0.7756    3.1633 C.3       1 RES1    0.0000
     10 H4         2.7973   -0.0638    2.9667 H         1 RES1    0.0000
     11 C5         4.2861    0.5661    4.2613 C.3       1 RES1    0.0000
     12 H5         3.8734    0.0907    4.9998 H         1 RES1    0.0000
     13 H6         4.5869    1.4276    4.5895 H         1 RES1    0.0000
     14 C6         5.4812   -0.2276    3.7559 C.3       1 RES1    0.0000
     15 H7         5.1936   -1.1241    3.5228 H         1 RES1    0.0000
     16 H8         6.1385   -0.3002    4.4656 H         1 RES1    0.0000
     17 C7         7.1250   -1.6787    1.5694 C.ar      1 RES1    0.0000
     18 H9         6.2692   -2.0407    1.5353 H         1 RES1    0.0000
     19 C8         4.0869    2.8277    2.1883 C.3       1 RES1    0.0000
     20 H10        4.9335    2.9976    2.6312 H         1 RES1    0.0000
     21 H11        4.0543    3.3447    1.3676 H         1 RES1    0.0000
     22 C9         8.1988   -2.4416    1.1579 C.ar      1 RES1    0.0000
     23 H12        8.0650   -3.3092    0.8515 H         1 RES1    0.0000
     24 C10        9.6591   -0.6299    1.6504 C.ar      1 RES1    0.0000
     25 H13       10.5171   -0.2720    1.6739 H         1 RES1    0.0000
     26 C11        8.5819    0.1330    2.0689 C.ar      1 RES1    0.0000
     27 H14        8.7214    0.9992    2.3759 H         1 RES1    0.0000
     28 C12        2.2534    1.8789    3.5075 C.3       1 RES1    0.0000
     29 H15        1.4262    1.7486    3.0178 H         1 RES1    0.0000
     30 H16        2.0565    1.8768    4.4564 H         1 RES1    0.0000
     31 C13        9.4633   -1.9144    1.2013 C.ar      1 RES1    0.0000
     32 H17       10.1898   -2.4261    0.9263 H         1 RES1    0.0000
     33 C14        2.9123    3.1843    3.1027 C.3       1 RES1    0.0000
     34 H18        3.2279    3.6597    3.8875 H         1 RES1    0.0000
     35 H19        2.2794    3.7497    2.6330 H         1 RES1    0.0000
@<TRIPOS>BOND
     1    1    2 1
     2    3    1 1
     3    4    3 1
     4    5    4 1
     5    6    7 1
     6    7    3 1
     7    8    7 1
     8    9    4 1
     9   10    9 1
    10   11    9 1
    11   12   11 1
    12   13   11 1
    13   14    7 1
    14   15   14 1
    15   16   14 1
    16   17    6 ar
    17   18   17 1
    18   19    4 1
    19   20   19 1
    20   21   19 1
    21   22   17 ar
    22   23   22 1
    23   24   25 1
    24   26    6 ar
    25   27   26 1
    26   28    9 1
    27   29   28 1
    28   30   28 1
    29   31   22 ar
    30   32   31 1
    31   33   19 1
    32   34   33 1
    33   35   33 1
    34   11   14 1
    35   24   26 ar
    36   24   31 ar
    37   28   33 1
@<TRIPOS>SUBSTRUCTURE
     1 RES1 1

@<TRIPOS>CRYSIN
   9.9170    6.7150   18.6110  90.0000 101.5490  90.0000 231 1

