# MOL2 file generated by ConQuest
# Please check atom types

@<TRIPOS>MOLECULE
POJQIQ
    46    49     1
SMALL
NO_CHARGES
****
Generated from CSD

@<TRIPOS>ATOM
      1 O1         4.8790    4.5130    4.0728 O.3       1 RES1    0.0000
      2 N1         3.4825    4.2456    4.3460 N.3       1 RES1    0.0000
      3 C1         0.6532   10.0407    3.5136 C.ar      1 RES1    0.0000
      4 H1         0.1184   10.8257    3.5017 H         1 RES1    0.0000
      5 C2         1.8666   10.0143    2.8513 C.ar      1 RES1    0.0000
      6 H2         2.1674   10.7847    2.3831 H         1 RES1    0.0000
      7 C3         2.6443    8.8723    2.8671 C.ar      1 RES1    0.0000
      8 H3         3.4766    8.8683    2.4087 H         1 RES1    0.0000
      9 C4         2.2267    7.7184    3.5479 C.ar      1 RES1    0.0000
     10 C5         3.0640    6.4863    3.5692 C.2       1 RES1    0.0000
     11 C6         3.9703    6.2130    2.6354 C.2       1 RES1    0.0000
     12 H4         4.0213    6.7752    1.8719 H         1 RES1    0.0000
     13 C7         4.9157    5.0519    2.7384 C.3       1 RES1    0.0000
     14 H5         5.8363    5.4191    2.6041 H         1 RES1    0.0000
     15 C8         4.7313    3.9521    1.7074 C.ar      1 RES1    0.0000
     16 C9         3.5992    3.8631    0.9074 C.ar      1 RES1    0.0000
     17 H6         2.9124    4.5142    0.9878 H         1 RES1    0.0000
     18 C10        3.4641    2.8284   -0.0107 C.ar      1 RES1    0.0000
     19 H7         2.6913    2.7825   -0.5608 H         1 RES1    0.0000
     20 C11        4.4448    1.8694   -0.1264 C.ar      1 RES1    0.0000
     21 H8         4.3455    1.1588   -0.7488 H         1 RES1    0.0000
     22 C12        3.0625    0.8802    6.8351 C.ar      1 RES1    0.0000
     23 H9         2.9588    0.1094    7.3808 H         1 RES1    0.0000
     24 C13        4.2045    1.0567    6.0822 C.ar      1 RES1    0.0000
     25 H10        4.8872    0.3965    6.1073 H         1 RES1    0.0000
     26 C14        4.3714    2.1801    5.2905 C.ar      1 RES1    0.0000
     27 H11        5.1679    2.2887    4.7842 H         1 RES1    0.0000
     28 C15        3.3772    3.1499    5.2350 C.ar      1 RES1    0.0000
     29 C16        0.2236    8.9189    4.1926 C.ar      1 RES1    0.0000
     30 H12       -0.6099    8.9322    4.6474 H         1 RES1    0.0000
     31 C17        1.0002    7.7740    4.2142 C.ar      1 RES1    0.0000
     32 H13        0.6939    7.0120    4.6910 H         1 RES1    0.0000
     33 C18        2.8658    5.5248    4.7256 C.3       1 RES1    0.0000
     34 H14        1.8828    5.3685    4.8233 H         1 RES1    0.0000
     35 C19        3.3755    6.0930    6.0446 C.3       1 RES1    0.0000
     36 H15        3.0955    5.5104    6.7809 H         1 RES1    0.0000
     37 H16        3.0048    6.9902    6.1795 H         1 RES1    0.0000
     38 H17        4.3540    6.1433    6.0216 H         1 RES1    0.0000
     39 C20        5.5791    1.9442    0.6698 C.ar      1 RES1    0.0000
     40 H18        6.2563    1.2826    0.5939 H         1 RES1    0.0000
     41 C21        5.7234    2.9830    1.5752 C.ar      1 RES1    0.0000
     42 H19        6.5067    3.0346    2.1110 H         1 RES1    0.0000
     43 C22        2.2181    2.9698    5.9952 C.ar      1 RES1    0.0000
     44 H20        1.5287    3.6232    5.9705 H         1 RES1    0.0000
     45 C23        2.0714    1.8426    6.7839 C.ar      1 RES1    0.0000
     46 H21        1.2797    1.7289    7.2966 H         1 RES1    0.0000
@<TRIPOS>BOND
     1    1    2 1
     2    2   28 1
     3    3    4 1
     4    5    3 ar
     5    6    5 1
     6    7    5 ar
     7    8    7 1
     8    9    7 ar
     9   10    9 1
    10   11   10 2
    11   12   11 1
    12   13    1 1
    13   14   13 1
    14   15   13 1
    15   16   15 ar
    16   17   16 1
    17   18   16 ar
    18   19   18 1
    19   20   18 ar
    20   21   20 1
    21   22   23 1
    22   24   22 ar
    23   25   24 1
    24   26   24 ar
    25   27   26 1
    26   28   26 ar
    27   29    3 ar
    28   30   29 1
    29   31    9 ar
    30   32   31 1
    31   33    2 1
    32   34   33 1
    33   35   33 1
    34   36   35 1
    35   37   35 1
    36   38   35 1
    37   39   20 ar
    38   40   39 1
    39   41   15 ar
    40   42   41 1
    41   43   28 ar
    42   44   43 1
    43   45   22 ar
    44   46   45 1
    45   10   33 1
    46   11   13 1
    47   29   31 ar
    48   39   41 ar
    49   43   45 ar
@<TRIPOS>SUBSTRUCTURE
     1 RES1 1

@<TRIPOS>CRYSIN
   5.6805   10.0159   15.1868  91.5660  97.7110  96.5800   2 1

