# MOL2 file generated by ConQuest
# Please check atom types

@<TRIPOS>MOLECULE
POJXOD
    34    37     1
SMALL
NO_CHARGES
****
Generated from CSD

@<TRIPOS>ATOM
      1 O1         4.6354    6.3309    1.7166 O.3       1 RES1    0.0000
      2 O2         4.1606    7.3650   -0.6937 O.2       1 RES1    0.0000
      3 N1         1.0503    6.3006    1.6310 N.pl3     1 RES1    0.0000
      4 N2         0.1524    5.9619    2.6080 N.2       1 RES1    0.0000
      5 N3         0.8618    5.5532    3.6290 N.2       1 RES1    0.0000
      6 N4         3.3479    6.4704    1.2234 N.am      1 RES1    0.0000
      7 C1         0.2115    8.1015   -2.0261 C.ar      1 RES1    0.0000
      8 H1         0.0302    8.5681   -2.8332 H         1 RES1    0.0000
      9 C2        -0.8404    7.6598   -1.2256 C.ar      1 RES1    0.0000
     10 H2        -1.7366    7.7937   -1.5116 H         1 RES1    0.0000
     11 C3        -0.5968    7.0285   -0.0190 C.ar      1 RES1    0.0000
     12 H3        -1.3154    6.7312    0.5262 H         1 RES1    0.0000
     13 C4         0.7209    6.8389    0.3775 C.ar      1 RES1    0.0000
     14 C5         2.3171    6.0996    2.0672 C.2       1 RES1    0.0000
     15 C6         2.2054    5.6044    3.3501 C.2       1 RES1    0.0000
     16 C7         3.2148    5.2136    4.3499 C.ar      1 RES1    0.0000
     17 C8         3.0312    5.5638    5.6890 C.ar      1 RES1    0.0000
     18 H4         2.2478    6.0331    5.9498 H         1 RES1    0.0000
     19 C9         3.9815    5.2335    6.6386 C.ar      1 RES1    0.0000
     20 H5         3.8415    5.4674    7.5485 H         1 RES1    0.0000
     21 C10        5.1369    4.5632    6.2689 C.ar      1 RES1    0.0000
     22 H6         5.8009    4.3624    6.9181 H         1 RES1    0.0000
     23 C11        5.3162    4.1885    4.9486 C.ar      1 RES1    0.0000
     24 H7         6.1022    3.7184    4.6951 H         1 RES1    0.0000
     25 C12        4.3580    4.4935    3.9947 C.ar      1 RES1    0.0000
     26 H8         4.4791    4.2120    3.0963 H         1 RES1    0.0000
     27 C13        5.0259    7.5464    2.4023 C.3       1 RES1    0.0000
     28 H9         4.9762    8.3022    1.7809 H         1 RES1    0.0000
     29 H10        5.9440    7.4547    2.7320 H         1 RES1    0.0000
     30 H11        4.4214    7.7037    3.1570 H         1 RES1    0.0000
     31 C14        3.1947    7.0364   -0.0279 C.2       1 RES1    0.0000
     32 C15        1.7903    7.2193   -0.4390 C.ar      1 RES1    0.0000
     33 C16        1.5150    7.8623   -1.6475 C.ar      1 RES1    0.0000
     34 H12        2.2293    8.1359   -2.2105 H         1 RES1    0.0000
@<TRIPOS>BOND
     1    1    6 1
     2    2   31 2
     3    3    4 1
     4    4    5 2
     5    5   15 1
     6    6   14 1
     7    7    8 1
     8    9    7 ar
     9   10    9 1
    10   11    9 ar
    11   12   11 1
    12   13    3 1
    13   14    3 1
    14   15   14 2
    15   16   15 1
    16   17   16 ar
    17   18   17 1
    18   19   17 ar
    19   20   19 1
    20   21   19 ar
    21   22   21 1
    22   23   21 ar
    23   24   23 1
    24   25   16 ar
    25   26   25 1
    26   27    1 1
    27   28   27 1
    28   29   27 1
    29   30   27 1
    30   31    6 1
    31   32   13 ar
    32   33    7 ar
    33   34   33 1
    34   11   13 ar
    35   23   25 ar
    36   31   32 1
    37   32   33 ar
@<TRIPOS>SUBSTRUCTURE
     1 RES1 1

@<TRIPOS>CRYSIN
   8.1776   10.5936   15.9499  90.0000 102.5770  90.0000  14 1

