# MOL2 file generated by ConQuest
# Please check atom types

@<TRIPOS>MOLECULE
POKPIO
    50    53     1
SMALL
NO_CHARGES
****
Generated from CSD

@<TRIPOS>ATOM
      1 O1         9.1008    5.1840    4.8688 O.3       1 RES1    0.0000
      2 O2        10.3257    7.0607    5.1515 O.3       1 RES1    0.0000
      3 O3         8.7801    5.4334    9.7598 O.3       1 RES1    0.0000
      4 O4         8.2096    7.6275    3.5446 O.3       1 RES1    0.0000
      5 O5         5.9572    7.4568    3.9442 O.3       1 RES1    0.0000
      6 O6         5.6694    0.7408    7.6702 O.2       1 RES1    0.0000
      7 O7         6.5191    0.9741    9.7317 O.3       1 RES1    0.0000
      8 N1         7.8697    4.5004    5.1153 N.3       1 RES1    0.0000
      9 C1         7.7399    4.2083    6.5182 C.ar      1 RES1    0.0000
     10 C2         7.0574    3.0487    6.8427 C.ar      1 RES1    0.0000
     11 C3         7.0035    2.6527    8.1647 C.ar      1 RES1    0.0000
     12 C4         7.5966    3.4243    9.1566 C.ar      1 RES1    0.0000
     13 C5         8.2189    4.6167    8.8269 C.ar      1 RES1    0.0000
     14 C6         8.3066    5.0499    7.4765 C.ar      1 RES1    0.0000
     15 C7         8.9046    6.3176    7.0209 C.2       1 RES1    0.0000
     16 C8         9.1211    6.4747    5.4991 C.3       1 RES1    0.0000
     17 C9         8.0281    7.3597    4.9344 C.3       1 RES1    0.0000
     18 C10        6.6642    6.6889    4.9290 C.3       1 RES1    0.0000
     19 C11        6.7654    5.2355    4.4981 C.3       1 RES1    0.0000
     20 C12        6.3162    1.3650    8.4654 C.2       1 RES1    0.0000
     21 C13        9.1783    7.3584    7.7750 C.2       1 RES1    0.0000
     22 C14        5.9261   -0.3072   10.0903 C.3       1 RES1    0.0000
     23 C15        8.6591    5.0750   11.1470 C.3       1 RES1    0.0000
     24 C16       11.5247    6.3746    5.5872 C.3       1 RES1    0.0000
     25 C17        6.9298    8.0296    3.0447 C.3       1 RES1    0.0000
     26 C18        6.7392    7.4686    1.6575 C.3       1 RES1    0.0000
     27 C19        6.7997    9.5307    3.0673 C.3       1 RES1    0.0000
     28 H1         6.6574    2.3706    6.0971 H         1 RES1    0.0000
     29 H2         7.5928    3.0858   10.1131 H         1 RES1    0.0000
     30 H3         7.9149    8.2405    5.4824 H         1 RES1    0.0000
     31 H4         6.2147    6.8844    5.8120 H         1 RES1    0.0000
     32 H5         6.9159    5.1650    3.4827 H         1 RES1    0.0000
     33 H6         5.9278    4.7072    4.6825 H         1 RES1    0.0000
     34 H7         9.5783    8.2587    7.3451 H         1 RES1    0.0000
     35 H8         9.1214    7.3130    8.8467 H         1 RES1    0.0000
     36 H9         6.0256   -0.4476   11.0889 H         1 RES1    0.0000
     37 H10        6.1860   -0.9260    9.3632 H         1 RES1    0.0000
     38 H11        4.8542   -0.2147   10.1372 H         1 RES1    0.0000
     39 H12        7.7437    4.8809   11.3351 H         1 RES1    0.0000
     40 H13        8.9462    5.7958   11.6851 H         1 RES1    0.0000
     41 H14        9.1849    4.3078   11.3203 H         1 RES1    0.0000
     42 H15       11.4340    5.3663    5.2288 H         1 RES1    0.0000
     43 H16       11.5319    6.2299    6.5952 H         1 RES1    0.0000
     44 H17       12.2661    6.8741    5.2732 H         1 RES1    0.0000
     45 H18        7.3150    7.9422    1.0498 H         1 RES1    0.0000
     46 H19        5.8653    7.5104    1.3924 H         1 RES1    0.0000
     47 H20        7.0467    6.5418    1.6627 H         1 RES1    0.0000
     48 H21        7.4726   10.0072    2.4533 H         1 RES1    0.0000
     49 H22        6.9781    9.9204    3.9845 H         1 RES1    0.0000
     50 H23        5.9378    9.7025    2.7051 H         1 RES1    0.0000
@<TRIPOS>BOND
     1    1    8 1
     2    2   16 1
     3    3   13 1
     4    4   17 1
     5    5   18 1
     6    6   20 2
     7    7   20 1
     8    8    9 1
     9    9   10 ar
    10   10   11 ar
    11   11   12 ar
    12   12   13 ar
    13   13   14 ar
    14   14    9 ar
    15   15   14 1
    16   16    1 1
    17   17   16 1
    18   18   17 1
    19   19    8 1
    20   20   11 1
    21   21   15 2
    22   22    7 1
    23   23    3 1
    24   24    2 1
    25   25    4 1
    26   26   25 1
    27   27   25 1
    28   28   10 1
    29   29   12 1
    30   30   17 1
    31   31   18 1
    32   32   19 1
    33   33   19 1
    34   34   21 1
    35   35   21 1
    36   36   22 1
    37   37   22 1
    38   38   22 1
    39   39   23 1
    40   40   23 1
    41   41   23 1
    42   42   24 1
    43   43   24 1
    44   44   24 1
    45   45   26 1
    46   46   26 1
    47   47   26 1
    48   48   27 1
    49   49   27 1
    50   50   27 1
    51    5   25 1
    52   15   16 1
    53   18   19 1
@<TRIPOS>SUBSTRUCTURE
     1 RES1 1

@<TRIPOS>CRYSIN
  12.3910    7.8940   19.1490  90.0000 104.7800  90.0000  14 1

