# MOL2 file generated by ConQuest
# Please check atom types

@<TRIPOS>MOLECULE
POKRIS
    54    57     1
SMALL
NO_CHARGES
****
Generated from CSD

@<TRIPOS>ATOM
      1 O1         2.2395    8.5794   20.7753 O.2       1 RES1    0.0000
      2 O2         1.0381   10.2965   21.2943 O.2       1 RES1    0.0000
      3 O3         5.4858   12.3401   25.0801 O.3       1 RES1    0.0000
      4 N1         1.8840    9.7318   20.6180 N.pl3     1 RES1    0.0000
      5 N2         7.2224   11.9147   19.0957 N.1       1 RES1    0.0000
      6 N3         3.6891   14.0542   18.8470 N.1       1 RES1    0.0000
      7 C1         2.5526   10.5419   19.5202 C.3       1 RES1    0.0000
      8 H1         2.1349   11.4494   19.4768 H         1 RES1    0.0000
      9 C2         2.3295    9.8152   18.1913 C.3       1 RES1    0.0000
     10 H2         2.4223    8.8411   18.3388 H         1 RES1    0.0000
     11 H3         1.4051    9.9875   17.8815 H         1 RES1    0.0000
     12 C3         3.2959   10.2409   17.1075 C.2       1 RES1    0.0000
     13 C4         4.3512   11.0275   17.3148 C.2       1 RES1    0.0000
     14 C5         4.6371   11.6034   18.7229 C.3       1 RES1    0.0000
     15 C6         4.0357   10.6830   19.8433 C.3       1 RES1    0.0000
     16 H4         4.4496    9.7784   19.7380 H         1 RES1    0.0000
     17 C7         4.3616   11.1677   21.2441 C.ar      1 RES1    0.0000
     18 C8         3.5944   12.1099   21.9276 C.ar      1 RES1    0.0000
     19 H5         2.8242   12.4758   21.5066 H         1 RES1    0.0000
     20 C9         3.9320   12.5258   23.2118 C.ar      1 RES1    0.0000
     21 H6         3.3927   13.1616   23.6670 H         1 RES1    0.0000
     22 C10        5.0587   12.0048   23.8183 C.ar      1 RES1    0.0000
     23 C11        5.8471   11.0751   23.1478 C.ar      1 RES1    0.0000
     24 H7         6.6236   10.7213   23.5640 H         1 RES1    0.0000
     25 C12        5.5000   10.6683   21.8791 C.ar      1 RES1    0.0000
     26 H8         6.0461   10.0355   21.4262 H         1 RES1    0.0000
     27 C13        4.7750   13.3892   25.7411 C.3       1 RES1    0.0000
     28 H9         4.7995   14.1983   25.1894 H         1 RES1    0.0000
     29 H10        5.1940   13.5720   26.6088 H         1 RES1    0.0000
     30 H11        3.8436   13.1159   25.8803 H         1 RES1    0.0000
     31 C14        6.1025   11.7465   18.9356 C.1       1 RES1    0.0000
     32 C15        4.0970   12.9845   18.8098 C.1       1 RES1    0.0000
     33 C16        5.3597   11.3600   16.2667 C.ar      1 RES1    0.0000
     34 C17        5.5495   12.6739   15.8409 C.ar      1 RES1    0.0000
     35 H12        5.0167   13.3697   16.2059 H         1 RES1    0.0000
     36 C18        6.5093   12.9713   14.8888 C.ar      1 RES1    0.0000
     37 H13        6.6333   13.8703   14.6057 H         1 RES1    0.0000
     38 C19        7.2881   11.9649   14.3467 C.ar      1 RES1    0.0000
     39 H14        7.9443   12.1718   13.6913 H         1 RES1    0.0000
     40 C20        7.1101   10.6564   14.7609 C.ar      1 RES1    0.0000
     41 H15        7.6438    9.9635   14.3896 H         1 RES1    0.0000
     42 C21        6.1486   10.3562   15.7206 C.ar      1 RES1    0.0000
     43 H16        6.0315    9.4572   16.0050 H         1 RES1    0.0000
     44 C22        2.9899    9.7048   15.7442 C.ar      1 RES1    0.0000
     45 C23        2.8861   10.5681   14.6481 C.ar      1 RES1    0.0000
     46 H17        3.0055   11.5020   14.7715 H         1 RES1    0.0000
     47 C24        2.6102   10.0693   13.3865 C.ar      1 RES1    0.0000
     48 H18        2.5459   10.6619   12.6462 H         1 RES1    0.0000
     49 C25        2.4301    8.7150   13.2014 C.ar      1 RES1    0.0000
     50 H19        2.2426    8.3759   12.3347 H         1 RES1    0.0000
     51 C26        2.5212    7.8514   14.2761 C.ar      1 RES1    0.0000
     52 H20        2.3982    6.9186   14.1460 H         1 RES1    0.0000
     53 C27        2.7916    8.3422   15.5460 C.ar      1 RES1    0.0000
     54 H21        2.8414    7.7450   16.2838 H         1 RES1    0.0000
@<TRIPOS>BOND
     1    1    4 2
     2    2    4 2
     3    3   22 1
     4    4    7 1
     5    5   31 3
     6    6   32 3
     7    7    8 1
     8    9    7 1
     9   10    9 1
    10   11    9 1
    11   12    9 1
    12   13   12 2
    13   14   13 1
    14   15    7 1
    15   16   15 1
    16   17   15 1
    17   18   17 ar
    18   19   18 1
    19   20   18 ar
    20   21   20 1
    21   22   20 ar
    22   23   22 ar
    23   24   23 1
    24   25   17 ar
    25   26   25 1
    26   27    3 1
    27   28   27 1
    28   29   27 1
    29   30   27 1
    30   31   14 1
    31   32   14 1
    32   33   13 1
    33   34   33 ar
    34   35   34 1
    35   36   34 ar
    36   37   36 1
    37   38   36 ar
    38   39   38 1
    39   40   38 ar
    40   41   40 1
    41   42   33 ar
    42   43   42 1
    43   44   12 1
    44   45   44 ar
    45   46   45 1
    46   47   45 ar
    47   48   47 1
    48   49   47 ar
    49   50   49 1
    50   51   49 ar
    51   52   51 1
    52   53   44 ar
    53   54   53 1
    54   14   15 1
    55   23   25 ar
    56   40   42 ar
    57   51   53 ar
@<TRIPOS>SUBSTRUCTURE
     1 RES1 1

@<TRIPOS>CRYSIN
   7.6674   11.4300   25.1270  90.0000  91.1900  90.0000 231 1

