# MOL2 file generated by ConQuest
# Please check atom types

@<TRIPOS>MOLECULE
POLWUK
    43    45     1
SMALL
NO_CHARGES
****
Generated from CSD

@<TRIPOS>ATOM
      1 O1         9.0787    7.5231    5.3176 O.2       1 RES1    0.0000
      2 O2         7.8054    9.2600    5.3486 O.2       1 RES1    0.0000
      3 O3         7.3793   10.5360   11.3664 O.2       1 RES1    0.0000
      4 O4         6.6796   11.3889    9.5245 O.2       1 RES1    0.0000
      5 O5        13.7021    2.7701    9.3128 O.2       1 RES1    0.0000
      6 O6        15.3721    3.8296   10.1928 O.2       1 RES1    0.0000
      7 O7        18.6915    1.5253    6.8507 O.2       1 RES1    0.0000
      8 O8        18.4020    1.9534    4.8150 O.2       1 RES1    0.0000
      9 O9        14.6277    4.7235    3.4785 O.2       1 RES1    0.0000
     10 O10       14.1864    6.3045    4.8733 O.2       1 RES1    0.0000
     11 N1        10.5065    7.7232   11.5000 N.2       1 RES1    0.0000
     12 N2        10.7569    7.3427   10.1909 N.pl3     1 RES1    0.0000
     13 N3         8.5300    8.4400    5.9020 N.pl3     1 RES1    0.0000
     14 N4         7.3428   10.5672   10.1495 N.pl3     1 RES1    0.0000
     15 N5        12.5509    6.0782   11.0012 N.3       1 RES1    0.0000
     16 N6        12.1116    6.2963    8.6690 N.2       1 RES1    0.0000
     17 N7        13.2863    5.5419    8.5203 N.2       1 RES1    0.0000
     18 N8        14.7558    3.3868    9.2460 N.pl3     1 RES1    0.0000
     19 N9        18.1374    2.1026    5.9773 N.pl3     1 RES1    0.0000
     20 N10       14.6317    5.1975    4.6126 N.pl3     1 RES1    0.0000
     21 C1         9.5255    8.5876   11.4370 C.2       1 RES1    0.0000
     22 H1         9.1486    9.0222   12.1937 H         1 RES1    0.0000
     23 C2         9.0812    8.8008   10.0845 C.ar      1 RES1    0.0000
     24 C3         9.8954    7.9528    9.2958 C.ar      1 RES1    0.0000
     25 C4         9.7427    7.8020    7.9246 C.ar      1 RES1    0.0000
     26 H2        10.2818    7.2082    7.4145 H         1 RES1    0.0000
     27 C5         8.7542    8.5695    7.3570 C.ar      1 RES1    0.0000
     28 C6         7.9629    9.4978    8.0516 C.ar      1 RES1    0.0000
     29 H3         7.3313   10.0423    7.5980 H         1 RES1    0.0000
     30 C7         8.1401    9.5897    9.4116 C.ar      1 RES1    0.0000
     31 C8        11.8901    6.5292    9.9302 C.2       1 RES1    0.0000
     32 C9        13.4595    5.1762    7.3053 C.2       1 RES1    0.0000
     33 H4        12.8255    5.4074    6.6361 H         1 RES1    0.0000
     34 C10       14.6527    4.3955    6.9674 C.ar      1 RES1    0.0000
     35 C11       15.3324    3.5885    7.8916 C.ar      1 RES1    0.0000
     36 C12       16.4724    2.8735    7.6272 C.ar      1 RES1    0.0000
     37 H5        16.9167    2.3814    8.3067 H         1 RES1    0.0000
     38 C13       16.9442    2.9013    6.3237 C.ar      1 RES1    0.0000
     39 C14       16.3351    3.6328    5.3288 C.ar      1 RES1    0.0000
     40 H6        16.6671    3.6263    4.4385 H         1 RES1    0.0000
     41 C15       15.2218    4.3758    5.6761 C.ar      1 RES1    0.0000
     42 H7        13.2049    5.5763   10.9175 H         1 RES1    0.0000
     43 H8        12.3063    6.3964   11.8210 H         1 RES1    0.0000
@<TRIPOS>BOND
     1    1   13 2
     2    2   13 2
     3    3   14 2
     4    4   14 2
     5    5   18 2
     6    6   18 2
     7    7   19 2
     8    8   19 2
     9    9   20 2
    10   10   20 2
    11   11   12 1
    12   12   24 1
    13   13   27 1
    14   14   30 1
    15   15   31 1
    16   16   17 1
    17   17   32 2
    18   18   35 1
    19   19   38 1
    20   20   41 1
    21   21   11 2
    22   22   21 1
    23   23   21 1
    24   24   23 ar
    25   25   24 ar
    26   26   25 1
    27   27   25 ar
    28   28   27 ar
    29   29   28 1
    30   30   23 ar
    31   31   12 1
    32   32   33 1
    33   34   32 1
    34   35   34 ar
    35   36   35 ar
    36   37   36 1
    37   38   36 ar
    38   39   38 ar
    39   40   39 1
    40   41   34 ar
    41   42   15 1
    42   43   15 1
    43   16   31 2
    44   28   30 ar
    45   39   41 ar
@<TRIPOS>SUBSTRUCTURE
     1 RES1 1

@<TRIPOS>CRYSIN
  24.9620   16.4010    9.4116  90.0000  90.0000  90.0000  41 1

