# MOL2 file generated by ConQuest
# Please check atom types

@<TRIPOS>MOLECULE
POLZAR
    53    56     1
SMALL
NO_CHARGES
****
Generated from CSD

@<TRIPOS>ATOM
      1 C1        -2.6936    2.7123   15.8526 C.3       1 RES1    0.0000
      2 C2        -2.5253    1.6729   14.7300 C.3       1 RES1    0.0000
      3 C3        -1.5507    2.3494   13.7449 C.3       1 RES1    0.0000
      4 C4        -2.3784    3.4169   13.0735 C.3       1 RES1    0.0000
      5 C5        -2.5368    4.4826   14.1705 C.3       1 RES1    0.0000
      6 C6        -1.8012    3.8729   15.4105 C.3       1 RES1    0.0000
      7 C7        -0.6200    3.1167   14.7079 C.3       1 RES1    0.0000
      8 C8         0.3682    4.1244   14.1246 C.3       1 RES1    0.0000
      9 C9         0.8172    5.1312   15.1739 C.3       1 RES1    0.0000
     10 C10       -0.3509    5.8592   15.8232 C.3       1 RES1    0.0000
     11 C11       -1.4021    4.9325   16.4524 C.3       1 RES1    0.0000
     12 C12        0.1968    2.1189   15.5481 C.3       1 RES1    0.0000
     13 C13       -2.6315    5.7705   16.8615 C.3       1 RES1    0.0000
     14 C14       -0.8301    4.3110   17.7402 C.3       1 RES1    0.0000
     15 O1        -1.6430    3.9122   11.9160 O.3       1 RES1    0.0000
     16 C15       -2.3062    4.5238   10.9292 C.2       1 RES1    0.0000
     17 O2        -3.4960    4.6888   10.9255 O.2       1 RES1    0.0000
     18 C16       -1.3798    4.9248    9.8450 C.ar      1 RES1    0.0000
     19 C17       -0.0003    4.6910    9.9239 C.ar      1 RES1    0.0000
     20 C18        0.8262    5.0861    8.9077 C.ar      1 RES1    0.0000
     21 C19        0.2902    5.7381    7.8236 C.ar      1 RES1    0.0000
     22 C20       -1.0628    5.9838    7.7190 C.ar      1 RES1    0.0000
     23 C21       -1.8924    5.5800    8.7297 C.ar      1 RES1    0.0000
     24 N1         1.1907    6.1759    6.7541 N.pl3     1 RES1    0.0000
     25 O3         2.3872    6.0284    6.8899 O.2       1 RES1    0.0000
     26 O4         0.7088    6.7537    5.7966 O.2       1 RES1    0.0000
     27 H1        -2.5169    2.3748   16.6909 H         1 RES1    0.0000
     28 H2        -3.6128    2.9164   15.9902 H         1 RES1    0.0000
     29 H3        -3.3279    1.4047   14.2970 H         1 RES1    0.0000
     30 H4        -2.2182    0.8539   15.0088 H         1 RES1    0.0000
     31 H5        -1.1955    1.7446   13.0974 H         1 RES1    0.0000
     32 H6        -3.1989    3.0876   12.6333 H         1 RES1    0.0000
     33 H7        -3.4996    4.5145   14.3099 H         1 RES1    0.0000
     34 H8        -2.0903    5.3579   13.8641 H         1 RES1    0.0000
     35 H9         1.0331    3.6739   13.7798 H         1 RES1    0.0000
     36 H10        0.0499    4.6603   13.4441 H         1 RES1    0.0000
     37 H11        1.3615    5.7841   14.7300 H         1 RES1    0.0000
     38 H12        1.3060    4.5958   15.9040 H         1 RES1    0.0000
     39 H13       -0.8098    6.4965   15.0987 H         1 RES1    0.0000
     40 H14        0.0038    6.5072   16.5093 H         1 RES1    0.0000
     41 H15        0.4813    1.4342   14.9354 H         1 RES1    0.0000
     42 H16       -0.3852    1.5573   16.1424 H         1 RES1    0.0000
     43 H17        0.9235    2.5337   16.2470 H         1 RES1    0.0000
     44 H18       -2.9796    6.4006   15.9773 H         1 RES1    0.0000
     45 H19       -2.3624    6.3986   17.4210 H         1 RES1    0.0000
     46 H20       -3.2236    5.1093   17.2687 H         1 RES1    0.0000
     47 H21        0.0492    3.7304   17.5347 H         1 RES1    0.0000
     48 H22       -1.3445    3.5931   18.1639 H         1 RES1    0.0000
     49 H23       -0.6810    5.0288   18.2776 H         1 RES1    0.0000
     50 H24        0.2870    4.2152   10.6852 H         1 RES1    0.0000
     51 H25        1.7821    4.9778    8.9169 H         1 RES1    0.0000
     52 H26       -1.3108    6.5469    6.9651 H         1 RES1    0.0000
     53 H27       -2.7966    5.7262    8.6784 H         1 RES1    0.0000
@<TRIPOS>BOND
     1    1    2 1
     2    2    3 1
     3    3    4 1
     4    4    5 1
     5    5    6 1
     6    6    1 1
     7    7    3 1
     8    8    7 1
     9    9    8 1
    10   10    9 1
    11   11    6 1
    12   12    7 1
    13   13   11 1
    14   14   11 1
    15   15    4 1
    16   16   15 1
    17   17   16 2
    18   18   16 1
    19   19   18 ar
    20   20   19 ar
    21   21   20 ar
    22   22   21 ar
    23   23   18 ar
    24   24   21 1
    25   25   24 2
    26   26   24 2
    27   27    1 1
    28   28    1 1
    29   29    2 1
    30   30    2 1
    31   31    3 1
    32   32    4 1
    33   33    5 1
    34   34    5 1
    35   35    8 1
    36   36    8 1
    37   37    9 1
    38   38    9 1
    39   39   10 1
    40   40   10 1
    41   41   12 1
    42   42   12 1
    43   43   12 1
    44   44   13 1
    45   45   13 1
    46   46   13 1
    47   47   14 1
    48   48   14 1
    49   49   14 1
    50   50   19 1
    51   51   20 1
    52   52   22 1
    53   53   23 1
    54    6    7 1
    55   10   11 1
    56   22   23 ar
@<TRIPOS>SUBSTRUCTURE
     1 RES1 1

@<TRIPOS>CRYSIN
   7.0580    7.6550   18.4350  90.1500  95.3900 107.6200   2 1

