# MOL2 file generated by ConQuest
# Please check atom types

@<TRIPOS>MOLECULE
POMWOE
    28    28     1
SMALL
NO_CHARGES
****
Generated from CSD

@<TRIPOS>ATOM
      1 C1         3.1580   -0.3841    6.3707 C.ar      1 RES1    0.0000
      2 C2         2.2667    0.6496    6.3456 C.ar      1 RES1    0.0000
      3 C3         1.5752    0.9896    7.5049 C.ar      1 RES1    0.0000
      4 C4         1.8631    0.2786    8.6696 C.ar      1 RES1    0.0000
      5 C5         2.7817   -0.7477    8.6737 C.ar      1 RES1    0.0000
      6 C6         3.4428   -1.1008    7.5199 C.ar      1 RES1    0.0000
      7 C7         0.5113    2.0049    7.5664 C.2       1 RES1    0.0000
      8 C8        -0.1209    2.6539    6.5780 C.2       1 RES1    0.0000
      9 C9         0.2045    2.5312    5.1085 C.2       1 RES1    0.0000
     10 C10       -0.4992    1.4823    4.3266 C.3       1 RES1    0.0000
     11 C11       -1.2645    3.5722    6.8432 C.2       1 RES1    0.0000
     12 C12       -1.6730    3.9127    8.2294 C.3       1 RES1    0.0000
     13 H1         2.1235    1.1239    5.5582 H         1 RES1    0.0000
     14 H2         1.4265    0.5021    9.4583 H         1 RES1    0.0000
     15 H3         2.9565   -1.2063    9.4638 H         1 RES1    0.0000
     16 H4         4.0595   -1.7976    7.5131 H         1 RES1    0.0000
     17 H5         0.2346    2.2321    8.4249 H         1 RES1    0.0000
     18 H6        -0.2271    1.5321    3.4066 H         1 RES1    0.0000
     19 H7        -1.4478    1.6197    4.3895 H         1 RES1    0.0000
     20 H8        -0.2764    0.6176    4.6793 H         1 RES1    0.0000
     21 H9        -2.3395    4.6037    8.2075 H         1 RES1    0.0000
     22 H10       -0.9086    4.2212    8.7215 H         1 RES1    0.0000
     23 H11       -2.0348    3.1330    8.6573 H         1 RES1    0.0000
     24 O1         3.6937   -0.0299    4.1459 O.2       1 RES1    0.0000
     25 O2         4.4822   -1.7871    5.0869 O.2       1 RES1    0.0000
     26 O3         1.0068    3.2799    4.6074 O.2       1 RES1    0.0000
     27 O4        -1.8740    4.0087    5.8884 O.2       1 RES1    0.0000
     28 N1         3.8253   -0.7603    5.1132 N.pl3     1 RES1    0.0000
@<TRIPOS>BOND
     1    1    2 ar
     2    2    3 ar
     3    3    4 ar
     4    4    5 ar
     5    5    6 ar
     6    6    1 ar
     7    7    3 1
     8    8    7 2
     9    9    8 1
    10   10    9 1
    11   11    8 1
    12   12   11 1
    13   13    2 1
    14   14    4 1
    15   15    5 1
    16   16    6 1
    17   17    7 1
    18   18   10 1
    19   19   10 1
    20   20   10 1
    21   21   12 1
    22   22   12 1
    23   23   12 1
    24   24   28 2
    25   25   28 2
    26   26    9 2
    27   27   11 2
    28   28    1 1
@<TRIPOS>SUBSTRUCTURE
     1 RES1 1

@<TRIPOS>CRYSIN
  16.0634    5.2470   14.9774  90.0000 114.1170  90.0000  14 1

