# MOL2 file generated by ConQuest
# Please check atom types

@<TRIPOS>MOLECULE
PONQOZ
    31    31     1
SMALL
NO_CHARGES
****
Generated from CSD

@<TRIPOS>ATOM
      1 O1         2.2891   17.8789    6.7058 O.2       1 RES1    0.0000
      2 O2         3.3555   18.8044    5.0572 O.2       1 RES1    0.0000
      3 O3         3.4828   11.8599    6.4313 O.2       1 RES1    0.0000
      4 O4         2.5810   13.3550    7.8071 O.3       1 RES1    0.0000
      5 N1         4.8244   17.3320    3.4238 N.pl3     1 RES1    0.0000
      6 H1         4.5448   18.1281    3.5944 H         1 RES1    0.0000
      7 N2         3.0871   17.7284    5.7514 N.pl3     1 RES1    0.0000
      8 C1         5.0333   16.7123    0.9915 C.3       1 RES1    0.0000
      9 H2         5.6663   16.5991    0.2770 H         1 RES1    0.0000
     10 H3         4.4014   17.3935    0.7525 H         1 RES1    0.0000
     11 H4         4.5726   15.8855    1.1444 H         1 RES1    0.0000
     12 C2         5.7620   17.1201    2.2414 C.3       1 RES1    0.0000
     13 H5         6.2478   17.9420    2.0717 H         1 RES1    0.0000
     14 H6         6.4076   16.4340    2.4703 H         1 RES1    0.0000
     15 C3         4.4181   16.3175    4.2126 C.ar      1 RES1    0.0000
     16 C4         3.5901   16.4939    5.3334 C.ar      1 RES1    0.0000
     17 C5         3.1983   15.4406    6.1078 C.ar      1 RES1    0.0000
     18 H7         2.6350   15.6072    6.8291 H         1 RES1    0.0000
     19 C6         3.6092   14.1009    5.8663 C.ar      1 RES1    0.0000
     20 C7         4.4514   13.9666    4.7143 C.ar      1 RES1    0.0000
     21 H8         4.7655   13.1139    4.5167 H         1 RES1    0.0000
     22 C8         4.8188   14.9374    3.9128 C.ar      1 RES1    0.0000
     23 H9         5.3308   14.7529    3.1586 H         1 RES1    0.0000
     24 C9         3.2306   13.0200    6.7074 C.2       1 RES1    0.0000
     25 C10        2.1172   12.2369    8.7107 C.3       1 RES1    0.0000
     26 H10        2.8632   11.6852    8.9945 H         1 RES1    0.0000
     27 H11        1.4614   11.6771    8.2657 H         1 RES1    0.0000
     28 C11        1.4933   12.9764    9.9032 C.3       1 RES1    0.0000
     29 H12        1.1382   12.3373   10.5257 H         1 RES1    0.0000
     30 H13        0.7866   13.5459    9.5916 H         1 RES1    0.0000
     31 H14        2.1651   13.5071   10.3373 H         1 RES1    0.0000
@<TRIPOS>BOND
     1    1    7 2
     2    2    7 2
     3    3   24 2
     4    4   24 1
     5    5    6 1
     6    7   16 1
     7    8    9 1
     8   10    8 1
     9   11    8 1
    10   12    5 1
    11   13   12 1
    12   14   12 1
    13   15    5 1
    14   16   15 ar
    15   17   16 ar
    16   18   17 1
    17   19   17 ar
    18   20   19 ar
    19   21   20 1
    20   22   15 ar
    21   23   22 1
    22   24   19 1
    23   25    4 1
    24   26   25 1
    25   27   25 1
    26   28   25 1
    27   29   28 1
    28   30   28 1
    29   31   28 1
    30    8   12 1
    31   20   22 ar
@<TRIPOS>SUBSTRUCTURE
     1 RES1 1

@<TRIPOS>CRYSIN
   4.2360   16.1800    8.4890  90.0000  95.8000  90.0000   4 1

