# MOL2 file generated by ConQuest
# Please check atom types

@<TRIPOS>MOLECULE
PONWAS
    58    58     2
SMALL
NO_CHARGES
****
Generated from CSD

@<TRIPOS>ATOM
      1 O1         4.5750    4.8491    2.6280 O.2       1 RES1    0.0000
      2 O2         5.9595    9.2225    2.0914 O.2       1 RES1    0.0000
      3 O3         4.2538    9.5672    0.8214 O.2       1 RES1    0.0000
      4 N1         1.1542    6.1517   -0.4063 N.pl3     1 RES1    0.0000
      5 H1         0.5461    5.8368   -0.8966 H         1 RES1    0.0000
      6 H2         1.3576    7.0066   -0.4432 H         1 RES1    0.0000
      7 N2         4.9492    8.8200    1.5138 N.pl3     1 RES1    0.0000
      8 C1         1.7924    5.3118    0.3943 C.2       1 RES1    0.0000
      9 C2         1.1856    3.9383    0.4720 C.3       1 RES1    0.0000
     10 H3         0.7707    3.7342   -0.3803 H         1 RES1    0.0000
     11 H4         0.4862    3.9461    1.1440 H         1 RES1    0.0000
     12 C3         2.1766    2.8315    0.8109 C.3       1 RES1    0.0000
     13 C4         2.9008    3.2661    2.0774 C.3       1 RES1    0.0000
     14 H5         2.2685    3.2724    2.8125 H         1 RES1    0.0000
     15 H6         3.5867    2.6114    2.2849 H         1 RES1    0.0000
     16 C5         3.5430    4.6288    1.9777 C.2       1 RES1    0.0000
     17 C6         2.9326    5.6511    1.1513 C.2       1 RES1    0.0000
     18 C7         3.4792    6.9786    1.0845 C.2       1 RES1    0.0000
     19 H7         3.0090    7.5843    0.5596 H         1 RES1    0.0000
     20 C8         4.5791    7.4527    1.6819 C.2       1 RES1    0.0000
     21 H8         5.1018    6.8907    2.2065 H         1 RES1    0.0000
     22 C9         3.1697    2.6288   -0.3308 C.3       1 RES1    0.0000
     23 H9         3.6198    3.4571   -0.5153 H         1 RES1    0.0000
     24 H10        2.6995    2.3398   -1.1161 H         1 RES1    0.0000
     25 H11        3.8147    1.9631   -0.0804 H         1 RES1    0.0000
     26 C10        1.4259    1.5261    1.0677 C.3       1 RES1    0.0000
     27 H12        2.0407    0.8602    1.3851 H         1 RES1    0.0000
     28 H13        1.0202    1.2242    0.2515 H         1 RES1    0.0000
     29 H14        0.7441    1.6733    1.7283 H         1 RES1    0.0000
     30 O4         9.9608    4.3961    2.9105 O.2       2 RES2    0.0000
     31 O5        11.4309    8.7684    2.2951 O.2       2 RES2    0.0000
     32 O6         9.8582    9.0525    0.8605 O.2       2 RES2    0.0000
     33 N3         6.8199    5.6390   -0.4376 N.pl3     2 RES2    0.0000
     34 H15        7.0154    6.5394   -0.4741 H         2 RES2    0.0000
     35 H16        6.2758    5.3061   -0.9997 H         2 RES2    0.0000
     36 N4        10.4688    8.3457    1.6601 N.pl3     2 RES2    0.0000
     37 C11        7.4262    4.8007    0.3816 C.2       2 RES2    0.0000
     38 C12        6.8917    3.3992    0.3520 C.3       2 RES2    0.0000
     39 H17        6.5677    3.2108   -0.5421 H         2 RES2    0.0000
     40 H18        6.1346    3.3449    0.9554 H         2 RES2    0.0000
     41 C13        7.9021    2.3237    0.7397 C.3       2 RES2    0.0000
     42 C14        8.4744    2.7456    2.0907 C.3       2 RES2    0.0000
     43 H19        7.7748    2.6748    2.7589 H         2 RES2    0.0000
     44 H20        9.1787    2.1261    2.3364 H         2 RES2    0.0000
     45 C15        9.0301    4.1404    2.1238 C.2       2 RES2    0.0000
     46 C16        8.4795    5.1609    1.2485 C.2       2 RES2    0.0000
     47 C17        9.0280    6.4865    1.2014 C.2       2 RES2    0.0000
     48 H21        8.6084    7.0736    0.6142 H         2 RES2    0.0000
     49 C18       10.0602    6.9941    1.8854 C.2       2 RES2    0.0000
     50 H22       10.5109    6.4688    2.5064 H         2 RES2    0.0000
     51 C19        9.0002    2.2230   -0.3112 C.3       2 RES2    0.0000
     52 H23        9.4263    3.0768   -0.4122 H         2 RES2    0.0000
     53 H24        8.6167    1.9558   -1.1502 H         2 RES2    0.0000
     54 H25        9.6494    1.5719   -0.0340 H         2 RES2    0.0000
     55 C20        7.1883    0.9835    0.8667 C.3       2 RES2    0.0000
     56 H26        7.7912    0.3332    1.2357 H         2 RES2    0.0000
     57 H27        6.8967    0.6936    0.0000 H         2 RES2    0.0000
     58 H28        6.4277    1.0793    1.4449 H         2 RES2    0.0000
@<TRIPOS>BOND
     1    1   16 2
     2    2    7 2
     3    3    7 2
     4    4    5 1
     5    6    4 1
     6    7   20 1
     7    8    4 1
     8    9    8 1
     9   10    9 1
    10   11    9 1
    11   12    9 1
    12   13   12 1
    13   14   13 1
    14   15   13 1
    15   16   13 1
    16   17    8 2
    17   18   17 1
    18   19   18 1
    19   20   18 2
    20   21   20 1
    21   22   12 1
    22   23   22 1
    23   24   22 1
    24   25   22 1
    25   26   12 1
    26   27   26 1
    27   28   26 1
    28   29   26 1
    29   30   45 2
    30   31   36 2
    31   32   36 2
    32   33   34 1
    33   35   33 1
    34   36   49 1
    35   37   33 1
    36   38   37 1
    37   39   38 1
    38   40   38 1
    39   41   38 1
    40   42   41 1
    41   43   42 1
    42   44   42 1
    43   45   42 1
    44   46   37 2
    45   47   46 1
    46   48   47 1
    47   49   47 2
    48   50   49 1
    49   51   41 1
    50   52   51 1
    51   53   51 1
    52   54   51 1
    53   55   41 1
    54   56   55 1
    55   57   55 1
    56   58   55 1
    57   16   17 1
    58   45   46 1
@<TRIPOS>SUBSTRUCTURE
     1 RES1 1
     2 RES2 30

@<TRIPOS>CRYSIN
  11.3545   18.1097   10.4689  90.0000 100.1190  90.0000  14 1

