# MOL2 file generated by ConQuest
# Please check atom types

@<TRIPOS>MOLECULE
POPDUU
    56    60     1
SMALL
NO_CHARGES
****
Generated from CSD

@<TRIPOS>ATOM
      1 N1         8.3142    6.2993    5.1494 N.3       1 RES1    0.0000
      2 C1         9.6678    6.3699    4.6099 C.3       1 RES1    0.0000
      3 H1         9.8643    7.2866    4.3621 H         1 RES1    0.0000
      4 H2         9.7190    5.8260    3.8075 H         1 RES1    0.0000
      5 C2        10.6983    5.8920    5.5956 C.3       1 RES1    0.0000
      6 H3        10.5558    4.9504    5.7740 H         1 RES1    0.0000
      7 H4        11.5807    5.9919    5.2057 H         1 RES1    0.0000
      8 N2        10.6443    6.6260    6.8435 N.3       1 RES1    0.0000
      9 C3         9.2754    6.7034    7.3569 C.3       1 RES1    0.0000
     10 H5         9.2555    7.3169    8.1078 H         1 RES1    0.0000
     11 H6         9.0133    5.8278    7.6843 H         1 RES1    0.0000
     12 C4         8.2790    7.1564    6.3341 C.3       1 RES1    0.0000
     13 H7         7.3889    7.1368    6.7192 H         1 RES1    0.0000
     14 H8         8.4753    8.0694    6.0767 H         1 RES1    0.0000
     15 C5         7.3134    6.7016    4.1576 C.3       1 RES1    0.0000
     16 H9         7.6384    7.4809    3.6819 H         1 RES1    0.0000
     17 H10        6.4980    6.9549    4.6188 H         1 RES1    0.0000
     18 C6         6.9851    5.6031    3.1403 C.3       1 RES1    0.0000
     19 H11        6.8206    4.7721    3.6325 H         1 RES1    0.0000
     20 O1         8.0486    5.3888    2.2802 O.3       1 RES1    0.0000
     21 H12        8.3288    4.4226    2.0935 H         1 RES1    0.0000
     22 C7         5.7452    5.9455    2.3791 C.3       1 RES1    0.0000
     23 H13        5.5460    5.2429    1.7421 H         1 RES1    0.0000
     24 H14        4.9965    6.0258    2.9900 H         1 RES1    0.0000
     25 O2         5.9487    7.2120    1.6735 O.3       1 RES1    0.0000
     26 N3         4.8610    7.5113    0.9006 N.am      1 RES1    0.0000
     27 C8         3.7623    8.1996    1.3865 C.2       1 RES1    0.0000
     28 O3         3.6641    8.5550    2.5356 O.2       1 RES1    0.0000
     29 C9         4.7270    7.0565   -0.3926 C.2       1 RES1    0.0000
     30 O4         5.5051    6.3307   -0.9466 O.2       1 RES1    0.0000
     31 C10        3.4272    7.5826   -0.8855 C.3       1 RES1    0.0000
     32 H15        3.5594    8.1782   -1.6529 H         1 RES1    0.0000
     33 C11        2.7921    8.3316    0.2807 C.3       1 RES1    0.0000
     34 H16        2.6390    9.2732    0.0556 H         1 RES1    0.0000
     35 C12        1.4416    7.5701    0.4798 C.3       1 RES1    0.0000
     36 H17        0.7583    8.0409    1.0022 H         1 RES1    0.0000
     37 C13        1.0915    7.2830   -0.9438 C.3       1 RES1    0.0000
     38 H18        1.0294    8.0837   -1.4881 H         1 RES1    0.0000
     39 H19        0.2869    6.7498   -1.0351 H         1 RES1    0.0000
     40 C14        2.3493    6.4948   -1.1998 C.3       1 RES1    0.0000
     41 H20        2.4155    6.0650   -2.0777 H         1 RES1    0.0000
     42 C15        2.3572    5.5835   -0.0268 C.2       1 RES1    0.0000
     43 H21        2.6930    4.7168   -0.0137 H         1 RES1    0.0000
     44 C16        1.8212    6.2041    0.9726 C.2       1 RES1    0.0000
     45 H22        1.6949    5.8688    1.8306 H         1 RES1    0.0000
     46 C17       11.6781    6.4056    7.7557 C.ar      1 RES1    0.0000
     47 C18       11.6728    6.9674    9.0461 C.ar      1 RES1    0.0000
     48 H23       10.9111    7.4078    9.3440 H         1 RES1    0.0000
     49 C19       12.7514    6.8800    9.8712 C.ar      1 RES1    0.0000
     50 H24       12.7128    7.2794   10.7107 H         1 RES1    0.0000
     51 C20       13.8799    6.2309    9.5046 C.ar      1 RES1    0.0000
     52 H25       14.6180    6.1952   10.0675 H         1 RES1    0.0000
     53 C21       13.8936    5.6192    8.2568 C.ar      1 RES1    0.0000
     54 H26       14.6512    5.1448    7.9959 H         1 RES1    0.0000
     55 C22       12.8267    5.6923    7.3988 C.ar      1 RES1    0.0000
     56 H27       12.8664    5.2661    6.5737 H         1 RES1    0.0000
@<TRIPOS>BOND
     1    1    2 1
     2    2    3 1
     3    4    2 1
     4    5    2 1
     5    6    5 1
     6    7    5 1
     7    8    5 1
     8    9    8 1
     9   10    9 1
    10   11    9 1
    11   12    1 1
    12   13   12 1
    13   14   12 1
    14   15    1 1
    15   16   15 1
    16   17   15 1
    17   18   15 1
    18   19   18 1
    19   20   18 1
    20   21   20 1
    21   22   18 1
    22   23   22 1
    23   24   22 1
    24   25   22 1
    25   26   25 1
    26   27   26 1
    27   28   27 2
    28   29   26 1
    29   30   29 2
    30   31   29 1
    31   32   31 1
    32   33   27 1
    33   34   33 1
    34   35   33 1
    35   36   35 1
    36   37   35 1
    37   38   37 1
    38   39   37 1
    39   40   31 1
    40   41   40 1
    41   42   40 1
    42   43   42 1
    43   44   35 1
    44   45   44 1
    45   46    8 1
    46   47   46 ar
    47   48   47 1
    48   49   47 ar
    49   50   49 1
    50   51   49 ar
    51   52   51 1
    52   53   51 ar
    53   54   53 1
    54   55   46 ar
    55   56   55 1
    56    9   12 1
    57   31   33 1
    58   37   40 1
    59   42   44 2
    60   53   55 ar
@<TRIPOS>SUBSTRUCTURE
     1 RES1 1

@<TRIPOS>CRYSIN
  16.6410   17.8330    6.9460  90.0000  98.8100  90.0000  14 1

