# MOL2 file generated by ConQuest
# Please check atom types

@<TRIPOS>MOLECULE
POPQER
    60    64     1
SMALL
USER_CHARGES
****
Generated from CSD

@<TRIPOS>ATOM
      1 C1         7.6576   -1.5758    5.5680 C.ar      1 RES1    0.0000
      2 C2         7.7538   -2.0019    4.1958 C.ar      1 RES1    0.0000
      3 H1         7.0955   -2.5612    3.8510 H         1 RES1    0.0000
      4 C3         8.7852   -1.6084    3.3784 C.ar      1 RES1    0.0000
      5 H2         8.8108   -1.8849    2.4904 H         1 RES1    0.0000
      6 C4         9.7987   -0.7880    3.8902 C.ar      1 RES1    0.0000
      7 C5         9.7221   -0.2933    5.1948 C.ar      1 RES1    0.0000
      8 H3        10.3827    0.2766    5.5166 H         1 RES1    0.0000
      9 C6         8.6659   -0.6513    6.0049 C.ar      1 RES1    0.0000
     10 C7         8.6248   -0.1510    7.4240 C.3       1 RES1    0.0000
     11 H4         9.3222    0.5410    7.5226 H         1 RES1    0.0000
     12 C8         7.2827    0.4034    7.8718 C.2       1 RES1    0.0000
     13 C9         6.4561    1.6528    5.7998 C.3       1 RES1    0.0000
     14 H5         7.3558    1.4888    5.4479 H         1 RES1    0.0000
     15 C10        5.4501    0.8875    4.9487 C.3       1 RES1    0.0000
     16 H6         4.5591    1.1231    5.2183 H         1 RES1    0.0000
     17 H7         5.5823   -0.0559    5.0665 H         1 RES1    0.0000
     18 H8         5.5750    1.1153    4.0239 H         1 RES1    0.0000
     19 C11        6.1849    3.1477    5.7744 C.3       1 RES1    0.0000
     20 H9         6.7668    3.5884    6.3982 H         1 RES1    0.0000
     21 H10        5.2717    3.3117    6.0181 H         1 RES1    0.0000
     22 H11        6.3468    3.4871    4.8910 H         1 RES1    0.0000
     23 C12        5.3191    1.4137    8.0435 C.2       1 RES1    0.0000
     24 H12        4.5681    1.8849    7.7601 H         1 RES1    0.0000
     25 C13        5.5698    0.8334    9.2288 C.2       1 RES1    0.0000
     26 C14        4.7067    0.7871   10.4292 C.ar      1 RES1    0.0000
     27 C15        4.3488    1.9809   11.0552 C.ar      1 RES1    0.0000
     28 H13        4.6423    2.7951   10.7151 H         1 RES1    0.0000
     29 C16        3.5502    1.9425   12.1907 C.ar      1 RES1    0.0000
     30 H14        3.2960    2.7367   12.6023 H         1 RES1    0.0000
     31 C17        3.1312    0.7365   12.7132 C.ar      1 RES1    0.0000
     32 H15        2.6220    0.7199   13.4905 H         1 RES1    0.0000
     33 C18        3.4669   -0.4503   12.0831 C.ar      1 RES1    0.0000
     34 H16        3.1654   -1.2610   12.4255 H         1 RES1    0.0000
     35 C19        4.2581   -0.4276   10.9351 C.ar      1 RES1    0.0000
     36 H17        4.4848   -1.2226   10.5092 H         1 RES1    0.0000
     37 C20        8.9634   -0.7941    9.7139 C.3       1 RES1    0.0000
     38 H18        9.3862    0.1047    9.7556 H         1 RES1    0.0000
     39 C21        7.5247   -0.5760   10.1775 C.3       1 RES1    0.0000
     40 H19        7.0567   -1.3963   10.2320 H         1 RES1    0.0000
     41 C22        7.5293    0.0785   11.5577 C.3       1 RES1    0.0000
     42 H20        6.6186    0.2391   11.8527 H         1 RES1    0.0000
     43 H21        7.9927    0.9303   11.5201 H         1 RES1    0.0000
     44 C23        8.2402   -0.8622   12.5387 C.3       1 RES1    0.0000
     45 H22        8.2765   -0.4433   13.4126 H         1 RES1    0.0000
     46 H23        7.7286   -1.6825   12.6221 H         1 RES1    0.0000
     47 C24        9.6504   -1.1964   12.0862 C.3       1 RES1    0.0000
     48 H24       10.0348   -1.8492   12.6921 H         1 RES1    0.0000
     49 H25       10.1969   -0.3962   12.1233 H         1 RES1    0.0000
     50 C25        9.6707   -1.7532   10.6714 C.3       1 RES1    0.0000
     51 H26        9.2276   -2.6154   10.6544 H         1 RES1    0.0000
     52 H27       10.5886   -1.8797   10.3851 H         1 RES1    0.0000
     53 N1        10.9069   -0.4101    3.0663 N.pl3     1 RES1    0.0000
     54 N2         9.0535   -1.2243    8.3290 N.3       1 RES1    0.0000
     55 H28        8.5041   -1.9111    8.1640 H         1 RES1    0.0000
     56 N3         6.8138    0.2135    9.1228 N.3       1 RES1    0.0000
     57 N4         6.3931    1.1544    7.2107 N.pl3     1 RES1    1.0000
     58 O1         6.7499   -1.9815    6.3561 O.2       1 RES1   -1.0000
     59 O2        10.9576   -0.8339    1.9012 O.2       1 RES1    0.0000
     60 O3        11.7781    0.3368    3.5334 O.2       1 RES1    0.0000
@<TRIPOS>BOND
     1    1    2 ar
     2    2    3 1
     3    4    2 ar
     4    5    4 1
     5    6    4 ar
     6    7    6 ar
     7    8    7 1
     8    9    1 ar
     9   10    9 1
    10   11   10 1
    11   12   10 1
    12   13   14 1
    13   15   13 1
    14   16   15 1
    15   17   15 1
    16   18   15 1
    17   19   13 1
    18   20   19 1
    19   21   19 1
    20   22   19 1
    21   23   24 1
    22   25   23 2
    23   26   25 1
    24   27   26 ar
    25   28   27 1
    26   29   27 ar
    27   30   29 1
    28   31   29 ar
    29   32   31 1
    30   33   31 ar
    31   34   33 1
    32   35   26 ar
    33   36   35 1
    34   37   38 1
    35   39   37 1
    36   40   39 1
    37   41   39 1
    38   42   41 1
    39   43   41 1
    40   44   41 1
    41   45   44 1
    42   46   44 1
    43   47   44 1
    44   48   47 1
    45   49   47 1
    46   50   37 1
    47   51   50 1
    48   52   50 1
    49   53    6 1
    50   54   10 1
    51   55   54 1
    52   56   12 1
    53   57   12 2
    54   58    1 1
    55   59   53 2
    56   60   53 2
    57    7    9 ar
    58   13   57 1
    59   23   57 1
    60   25   56 1
    61   33   35 ar
    62   37   54 1
    63   39   56 1
    64   47   50 1
@<TRIPOS>SUBSTRUCTURE
     1 RES1 1

@<TRIPOS>CRYSIN
   9.5336    8.7266   13.2023  90.0000  91.5371  90.0000   4 1

