# MOL2 file generated by ConQuest
# Please check atom types

@<TRIPOS>MOLECULE
POQFOS
    22    22     1
SMALL
NO_CHARGES
****
Generated from CSD

@<TRIPOS>ATOM
      1 O1         4.8159    2.1301   17.5964 O.2       1 RES1    0.0000
      2 O2         3.3473    3.0568   16.3280 O.2       1 RES1    0.0000
      3 N1         0.6139   -0.6734   14.3904 N.am      1 RES1    0.0000
      4 O3         0.2454    1.4637   13.7425 O.2       1 RES1    0.0000
      5 O4         4.4637   -0.3154   18.4193 O.3       1 RES1    0.0000
      6 C1         2.2148    0.7121   15.6511 C.ar      1 RES1    0.0000
      7 H1         1.9889    1.4700   15.1627 H         1 RES1    0.0000
      8 C2         1.5915   -0.4842   15.3972 C.ar      1 RES1    0.0000
      9 N2         3.8175    2.0695   16.8644 N.pl3     1 RES1    0.0000
     10 C3         3.1914    0.7842   16.6505 C.ar      1 RES1    0.0000
     11 C4         1.9454   -1.5954   16.1680 C.ar      1 RES1    0.0000
     12 H2         1.5255   -2.4098   16.0104 H         1 RES1    0.0000
     13 C5         0.0088    0.2670   13.6299 C.2       1 RES1    0.0000
     14 C6         2.8952   -1.5108   17.1483 C.ar      1 RES1    0.0000
     15 H3         3.1053   -2.2687   17.6451 H         1 RES1    0.0000
     16 C7         3.5511   -0.3191   17.4186 C.ar      1 RES1    0.0000
     17 C8        -0.9869   -0.2557   12.6392 C.3       1 RES1    0.0000
     18 H4        -1.8213    0.2058   12.7502 H         1 RES1    0.0000
     19 H5        -1.1189   -1.1956   12.7833 H         1 RES1    0.0000
     20 H6        -0.6579   -0.1117   11.7481 H         1 RES1    0.0000
     21 H7         0.3324   -1.5484   14.2231 H         1 RES1    0.0000
     22 H8         4.8440    0.4998   18.4873 H         1 RES1    0.0000
@<TRIPOS>BOND
     1    1    9 2
     2    2    9 2
     3    3    8 1
     4    4   13 2
     5    5   16 1
     6    6    7 1
     7    8    6 ar
     8    9   10 1
     9   10    6 ar
    10   11    8 ar
    11   12   11 1
    12   13    3 1
    13   14   11 ar
    14   15   14 1
    15   16   10 ar
    16   17   13 1
    17   18   17 1
    18   19   17 1
    19   20   17 1
    20   21    3 1
    21   22    5 1
    22   14   16 ar
@<TRIPOS>SUBSTRUCTURE
     1 RES1 1

@<TRIPOS>CRYSIN
   4.8880    9.8000   18.3880  90.0000  90.0000  90.0000  19 1

