# MOL2 file generated by ConQuest
# Please check atom types

@<TRIPOS>MOLECULE
POQFIM
    60    62     2
SMALL
NO_CHARGES
****
Generated from CSD

@<TRIPOS>ATOM
      1 C1         4.0912   15.5308    6.4534 C.ar      1 RES1    0.0000
      2 C2         3.6461   14.2146    6.4372 C.ar      1 RES1    0.0000
      3 C3         2.2690   11.9829    8.8269 C.ar      1 RES1    0.0000
      4 C4         1.7461   10.0315   10.1214 C.ar      1 RES1    0.0000
      5 H1         1.7750    9.1093   10.2351 H         1 RES1    0.0000
      6 C5         1.1364   10.8287   11.0676 C.ar      1 RES1    0.0000
      7 C6         2.3069   10.6054    9.0144 C.ar      1 RES1    0.0000
      8 H2         2.7198   10.0673    8.3782 H         1 RES1    0.0000
      9 C7         1.0644   12.2099   10.8934 C.ar      1 RES1    0.0000
     10 H3         0.6412   12.7455   11.5252 H         1 RES1    0.0000
     11 C8         1.6301   12.7718    9.7687 C.ar      1 RES1    0.0000
     12 H4         1.5822   13.6910    9.6402 H         1 RES1    0.0000
     13 C9         0.0488   10.9495   13.2035 C.3       1 RES1    0.0000
     14 H5         0.7021   11.5501   13.5681 H         1 RES1    0.0000
     15 H6        -0.2685   10.3630   13.8943 H         1 RES1    0.0000
     16 H7        -0.6870   11.4543   12.8478 H         1 RES1    0.0000
     17 C10        3.7800   13.4944    5.2474 C.ar      1 RES1    0.0000
     18 H8         3.4646   12.6206    5.1943 H         1 RES1    0.0000
     19 C11        4.3805   14.0800    4.1522 C.ar      1 RES1    0.0000
     20 H9         4.4828   13.5910    3.3684 H         1 RES1    0.0000
     21 C12        4.6807   16.1177    5.3522 C.ar      1 RES1    0.0000
     22 H10        4.9720   16.9982    5.3862 H         1 RES1    0.0000
     23 C13        4.8307   15.3796    4.2039 C.ar      1 RES1    0.0000
     24 H11        5.2377   15.7611    3.4599 H         1 RES1    0.0000
     25 O1         0.6418   10.1793   12.1623 O.3       1 RES1    0.0000
     26 O2         4.4361   15.9606    8.6976 O.2       1 RES1    0.0000
     27 O3         3.3396   17.3805    7.5664 O.2       1 RES1    0.0000
     28 N1         2.9906   13.7293    7.6120 N.2       1 RES1    0.0000
     29 N2         2.9181   12.4819    7.6648 N.2       1 RES1    0.0000
     30 N3         3.9391   16.3326    7.6623 N.pl3     1 RES1    0.0000
     31 C14        3.0100    3.8770    6.8637 C.ar      2 RES2    0.0000
     32 C15        1.2985    0.4573   11.8263 C.ar      2 RES2    0.0000
     33 C16        1.2593    0.4432    9.4410 C.ar      2 RES2    0.0000
     34 H12        1.0241    0.0250    8.6439 H         2 RES2    0.0000
     35 C17        0.9544   -0.1649   10.6440 C.ar      2 RES2    0.0000
     36 H13        0.5200   -0.9872   10.6573 H         2 RES2    0.0000
     37 C18        1.9645    1.6690   11.8012 C.ar      2 RES2    0.0000
     38 H14        2.2114    2.0784   12.5983 H         2 RES2    0.0000
     39 C19        2.2625    2.2713   10.6085 C.ar      2 RES2    0.0000
     40 H15        2.7032    3.0906   10.5997 H         2 RES2    0.0000
     41 C20        2.9504    5.2581    6.6512 C.ar      2 RES2    0.0000
     42 C21        3.8585    3.6458    4.6319 C.ar      2 RES2    0.0000
     43 H16        4.1634    3.0989    3.9455 H         2 RES2    0.0000
     44 C22        3.5025    3.0960    5.8379 C.ar      2 RES2    0.0000
     45 H17        3.5955    2.1784    5.9663 H         2 RES2    0.0000
     46 C23        3.7652    5.0124    4.4341 C.ar      2 RES2    0.0000
     47 H18        4.0054    5.3814    3.6149 H         2 RES2    0.0000
     48 C24        0.3101   -1.2446   13.1991 C.3       2 RES2    0.0000
     49 H19       -0.5416   -1.1663   12.7636 H         2 RES2    0.0000
     50 H20        0.1770   -1.4453   14.1275 H         2 RES2    0.0000
     51 H21        0.8141   -1.9493   12.7872 H         2 RES2    0.0000
     52 C25        3.3211    5.8150    5.4423 C.ar      2 RES2    0.0000
     53 H22        3.2677    6.7351    5.3168 H         2 RES2    0.0000
     54 O4         1.0281   -0.0112   13.0746 O.3       2 RES2    0.0000
     55 O5         1.6231    5.7484    8.4800 O.2       2 RES2    0.0000
     56 O6         2.8604    7.3166    7.6874 O.2       2 RES2    0.0000
     57 N4         2.1575    2.2230    8.1159 N.2       2 RES2    0.0000
     58 N5         2.7214    3.3476    8.1566 N.2       2 RES2    0.0000
     59 N6         2.4400    6.1632    7.6844 N.pl3     2 RES2    0.0000
     60 C26        1.9080    1.6602    9.4041 C.ar      2 RES2    0.0000
@<TRIPOS>BOND
     1    1    2 ar
     2    2   17 ar
     3    3    7 ar
     4    4    5 1
     5    6    4 ar
     6    7    4 ar
     7    8    7 1
     8    9    6 ar
     9   10    9 1
    10   11    3 ar
    11   12   11 1
    12   13   14 1
    13   15   13 1
    14   16   13 1
    15   17   18 1
    16   19   17 ar
    17   20   19 1
    18   21    1 ar
    19   22   21 1
    20   23   19 ar
    21   24   23 1
    22   25    6 1
    23   26   30 2
    24   27   30 2
    25   28    2 1
    26   29    3 1
    27   30    1 1
    28   31   41 ar
    29   32   35 ar
    30   33   34 1
    31   35   33 ar
    32   36   35 1
    33   37   32 ar
    34   38   37 1
    35   39   37 ar
    36   40   39 1
    37   41   52 ar
    38   42   43 1
    39   44   31 ar
    40   45   44 1
    41   46   42 ar
    42   47   46 1
    43   48   49 1
    44   50   48 1
    45   51   48 1
    46   52   46 ar
    47   53   52 1
    48   54   32 1
    49   55   59 2
    50   56   59 2
    51   57   58 2
    52   58   31 1
    53   59   41 1
    54   60   33 ar
    55    9   11 ar
    56   13   25 1
    57   21   23 ar
    58   28   29 2
    59   39   60 ar
    60   42   44 ar
    61   48   54 1
    62   57   60 1
@<TRIPOS>SUBSTRUCTURE
     1 RES1 1
     2 RES2 31

@<TRIPOS>CRYSIN
   3.9952   41.6520   14.8255  90.0000  95.3570  90.0000  14 1

