# MOL2 file generated by ConQuest
# Please check atom types

@<TRIPOS>MOLECULE
POQQAN
    38    39     1
SMALL
USER_CHARGES
****
Generated from CSD

@<TRIPOS>ATOM
      1 O1         3.1679    1.1229    4.6836 O.2       1 RES1   -1.0000
      2 O2         4.4935    2.2012    2.8301 O.3       1 RES1    0.0000
      3 N1         1.9244    1.1299    4.2301 N.pl3     1 RES1    1.0000
      4 N2         0.1773    1.0543   10.5666 N.3       1 RES1    0.0000
      5 C1         1.8034    1.2077    2.7458 C.3       1 RES1    0.0000
      6 C2         2.2085    2.5548    2.2066 C.ar      1 RES1    0.0000
      7 C3         3.5336    2.9606    2.2401 C.ar      1 RES1    0.0000
      8 C4         3.8969    4.1669    1.6435 C.ar      1 RES1    0.0000
      9 C5         2.9453    4.9462    1.0350 C.ar      1 RES1    0.0000
     10 C6         1.6352    4.5686    1.0120 C.ar      1 RES1    0.0000
     11 C7         1.2663    3.3679    1.5993 C.ar      1 RES1    0.0000
     12 C8         0.8750    1.0911    4.9815 C.2       1 RES1    0.0000
     13 C9         0.7990    1.0543    6.4159 C.ar      1 RES1    0.0000
     14 C10        1.8807    1.0338    7.3057 C.ar      1 RES1    0.0000
     15 C11        1.6719    1.0203    8.6606 C.ar      1 RES1    0.0000
     16 C12        0.3812    1.0380    9.2117 C.ar      1 RES1    0.0000
     17 C13       -0.6992    1.0387    8.3178 C.ar      1 RES1    0.0000
     18 C14       -0.4849    1.0493    6.9645 C.ar      1 RES1    0.0000
     19 C15        1.2877    1.1179   11.4818 C.3       1 RES1    0.0000
     20 C16       -1.1584    1.1427   11.1128 C.3       1 RES1    0.0000
     21 H1         2.4191    0.4667    2.4112 H         1 RES1    0.0000
     22 H2         0.8172    0.9970    2.5260 H         1 RES1    0.0000
     23 H3         4.8520    4.3840    1.6403 H         1 RES1    0.0000
     24 H4         3.2108    5.7558    0.6397 H         1 RES1    0.0000
     25 H5         0.9634    5.1053    0.5905 H         1 RES1    0.0000
     26 H6         0.3009    3.0688    1.6042 H         1 RES1    0.0000
     27 H7         0.0217    1.0889    4.4648 H         1 RES1    0.0000
     28 H8         2.8201    1.0112    6.9531 H         1 RES1    0.0000
     29 H9         2.4561    0.9899    9.2297 H         1 RES1    0.0000
     30 H10       -1.6305    1.0253    8.6524 H         1 RES1    0.0000
     31 H11       -1.2655    1.0677    6.3724 H         1 RES1    0.0000
     32 H12        0.9415    1.0677   12.4004 H         1 RES1    0.0000
     33 H13        1.8652    1.9657   11.3342 H         1 RES1    0.0000
     34 H14        1.9927    0.4030   11.3178 H         1 RES1    0.0000
     35 H15       -1.1078    1.2445   12.0723 H         1 RES1    0.0000
     36 H16       -1.7243    0.3889   10.8093 H         1 RES1    0.0000
     37 H17       -1.6598    1.9657   10.7601 H         1 RES1    0.0000
     38 H18        3.9408    1.6758    3.6742 H         1 RES1    0.0000
@<TRIPOS>BOND
     1    1    3 1
     2    2    7 1
     3    3    5 1
     4    4   16 1
     5    5    6 1
     6    6    7 ar
     7    7    8 ar
     8    8    9 ar
     9    9   10 ar
    10   10   11 ar
    11   11    6 ar
    12   12    3 2
    13   13   12 1
    14   14   13 ar
    15   15   14 ar
    16   16   15 ar
    17   17   16 ar
    18   18   13 ar
    19   19    4 1
    20   20    4 1
    21   21    5 1
    22   22    5 1
    23   23    8 1
    24   24    9 1
    25   25   10 1
    26   26   11 1
    27   27   12 1
    28   28   14 1
    29   29   15 1
    30   30   17 1
    31   31   18 1
    32   32   19 1
    33   33   19 1
    34   34   19 1
    35   35   20 1
    36   36   20 1
    37   37   20 1
    38   38    2 1
    39   17   18 ar
@<TRIPOS>SUBSTRUCTURE
     1 RES1 1

@<TRIPOS>CRYSIN
  12.2319    7.0710   17.2005  90.0000 107.5200  90.0000  14 2

