# MOL2 file generated by ConQuest
# Please check atom types

@<TRIPOS>MOLECULE
POQQIX
    42    44     1
SMALL
NO_CHARGES
****
Generated from CSD

@<TRIPOS>ATOM
      1 O1         2.5761    4.4302   -5.1032 O.2       1 RES1    0.0000
      2 O2         5.4047    2.2670    2.0584 O.2       1 RES1    0.0000
      3 O3         5.5042    0.8252    0.4791 O.2       1 RES1    0.0000
      4 O4         2.5418    9.3582   -3.7167 O.3       1 RES1    0.0000
      5 O5         1.6367    8.2366   -3.3714 O.3       1 RES1    0.0000
      6 O6         2.6454    7.8238   -5.3173 O.3       1 RES1    0.0000
      7 N1         5.1714    1.9095    0.9181 N.pl3     1 RES1    0.0000
      8 C1         2.9179    6.1958   -3.5534 C.3       1 RES1    0.0000
      9 C2         3.3988    5.1426   -4.5786 C.2       1 RES1    0.0000
     10 C3         4.8053    4.9024   -4.8610 C.3       1 RES1    0.0000
     11 H1         4.9000    4.0683   -5.3267 H         1 RES1    0.0000
     12 H2         5.2959    4.8655   -4.0365 H         1 RES1    0.0000
     13 H3         5.1489    5.6147   -5.4057 H         1 RES1    0.0000
     14 C4         2.1576    5.4709   -2.4184 C.3       1 RES1    0.0000
     15 H4         1.7499    6.1373   -1.8456 H         1 RES1    0.0000
     16 H5         1.4420    4.9468   -2.8133 H         1 RES1    0.0000
     17 C5         3.0067    4.5586   -1.5672 C.ar      1 RES1    0.0000
     18 C6         3.4885    4.9707   -0.3199 C.ar      1 RES1    0.0000
     19 H6         3.3110    5.8342   -0.0228 H         1 RES1    0.0000
     20 C7         4.2241    4.1173    0.4751 C.ar      1 RES1    0.0000
     21 H7         4.5621    4.4107    1.2902 H         1 RES1    0.0000
     22 C8         4.4496    2.8492    0.0589 C.ar      1 RES1    0.0000
     23 C9         4.0027    2.3857   -1.1657 C.ar      1 RES1    0.0000
     24 H8         4.1877    1.5187   -1.4454 H         1 RES1    0.0000
     25 C10        3.2766    3.2454   -1.9554 C.ar      1 RES1    0.0000
     26 H9         2.9552    2.9419   -2.7731 H         1 RES1    0.0000
     27 C11        1.9607    7.1856   -4.2721 C.3       1 RES1    0.0000
     28 C12        3.4626    8.7814   -4.6562 C.3       1 RES1    0.0000
     29 C13        4.0617    7.0232   -2.9779 C.3       1 RES1    0.0000
     30 H10        3.7535    7.4681   -2.1735 H         1 RES1    0.0000
     31 H11        4.7850    6.4281   -2.7276 H         1 RES1    0.0000
     32 C14        4.5935    8.0676   -3.9455 C.3       1 RES1    0.0000
     33 H12        5.1280    8.7142   -3.4597 H         1 RES1    0.0000
     34 H13        5.1652    7.6379   -4.6013 H         1 RES1    0.0000
     35 C15        3.8779    9.8421   -5.6466 C.3       1 RES1    0.0000
     36 H14        4.3555    9.4321   -6.3720 H         1 RES1    0.0000
     37 H15        4.4446   10.4824   -5.2116 H         1 RES1    0.0000
     38 H16        3.0977   10.2847   -5.9879 H         1 RES1    0.0000
     39 C16        0.6371    6.6683   -4.7699 C.3       1 RES1    0.0000
     40 H17        0.2157    7.3386   -5.3133 H         1 RES1    0.0000
     41 H18        0.0732    6.4615   -4.0218 H         1 RES1    0.0000
     42 H19        0.7794    5.8760   -5.2932 H         1 RES1    0.0000
@<TRIPOS>BOND
     1    1    9 2
     2    2    7 2
     3    3    7 2
     4    4    5 1
     5    5   27 1
     6    6   27 1
     7    7   22 1
     8    8    9 1
     9    9   10 1
    10   10   11 1
    11   12   10 1
    12   13   10 1
    13   14    8 1
    14   15   14 1
    15   16   14 1
    16   17   14 1
    17   18   17 ar
    18   19   18 1
    19   20   18 ar
    20   21   20 1
    21   22   20 ar
    22   23   22 ar
    23   24   23 1
    24   25   17 ar
    25   26   25 1
    26   27    8 1
    27   28    4 1
    28   29    8 1
    29   30   29 1
    30   31   29 1
    31   32   28 1
    32   33   32 1
    33   34   32 1
    34   35   28 1
    35   36   35 1
    36   37   35 1
    37   38   35 1
    38   39   27 1
    39   40   39 1
    40   41   39 1
    41   42   39 1
    42    6   28 1
    43   23   25 ar
    44   29   32 1
@<TRIPOS>SUBSTRUCTURE
     1 RES1 1

@<TRIPOS>CRYSIN
   8.1650    8.3550   13.6780  79.3800  89.4700  60.7100   2 1

