# MOL2 file generated by ConQuest
# Please check atom types

@<TRIPOS>MOLECULE
POQQUJ
    43    45     1
SMALL
NO_CHARGES
****
Generated from CSD

@<TRIPOS>ATOM
      1 O1         8.5503    4.4609    2.8572 O.3       1 RES1    0.0000
      2 O2         8.4757    5.2987    1.6044 O.3       1 RES1    0.0000
      3 O3         6.2566    4.2129    2.7501 O.3       1 RES1    0.0000
      4 O4         6.1945    5.0105    1.4791 O.3       1 RES1    0.0000
      5 O5         4.1811    1.1734   -0.5285 O.2       1 RES1    0.0000
      6 O6        11.1498   -2.7899    3.2639 O.2       1 RES1    0.0000
      7 O7        12.1765   -1.3687    4.5007 O.2       1 RES1    0.0000
      8 N1        11.4124   -1.6484    3.6008 N.pl3     1 RES1    0.0000
      9 C1         7.6143    3.1795    1.1538 C.3       1 RES1    0.0000
     10 C2         7.5070    3.5212    2.6451 C.3       1 RES1    0.0000
     11 C3         7.4352    4.6815    0.8503 C.3       1 RES1    0.0000
     12 C4         7.4496    5.2485   -0.5364 C.3       1 RES1    0.0000
     13 H1         7.5033    6.2060   -0.4899 H         1 RES1    0.0000
     14 H2         6.6448    4.9941   -0.9949 H         1 RES1    0.0000
     15 H3         8.2107    4.9087   -1.0134 H         1 RES1    0.0000
     16 C5         7.5258    2.4905    3.7422 C.3       1 RES1    0.0000
     17 H4         8.3786    2.0493    3.7514 H         1 RES1    0.0000
     18 H5         6.8337    1.8437    3.5853 H         1 RES1    0.0000
     19 H6         7.3783    2.9195    4.5869 H         1 RES1    0.0000
     20 C6         6.4592    2.2840    0.6864 C.3       1 RES1    0.0000
     21 H7         6.4966    1.4541    1.1878 H         1 RES1    0.0000
     22 H8         5.6237    2.7223    0.9144 H         1 RES1    0.0000
     23 C7         6.4264    1.9432   -0.7877 C.3       1 RES1    0.0000
     24 H9         6.5331    2.7618   -1.2969 H         1 RES1    0.0000
     25 H10        7.1851    1.3724   -0.9899 H         1 RES1    0.0000
     26 C8         5.1722    1.2532   -1.2459 C.2       1 RES1    0.0000
     27 C9         5.2508    0.6505   -2.6179 C.3       1 RES1    0.0000
     28 H11        5.8400   -0.1080   -2.6005 H         1 RES1    0.0000
     29 H12        5.5883    1.3030   -3.2363 H         1 RES1    0.0000
     30 H13        4.3759    0.3689   -2.8941 H         1 RES1    0.0000
     31 C10        9.6134    1.5433    1.4668 C.ar      1 RES1    0.0000
     32 C11        9.1727    0.2272    1.2910 C.ar      1 RES1    0.0000
     33 H14        8.4773    0.0526    0.6996 H         1 RES1    0.0000
     34 C12        9.7569   -0.8186    1.9831 C.ar      1 RES1    0.0000
     35 H15        9.4607   -1.6916    1.8623 H         1 RES1    0.0000
     36 C13       10.7828   -0.5417    2.8521 C.ar      1 RES1    0.0000
     37 C14       11.2528    0.7397    3.0577 C.ar      1 RES1    0.0000
     38 H16       11.9471    0.9059    3.6541 H         1 RES1    0.0000
     39 C15       10.6575    1.7705    2.3483 C.ar      1 RES1    0.0000
     40 H17       10.9680    2.6388    2.4663 H         1 RES1    0.0000
     41 C16        9.0166    2.6998    0.6991 C.3       1 RES1    0.0000
     42 H18        8.9627    2.4473   -0.2349 H         1 RES1    0.0000
     43 H19        9.6279    3.4508    0.7600 H         1 RES1    0.0000
@<TRIPOS>BOND
     1    1    2 1
     2    2   11 1
     3    3    4 1
     4    4   11 1
     5    5   26 2
     6    6    8 2
     7    7    8 2
     8    8   36 1
     9    9   10 1
    10   10    1 1
    11   11    9 1
    12   12   11 1
    13   13   12 1
    14   14   12 1
    15   15   12 1
    16   16   10 1
    17   17   16 1
    18   18   16 1
    19   19   16 1
    20   20    9 1
    21   21   20 1
    22   22   20 1
    23   23   20 1
    24   24   23 1
    25   25   23 1
    26   26   23 1
    27   27   26 1
    28   28   27 1
    29   29   27 1
    30   30   27 1
    31   31   32 ar
    32   32   33 1
    33   34   32 ar
    34   35   34 1
    35   36   34 ar
    36   37   36 ar
    37   38   37 1
    38   39   31 ar
    39   40   39 1
    40   41    9 1
    41   42   41 1
    42   43   41 1
    43    3   10 1
    44   31   41 1
    45   37   39 ar
@<TRIPOS>SUBSTRUCTURE
     1 RES1 1

@<TRIPOS>CRYSIN
  10.2138    9.3874   16.7780  90.0000  90.5120  90.0000 231 1

