# MOL2 file generated by ConQuest
# Please check atom types

@<TRIPOS>MOLECULE
POQQOD
    84    90     2
SMALL
NO_CHARGES
****
Generated from CSD

@<TRIPOS>ATOM
      1 O1         0.3841    2.7533    1.6974 O.3       1 RES1    0.0000
      2 O2         1.5615    4.6411    1.0040 O.3       1 RES1    0.0000
      3 O3         2.3860    2.4405    2.8013 O.3       1 RES1    0.0000
      4 O4         3.1480    3.6335    2.3330 O.3       1 RES1    0.0000
      5 O5         4.1044   -3.4543   -3.4490 O.2       1 RES1    0.0000
      6 O6         4.1651   -4.4198   -1.5168 O.2       1 RES1    0.0000
      7 N1         4.0617   -3.4431   -2.2463 N.pl3     1 RES1    0.0000
      8 C1         2.4467    2.4454    0.4815 C.3       1 RES1    0.0000
      9 C2         2.7398    3.8573    0.9992 C.3       1 RES1    0.0000
     10 C3         1.6300    2.0288    1.6649 C.3       1 RES1    0.0000
     11 C4         1.6304    2.4862   -0.7969 C.3       1 RES1    0.0000
     12 H1         1.3663    1.5874   -1.0449 H         1 RES1    0.0000
     13 H2         2.1693    2.8522   -1.5168 H         1 RES1    0.0000
     14 C5         0.3863    3.3504   -0.5959 C.3       1 RES1    0.0000
     15 H3         0.3914    4.0885   -1.2255 H         1 RES1    0.0000
     16 H4        -0.4113    2.8213   -0.7548 H         1 RES1    0.0000
     17 C6         0.3785    3.8684    0.7849 C.3       1 RES1    0.0000
     18 C7        -0.7841    4.7412    1.1725 C.3       1 RES1    0.0000
     19 H5        -0.6009    5.1604    2.0176 H         1 RES1    0.0000
     20 H6        -1.5761    4.2047    1.2472 H         1 RES1    0.0000
     21 H7        -0.9162    5.4163    0.5032 H         1 RES1    0.0000
     22 C8         1.2490    0.5662    1.8972 C.3       1 RES1    0.0000
     23 H8         2.0249    0.0754    2.1789 H         1 RES1    0.0000
     24 H9         0.9123    0.1904    1.0810 H         1 RES1    0.0000
     25 H10        0.5740    0.5155    2.5762 H         1 RES1    0.0000
     26 C9         3.8309    4.6930    0.3744 C.3       1 RES1    0.0000
     27 H11        3.7863    5.5881    0.7175 H         1 RES1    0.0000
     28 H12        3.7148    4.7103   -0.5790 H         1 RES1    0.0000
     29 H13        4.6861    4.3122    0.5863 H         1 RES1    0.0000
     30 C10        3.7657    1.6839    0.3407 C.3       1 RES1    0.0000
     31 H14        4.3818    2.2563   -0.1433 H         1 RES1    0.0000
     32 H15        4.1293    1.5652    1.2315 H         1 RES1    0.0000
     33 C11        3.7770    0.3264   -0.3383 C.ar      1 RES1    0.0000
     34 C12        3.7209    0.2126   -1.6950 C.ar      1 RES1    0.0000
     35 H16        3.6168    0.9816   -2.2054 H         1 RES1    0.0000
     36 C13        3.8140   -1.0187   -2.3438 C.ar      1 RES1    0.0000
     37 H17        3.7937   -1.0793   -3.2708 H         1 RES1    0.0000
     38 C14        3.9334   -2.1178   -1.5674 C.ar      1 RES1    0.0000
     39 C15        3.9960   -2.0622   -0.2552 C.ar      1 RES1    0.0000
     40 H18        4.1023   -2.8410    0.2408 H         1 RES1    0.0000
     41 C16        3.9015   -0.8320    0.3876 C.ar      1 RES1    0.0000
     42 H19        3.9225   -0.7949    1.3158 H         1 RES1    0.0000
     43 O7         7.8822    2.6803    7.1916 O.3       2 RES2    0.0000
     44 O8         7.3165    4.6374    6.0420 O.3       2 RES2    0.0000
     45 O9         5.5831    2.4541    7.0231 O.3       2 RES2    0.0000
     46 O10        5.2420    3.6780    6.2382 O.3       2 RES2    0.0000
     47 O11        7.2858   -3.5198    0.8993 O.2       2 RES2    0.0000
     48 O12        5.9546   -4.3753    2.3751 O.2       2 RES2    0.0000
     49 N2         6.5851   -3.4703    1.8731 N.pl3     2 RES2    0.0000
     50 C17        6.8025    2.4788    5.0428 C.3       2 RES2    0.0000
     51 C18        6.3316    3.8956    5.3486 C.3       2 RES2    0.0000
     52 C19        6.8328    2.0139    6.4742 C.3       2 RES2    0.0000
     53 C20        8.1961    2.4998    4.4337 C.3       2 RES2    0.0000
     54 H20        8.1600    2.8794    3.5416 H         2 RES2    0.0000
     55 H21        8.5377    1.5936    4.3651 H         2 RES2    0.0000
     56 C21        9.1270    3.3393    5.3173 C.3       2 RES2    0.0000
     57 H22        9.8815    2.8002    5.6002 H         2 RES2    0.0000
     58 H23        9.4656    4.0934    4.8105 H         2 RES2    0.0000
     59 C22        8.3842    3.8264    6.5055 C.3       2 RES2    0.0000
     60 C23        9.2058    4.6485    7.4637 C.3       2 RES2    0.0000
     61 H24        9.6154    5.3767    6.9918 H         2 RES2    0.0000
     62 H25        9.8858    4.0984    7.8561 H         2 RES2    0.0000
     63 H26        8.6375    4.9959    8.1547 H         2 RES2    0.0000
     64 C24        6.9464    0.5526    6.8377 C.3       2 RES2    0.0000
     65 H27        7.2275    0.4723    7.7526 H         2 RES2    0.0000
     66 H28        7.5914    0.1286    6.2659 H         2 RES2    0.0000
     67 H29        6.0929    0.1286    6.7282 H         2 RES2    0.0000
     68 C25        5.7874    4.7870    4.2507 C.3       2 RES2    0.0000
     69 H30        5.6566    5.6734    4.5938 H         2 RES2    0.0000
     70 H31        4.9486    4.4359    3.9413 H         2 RES2    0.0000
     71 H32        6.4107    4.8142    3.5212 H         2 RES2    0.0000
     72 C26        5.7723    1.7692    4.1532 C.3       2 RES2    0.0000
     73 H33        4.9442    1.7160    4.6552 H         2 RES2    0.0000
     74 H34        5.6048    2.3428    3.3900 H         2 RES2    0.0000
     75 C27        6.0675    0.3894    3.6247 C.ar      2 RES2    0.0000
     76 C28        6.9168    0.1929    2.5653 C.ar      2 RES2    0.0000
     77 H35        7.3804    0.9198    2.2198 H         2 RES2    0.0000
     78 C29        7.1060   -1.0731    1.9887 C.ar      2 RES2    0.0000
     79 H36        7.6639   -1.1869    1.2532 H         2 RES2    0.0000
     80 C30        6.4441   -2.1339    2.5449 C.ar      2 RES2    0.0000
     81 C31        5.6194   -1.9966    3.5934 C.ar      2 RES2    0.0000
     82 H37        5.1857   -2.7384    3.9509 H         2 RES2    0.0000
     83 C32        5.4188   -0.7294    4.1412 C.ar      2 RES2    0.0000
     84 H38        4.8425   -0.6293    4.8646 H         2 RES2    0.0000
@<TRIPOS>BOND
     1    1   10 1
     2    2    9 1
     3    3    4 1
     4    4    9 1
     5    5    7 2
     6    6    7 2
     7    7   38 1
     8    8    9 1
     9    9   26 1
    10   10    3 1
    11   11    8 1
    12   12   11 1
    13   13   11 1
    14   14   11 1
    15   15   14 1
    16   16   14 1
    17   17    1 1
    18   18   17 1
    19   19   18 1
    20   20   18 1
    21   21   18 1
    22   22   10 1
    23   23   22 1
    24   24   22 1
    25   25   22 1
    26   26   27 1
    27   28   26 1
    28   29   26 1
    29   30    8 1
    30   31   30 1
    31   32   30 1
    32   33   30 1
    33   34   33 ar
    34   35   34 1
    35   36   34 ar
    36   37   36 1
    37   38   36 ar
    38   39   38 ar
    39   40   39 1
    40   41   33 ar
    41   42   41 1
    42   43   52 1
    43   44   51 1
    44   45   46 1
    45   46   51 1
    46   47   49 2
    47   48   49 2
    48   49   80 1
    49   50   51 1
    50   51   68 1
    51   52   45 1
    52   53   50 1
    53   54   53 1
    54   55   53 1
    55   56   53 1
    56   57   56 1
    57   58   56 1
    58   59   43 1
    59   60   59 1
    60   61   60 1
    61   62   60 1
    62   63   60 1
    63   64   52 1
    64   65   64 1
    65   66   64 1
    66   67   64 1
    67   68   69 1
    68   70   68 1
    69   71   68 1
    70   72   50 1
    71   73   72 1
    72   74   72 1
    73   75   72 1
    74   76   75 ar
    75   77   76 1
    76   78   76 ar
    77   79   78 1
    78   80   78 ar
    79   81   80 ar
    80   82   81 1
    81   83   75 ar
    82   84   83 1
    83    2   17 1
    84    8   10 1
    85   14   17 1
    86   39   41 ar
    87   44   59 1
    88   50   52 1
    89   56   59 1
    90   81   83 ar
@<TRIPOS>SUBSTRUCTURE
     1 RES1 1
     2 RES2 43

@<TRIPOS>CRYSIN
  21.6183   12.3631   12.5682  90.0000 106.6980  90.0000  14 1

