# MOL2 file generated by ConQuest
# Please check atom types

@<TRIPOS>MOLECULE
POQSOE
    79    84     1
SMALL
NO_CHARGES
****
Generated from CSD

@<TRIPOS>ATOM
      1 C1        -1.5399    6.6303    8.0081 C.3       1 RES1    0.0000
      2 H1        -1.4946    5.8917    7.3810 H         1 RES1    0.0000
      3 H2        -0.8742    6.4758    8.6969 H         1 RES1    0.0000
      4 C2        -2.9333    6.6535    8.6548 C.3       1 RES1    0.0000
      5 H3        -3.6059    6.7447    7.9621 H         1 RES1    0.0000
      6 H4        -3.0870    5.8114    9.1123 H         1 RES1    0.0000
      7 C3        -3.0718    7.7851    9.6341 C.3       1 RES1    0.0000
      8 H5        -2.5435    7.5965   10.4386 H         1 RES1    0.0000
      9 C4        -2.6543    9.1211    9.0413 C.3       1 RES1    0.0000
     10 H6        -3.3576    9.4314    8.4497 H         1 RES1    0.0000
     11 H7        -2.5679    9.7673    9.7590 H         1 RES1    0.0000
     12 C5        -1.3480    9.0749    8.2657 C.2       1 RES1    0.0000
     13 C6        -0.4234   10.0094    8.4537 C.2       1 RES1    0.0000
     14 H8        -0.5627   10.6263    9.1346 H         1 RES1    0.0000
     15 C7         0.8292   10.1396    7.6413 C.3       1 RES1    0.0000
     16 H9         1.5869    9.8585    8.1763 H         1 RES1    0.0000
     17 H10        0.9602   11.0704    7.4021 H         1 RES1    0.0000
     18 C8         0.7741    9.2964    6.3662 C.3       1 RES1    0.0000
     19 H11        0.1338    9.7101    5.7497 H         1 RES1    0.0000
     20 C9         0.2608    7.8800    6.7225 C.3       1 RES1    0.0000
     21 H12        0.8180    7.5636    7.4639 H         1 RES1    0.0000
     22 C10       -1.2020    7.9433    7.2667 C.3       1 RES1    0.0000
     23 C11        0.4283    6.8518    5.5828 C.3       1 RES1    0.0000
     24 H13        0.2797    5.9623    5.9403 H         1 RES1    0.0000
     25 H14       -0.2534    7.0161    4.9124 H         1 RES1    0.0000
     26 C12        1.8105    6.8871    4.9005 C.3       1 RES1    0.0000
     27 H15        2.4869    6.5817    5.5262 H         1 RES1    0.0000
     28 H16        1.8119    6.2860    4.1394 H         1 RES1    0.0000
     29 C13        2.1523    8.3022    4.4313 C.3       1 RES1    0.0000
     30 C14        2.1247    9.2173    5.6708 C.3       1 RES1    0.0000
     31 H17        2.7431    8.8194    6.3189 H         1 RES1    0.0000
     32 C15        2.7933   10.5046    5.1766 C.3       1 RES1    0.0000
     33 H18        2.1766   11.0449    4.6574 H         1 RES1    0.0000
     34 H19        3.1326   11.0315    5.9167 H         1 RES1    0.0000
     35 C16        3.9342    9.9765    4.3051 C.3       1 RES1    0.0000
     36 H20        4.7921   10.0617    4.7717 H         1 RES1    0.0000
     37 C17        3.6314    8.4920    3.9922 C.3       1 RES1    0.0000
     38 H21        4.2029    7.9262    4.5522 H         1 RES1    0.0000
     39 C18        4.0461    8.3168    2.5160 C.3       1 RES1    0.0000
     40 H22        3.2366    8.1526    1.9889 H         1 RES1    0.0000
     41 C19        5.0084    7.1560    2.2807 C.3       1 RES1    0.0000
     42 H23        5.7912    7.2728    2.8236 H         1 RES1    0.0000
     43 H24        5.2616    7.1329    1.3553 H         1 RES1    0.0000
     44 H25        4.5771    6.3310    2.5160 H         1 RES1    0.0000
     45 C20        1.1647    8.7622    3.3494 C.3       1 RES1    0.0000
     46 H26        1.1620    8.1282    2.6290 H         1 RES1    0.0000
     47 H27        1.4319    9.6225    3.0168 H         1 RES1    0.0000
     48 H28        0.2840    8.8242    3.7254 H         1 RES1    0.0000
     49 C21       -2.1975    8.1367    6.1086 C.3       1 RES1    0.0000
     50 H29       -3.0533    8.3923    6.4622 H         1 RES1    0.0000
     51 H30       -2.2851    7.3142    5.6209 H         1 RES1    0.0000
     52 H31       -1.8748    8.8242    5.5210 H         1 RES1    0.0000
     53 C22        4.6086    9.7088    2.1138 C.3       1 RES1    0.0000
     54 C23        4.2523   10.1530    0.7204 C.2       1 RES1    0.0000
     55 C24        5.1567   10.4596   -0.1867 C.2       1 RES1    0.0000
     56 H32        4.8778   10.6409   -1.0556 H         1 RES1    0.0000
     57 C25        6.6193   10.5265    0.1328 C.3       1 RES1    0.0000
     58 H33        7.0392    9.6796   -0.1262 H         1 RES1    0.0000
     59 C26        6.7359   10.6920    1.6287 C.3       1 RES1    0.0000
     60 H34        7.6694   10.6507    1.8890 H         1 RES1    0.0000
     61 H35        6.3903   11.5608    1.8877 H         1 RES1    0.0000
     62 C27        7.3022   11.6667   -0.6191 C.3       1 RES1    0.0000
     63 H36        7.2102   11.5267   -1.5643 H         1 RES1    0.0000
     64 H37        8.2334   11.6910   -0.3878 H         1 RES1    0.0000
     65 H38        6.8914   12.5002   -0.3786 H         1 RES1    0.0000
     66 C28       -5.0692    7.1134   10.8238 C.2       1 RES1    0.0000
     67 C29       -6.5053    7.4931   11.0472 C.3       1 RES1    0.0000
     68 H39       -6.7575    7.2740   11.9477 H         1 RES1    0.0000
     69 H40       -7.0629    7.0124   10.4320 H         1 RES1    0.0000
     70 H41       -6.6119    8.4373   10.9053 H         1 RES1    0.0000
     71 N1         2.2091    9.3621   -0.3418 N.pl3     1 RES1    0.0000
     72 O1         3.9893   10.6219    3.0155 O.3       1 RES1    0.0000
     73 O2         6.0037    9.6636    2.3061 O.3       1 RES1    0.0000
     74 O3        -4.4729    7.9822    9.9963 O.3       1 RES1    0.0000
     75 O4        -4.5176    6.1521   11.2931 O.2       1 RES1    0.0000
     76 O5         0.9989    9.4594   -0.3944 O.2       1 RES1    0.0000
     77 O6         2.8695    8.5261   -0.9386 O.2       1 RES1    0.0000
     78 N2         2.8522   10.2467    0.4297 N.pl3     1 RES1    0.0000
     79 H42        2.3303   10.7443    0.9070 H         1 RES1    0.0000
@<TRIPOS>BOND
     1    1    2 1
     2    3    1 1
     3    4    1 1
     4    5    4 1
     5    6    4 1
     6    7    4 1
     7    8    7 1
     8    9    7 1
     9   10    9 1
    10   11    9 1
    11   12    9 1
    12   13   12 2
    13   14   13 1
    14   15   13 1
    15   16   15 1
    16   17   15 1
    17   18   15 1
    18   19   18 1
    19   20   18 1
    20   21   20 1
    21   22    1 1
    22   23   20 1
    23   24   23 1
    24   25   23 1
    25   26   23 1
    26   27   26 1
    27   28   26 1
    28   29   26 1
    29   30   18 1
    30   31   30 1
    31   32   30 1
    32   33   32 1
    33   34   32 1
    34   35   32 1
    35   36   35 1
    36   37   29 1
    37   38   37 1
    38   39   37 1
    39   40   39 1
    40   41   39 1
    41   42   41 1
    42   43   41 1
    43   44   41 1
    44   45   29 1
    45   46   45 1
    46   47   45 1
    47   48   45 1
    48   49   22 1
    49   50   49 1
    50   51   49 1
    51   52   49 1
    52   53   39 1
    53   54   53 1
    54   55   54 2
    55   56   55 1
    56   57   55 1
    57   58   57 1
    58   59   57 1
    59   60   59 1
    60   61   59 1
    61   62   57 1
    62   63   62 1
    63   64   62 1
    64   65   62 1
    65   66   67 1
    66   67   68 1
    67   69   67 1
    68   70   67 1
    69   71   76 2
    70   72   35 1
    71   73   53 1
    72   74    7 1
    73   75   66 2
    74   77   71 2
    75   78   54 1
    76   79   78 1
    77   12   22 1
    78   20   22 1
    79   29   30 1
    80   35   37 1
    81   53   72 1
    82   59   73 1
    83   66   74 1
    84   71   78 1
@<TRIPOS>SUBSTRUCTURE
     1 RES1 1

@<TRIPOS>CRYSIN
   8.7330   12.1680   13.5560  90.0000 104.1410  90.0000   4 1

