# MOL2 file generated by ConQuest
# Please check atom types

@<TRIPOS>MOLECULE
POQVEY
    66    68     1
SMALL
NO_CHARGES
****
Generated from CSD

@<TRIPOS>ATOM
      1 C1         5.8256    6.6409    5.3355 C.3       1 RES1    0.0000
      2 H1         5.1938    6.0823    4.8353 H         1 RES1    0.0000
      3 C2         7.2118    6.0181    5.2396 C.3       1 RES1    0.0000
      4 H2         7.7962    6.4360    5.9055 H         1 RES1    0.0000
      5 C3         7.8721    6.1314    3.8584 C.3       1 RES1    0.0000
      6 H3         7.9144    7.0684    3.6071 H         1 RES1    0.0000
      7 H4         8.7818    5.8023    3.9180 H         1 RES1    0.0000
      8 C4         7.1593    5.3788    2.7830 C.2       1 RES1    0.0000
      9 H5         7.3322    4.4678    2.7286 H         1 RES1    0.0000
     10 C5         6.3093    5.8719    1.8994 C.2       1 RES1    0.0000
     11 H6         5.9723    5.2805    1.2671 H         1 RES1    0.0000
     12 C6         5.8315    7.2993    1.8191 C.3       1 RES1    0.0000
     13 H7         6.5318    7.9043    2.1430 H         1 RES1    0.0000
     14 C7         4.5408    7.4891    2.6613 C.3       1 RES1    0.0000
     15 H8         3.8616    7.9084    2.1093 H         1 RES1    0.0000
     16 H9         4.2082    6.6204    2.9333 H         1 RES1    0.0000
     17 C8         4.7692    8.3360    3.8895 C.3       1 RES1    0.0000
     18 H10        4.9596    9.2443    3.5760 H         1 RES1    0.0000
     19 C9         5.3543    6.7406    6.7736 C.3       1 RES1    0.0000
     20 H11        4.5190    7.2323    6.8229 H         1 RES1    0.0000
     21 H12        5.2135    5.8555    7.1442 H         1 RES1    0.0000
     22 C10        6.6165    7.6885   -0.3757 C.3       1 RES1    0.0000
     23 H13        6.3203    7.7159   -1.3008 H         1 RES1    0.0000
     24 H14        7.1447    6.8840   -0.2591 H         1 RES1    0.0000
     25 C11        6.8266   10.0078   -0.6375 C.3       1 RES1    0.0000
     26 H15        6.7223    9.9245   -1.5885 H         1 RES1    0.0000
     27 H16        7.3832   10.7659   -0.4405 H         1 RES1    0.0000
     28 H17        5.9657   10.1294   -0.2306 H         1 RES1    0.0000
     29 C12        3.4932    8.4043    4.6591 C.1       1 RES1    0.0000
     30 C13        8.1347    4.0444    6.2424 C.3       1 RES1    0.0000
     31 H18        8.9358    4.3025    5.7604 H         1 RES1    0.0000
     32 H19        8.0537    3.0787    6.1828 H         1 RES1    0.0000
     33 C14        8.2835    4.4364    7.6780 C.ar      1 RES1    0.0000
     34 C15        7.3008    4.0894    8.6109 C.ar      1 RES1    0.0000
     35 H20        6.5333    3.6496    8.3232 H         1 RES1    0.0000
     36 C16        7.4475    4.3872    9.9583 C.ar      1 RES1    0.0000
     37 H21        6.7974    4.1263   10.5699 H         1 RES1    0.0000
     38 C17        8.5768    5.0811   10.3833 C.ar      1 RES1    0.0000
     39 H22        8.6812    5.3037   11.2799 H         1 RES1    0.0000
     40 C18        9.5391    5.4335    9.4634 C.ar      1 RES1    0.0000
     41 H23       10.3015    5.8828    9.7484 H         1 RES1    0.0000
     42 C19        9.3903    5.1289    8.1237 C.ar      1 RES1    0.0000
     43 H24       10.0425    5.3939    7.5173 H         1 RES1    0.0000
     44 C20        6.2035    7.5765    8.8337 C.2       1 RES1    0.0000
     45 C21        7.3971    8.2199    9.5023 C.ar      1 RES1    0.0000
     46 C22        8.4688    8.7184    8.7741 C.ar      1 RES1    0.0000
     47 H25        8.4973    8.6406    7.8464 H         1 RES1    0.0000
     48 C23        9.4946    9.3358    9.4686 C.ar      1 RES1    0.0000
     49 C24        9.5289    9.4423   10.8186 C.ar      1 RES1    0.0000
     50 H26       10.2424    9.8507   11.2540 H         1 RES1    0.0000
     51 C25        8.4645    8.9219   11.5209 C.ar      1 RES1    0.0000
     52 C26        7.3898    8.3046   10.8938 C.ar      1 RES1    0.0000
     53 H27        6.6843    7.9563   11.3887 H         1 RES1    0.0000
     54 N1         2.4820    8.4111    5.2012 N.1       1 RES1    0.0000
     55 N2        10.6167    9.9231    8.7067 N.pl3     1 RES1    0.0000
     56 N3         8.4433    9.0572   12.9754 N.pl3     1 RES1    0.0000
     57 O1         5.8650    7.9494    4.7301 O.3       1 RES1    0.0000
     58 O2         5.4871    7.6271    0.4680 O.3       1 RES1    0.0000
     59 O3         7.4350    8.8250   -0.1197 O.3       1 RES1    0.0000
     60 O4         6.4020    7.4454    7.5223 O.3       1 RES1    0.0000
     61 O5         5.2274    7.2214    9.4323 O.2       1 RES1    0.0000
     62 O6         6.9900    4.6495    5.6060 O.3       1 RES1    0.0000
     63 O7        10.6948    9.7196    7.5295 O.2       1 RES1    0.0000
     64 O8        11.3922   10.6115    9.3079 O.2       1 RES1    0.0000
     65 O9         9.1678    9.9354   13.4664 O.2       1 RES1    0.0000
     66 O10        7.7006    8.3346   13.6219 O.2       1 RES1    0.0000
@<TRIPOS>BOND
     1    1    2 1
     2    3    1 1
     3    4    3 1
     4    5    3 1
     5    6    5 1
     6    7    5 1
     7    8    5 1
     8    9    8 1
     9   10    8 2
    10   11   10 1
    11   12   10 1
    12   13   12 1
    13   14   12 1
    14   15   14 1
    15   16   14 1
    16   17   14 1
    17   18   17 1
    18   19    1 1
    19   20   19 1
    20   21   19 1
    21   22   23 1
    22   24   22 1
    23   25   26 1
    24   27   25 1
    25   28   25 1
    26   29   17 1
    27   30   31 1
    28   32   30 1
    29   33   30 1
    30   34   33 ar
    31   35   34 1
    32   36   34 ar
    33   37   36 1
    34   38   36 ar
    35   39   38 1
    36   40   38 ar
    37   41   40 1
    38   42   33 ar
    39   43   42 1
    40   44   45 1
    41   45   46 ar
    42   46   47 1
    43   48   46 ar
    44   49   48 ar
    45   50   49 1
    46   51   49 ar
    47   52   45 ar
    48   53   52 1
    49   54   29 3
    50   55   48 1
    51   56   51 1
    52   57    1 1
    53   58   12 1
    54   59   22 1
    55   60   19 1
    56   61   44 2
    57   62    3 1
    58   63   55 2
    59   64   55 2
    60   65   56 2
    61   66   56 2
    62   17   57 1
    63   22   58 1
    64   25   59 1
    65   30   62 1
    66   40   42 ar
    67   44   60 1
    68   51   52 ar
@<TRIPOS>SUBSTRUCTURE
     1 RES1 1

@<TRIPOS>CRYSIN
   7.2957   13.6588   25.9129  90.0000  90.0000  90.0000  19 1

