# MOL2 file generated by ConQuest
# Please check atom types

@<TRIPOS>MOLECULE
POQVUO01
    20    20     1
SMALL
NO_CHARGES
****
Generated from CSD

@<TRIPOS>ATOM
      1 O1         2.0177    2.3770    0.4161 O.3       1 RES1    0.0000
      2 O2         1.4157   -3.6928   -1.0312 O.2       1 RES1    0.0000
      3 O3         2.3174   -3.8193    0.9114 O.2       1 RES1    0.0000
      4 N1         1.8820   -3.1690   -0.0287 N.pl3     1 RES1    0.0000
      5 C1         1.9066   -1.7072    0.0591 C.ar      1 RES1    0.0000
      6 C2         2.3234   -1.1124    1.2371 C.ar      1 RES1    0.0000
      7 H1         2.5872   -1.6365    1.9713 H         1 RES1    0.0000
      8 C3         2.3440    0.2569    1.3153 C.ar      1 RES1    0.0000
      9 H2         2.6261    0.6782    2.1068 H         1 RES1    0.0000
     10 C4         1.9455    1.0276    0.2215 C.ar      1 RES1    0.0000
     11 C5         1.5222    0.4265   -0.9539 C.ar      1 RES1    0.0000
     12 H3         1.2532    0.9480   -1.6880 H         1 RES1    0.0000
     13 C6         1.5016   -0.9583   -1.0269 C.ar      1 RES1    0.0000
     14 H4         1.2122   -1.3860   -1.8131 H         1 RES1    0.0000
     15 C7         1.6807    3.2088   -0.7028 C.3       1 RES1    0.0000
     16 H5         0.7843    2.9866   -1.0304 H         1 RES1    0.0000
     17 H6         2.3204    3.0688   -1.4318 H         1 RES1    0.0000
     18 C8         1.7219    4.6025   -0.2606 C.1       1 RES1    0.0000
     19 C9         1.7430    5.7419    0.0070 C.1       1 RES1    0.0000
     20 H7         1.7600    6.6565    0.2224 H         1 RES1    0.0000
@<TRIPOS>BOND
     1    1   10 1
     2    2    4 2
     3    3    4 2
     4    4    5 1
     5    5    6 ar
     6    6    7 1
     7    8    6 ar
     8    9    8 1
     9   10    8 ar
    10   11   10 ar
    11   12   11 1
    12   13    5 ar
    13   14   13 1
    14   15    1 1
    15   16   15 1
    16   17   15 1
    17   18   15 1
    18   19   18 3
    19   20   19 1
    20   11   13 ar
@<TRIPOS>SUBSTRUCTURE
     1 RES1 1

@<TRIPOS>CRYSIN
   7.3813   12.8454    9.0082  90.0000 105.3270  90.0000  14 1

