# MOL2 file generated by ConQuest
# Please check atom types

@<TRIPOS>MOLECULE
POQWAV
    67    66     4
SMALL
NO_CHARGES
****
Generated from CSD

@<TRIPOS>ATOM
      1 O1         2.8070    7.9108   -4.9969 O.3       1 RES1    0.0000
      2 O2         1.5646    9.8681   -6.2048 O.2       1 RES1    0.0000
      3 O3         2.9257   11.1653   -7.2701 O.2       1 RES1    0.0000
      4 O4         6.4767   12.9141   -4.5145 O.2       1 RES1    0.0000
      5 O5         7.7989   11.4313   -3.6568 O.2       1 RES1    0.0000
      6 N1         2.6738   10.3654   -6.3794 N.pl3     1 RES1    0.0000
      7 N2         6.7496   11.7611   -4.1896 N.pl3     1 RES1    0.0000
      8 C1         2.9087    6.6188   -4.3456 C.3       1 RES1    0.0000
      9 H1         2.9437    6.7301   -3.3619 H         1 RES1    0.0000
     10 H2         3.7282    6.1480   -4.6385 H         1 RES1    0.0000
     11 C2         1.7270    5.8650   -4.7298 C.1       1 RES1    0.0000
     12 C3         0.7623    5.2651   -5.0598 C.1       1 RES1    0.0000
     13 H3        -0.0124    4.7832   -5.3246 H         1 RES1    0.0000
     14 C4         3.7821    8.7993   -4.7704 C.ar      1 RES1    0.0000
     15 C5         3.7466   10.0343   -5.4524 C.ar      1 RES1    0.0000
     16 C6         4.7197   10.9973   -5.2847 C.ar      1 RES1    0.0000
     17 H4         4.6763   11.8243   -5.7501 H         1 RES1    0.0000
     18 C7         5.7542   10.7232   -4.4247 C.ar      1 RES1    0.0000
     19 C8         5.8468    9.5159   -3.7488 C.ar      1 RES1    0.0000
     20 H5         6.5825    9.3453   -3.1733 H         1 RES1    0.0000
     21 C9         4.8623    8.5651   -3.9177 C.ar      1 RES1    0.0000
     22 H6         4.9205    7.7415   -3.4480 H         1 RES1    0.0000
     23 O6         3.7104    1.6069   -1.3725 O.3       2 RES2    0.0000
     24 O7         4.2799    3.2274    0.5566 O.2       2 RES2    0.0000
     25 O8         3.4487    5.1772    0.4933 O.2       2 RES2    0.0000
     26 O9        -0.7393    5.9837   -1.4853 O.2       2 RES2    0.0000
     27 O10       -1.6287    4.5124   -2.7839 O.2       2 RES2    0.0000
     28 N3         3.4874    4.0160    0.1321 N.pl3     2 RES2    0.0000
     29 N4        -0.7196    4.9099   -2.0704 N.pl3     2 RES2    0.0000
     30 C10        3.7334    0.3292   -2.0613 C.3       2 RES2    0.0000
     31 H7         2.8935   -0.1658   -1.8896 H         2 RES2    0.0000
     32 H8         3.8213    0.4691   -3.0377 H         2 RES2    0.0000
     33 C11        4.8672   -0.4228   -1.5607 C.1       2 RES2    0.0000
     34 C12        5.7748   -1.0600   -1.1497 C.1       2 RES2    0.0000
     35 H9         6.5045   -1.5717   -0.8193 H         2 RES2    0.0000
     36 C13        2.6384    2.3859   -1.5799 C.ar      2 RES2    0.0000
     37 C14        2.5034    3.5885   -0.8551 C.ar      2 RES2    0.0000
     38 C15        1.4188    4.4273   -1.0215 C.ar      2 RES2    0.0000
     39 H10        1.3488    5.2407   -0.5352 H         2 RES2    0.0000
     40 C16        0.4442    4.0490   -1.9114 C.ar      2 RES2    0.0000
     41 C17        0.5353    2.8819   -2.6478 C.ar      2 RES2    0.0000
     42 H11       -0.1560    2.6435   -3.2535 H         2 RES2    0.0000
     43 C18        1.6355    2.0684   -2.4964 C.ar      2 RES2    0.0000
     44 H12        1.7121    1.2813   -3.0224 H         2 RES2    0.0000
     45 O11        9.9056    1.4704   -1.0924 O.3       3 RES3    0.0000
     46 O12       10.2908    2.9344    1.0503 O.2       3 RES3    0.0000
     47 O13        9.8921    5.0263    0.7219 O.2       3 RES3    0.0000
     48 O14        5.9794    6.2666   -1.6881 O.2       3 RES3    0.0000
     49 O15        4.7759    4.7048   -2.5813 O.2       3 RES3    0.0000
     50 N5         9.7527    3.8537    0.4327 N.pl3     3 RES3    0.0000
     51 N6         5.7906    5.1023   -2.0288 N.pl3     3 RES3    0.0000
     52 C19        9.9321    0.2163   -1.8200 C.3       3 RES3    0.0000
     53 H13       10.0479    0.3842   -2.7890 H         3 RES3    0.0000
     54 H14        9.0849   -0.2776   -1.6845 H         3 RES3    0.0000
     55 C20       11.0518   -0.5525   -1.3040 C.1       3 RES3    0.0000
     56 C21       11.9499   -1.1824   -0.8655 C.1       3 RES3    0.0000
     57 H15       12.6727   -1.6886   -0.5128 H         3 RES3    0.0000
     58 C22        8.8866    2.3055   -1.3415 C.ar      3 RES3    0.0000
     59 C23        8.8065    3.5172   -0.6229 C.ar      3 RES3    0.0000
     60 C24        7.8153    4.4453   -0.8602 C.ar      3 RES3    0.0000
     61 H16        7.8026    5.2767   -0.4008 H         3 RES3    0.0000
     62 C25        6.8495    4.1303   -1.7816 C.ar      3 RES3    0.0000
     63 C26        6.8684    2.9420   -2.4949 C.ar      3 RES3    0.0000
     64 H17        6.1760    2.7437   -3.1155 H         3 RES3    0.0000
     65 C27        7.9008    2.0491   -2.2956 C.ar      3 RES3    0.0000
     66 H18        7.9408    1.2530   -2.8126 H         3 RES3    0.0000
     67 O16       10.7911    3.2282    0.5458 Du        4 SUP4    0.0000
@<TRIPOS>BOND
     1    1    8 1
     2    2    6 2
     3    3    6 2
     4    4    7 2
     5    5    7 2
     6    6   15 1
     7    7   18 1
     8    8    9 1
     9   10    8 1
    10   11    8 1
    11   12   11 3
    12   13   12 1
    13   14    1 1
    14   15   14 ar
    15   16   15 ar
    16   17   16 1
    17   18   16 ar
    18   19   18 ar
    19   20   19 1
    20   21   14 ar
    21   22   21 1
    22   23   30 1
    23   24   28 2
    24   25   28 2
    25   26   29 2
    26   27   29 2
    27   28   37 1
    28   29   40 1
    29   30   31 1
    30   32   30 1
    31   33   30 1
    32   34   33 3
    33   35   34 1
    34   36   23 1
    35   37   36 ar
    36   38   37 ar
    37   39   38 1
    38   40   38 ar
    39   41   40 ar
    40   42   41 1
    41   43   36 ar
    42   44   43 1
    43   45   52 1
    44   46   50 2
    45   47   50 2
    46   48   51 2
    47   49   51 2
    48   50   59 1
    49   51   62 1
    50   52   53 1
    51   54   52 1
    52   55   52 1
    53   56   55 3
    54   57   56 1
    55   58   45 1
    56   59   58 ar
    57   60   59 ar
    58   61   60 1
    59   62   60 ar
    60   63   62 ar
    61   64   63 1
    62   65   58 ar
    63   66   65 1
    64   19   21 ar
    65   41   43 ar
    66   63   65 ar
@<TRIPOS>SUBSTRUCTURE
     1 RES1 1
     2 RES2 23
     3 RES3 45
     4 SUP4 67

@<TRIPOS>CRYSIN
  18.7143   12.8511   11.7881  90.0000  90.3500  90.0000  14 1

