# MOL2 file generated by ConQuest
# Please check atom types

@<TRIPOS>MOLECULE
POQWOJ
    24    24     1
SMALL
NO_CHARGES
****
Generated from CSD

@<TRIPOS>ATOM
      1 H1         7.9242    9.0903    2.2720 H         1 RES1    0.0000
      2 H2         8.9188    8.5082    1.2296 H         1 RES1    0.0000
      3 H3        11.2070    9.0616    4.4133 H         1 RES1    0.0000
      4 H4         4.9078    5.4045    0.8070 H         1 RES1    0.0000
      5 H5         5.5328    1.8639    2.7188 H         1 RES1    0.0000
      6 H6         8.0329    4.9571    3.3889 H         1 RES1    0.0000
      7 C1         8.5976    8.4946    2.1126 C.3       1 RES1    0.0000
      8 C2         9.6738    8.7270    3.0679 C.1       1 RES1    0.0000
      9 C3        10.5667    8.8939    3.8311 C.1       1 RES1    0.0000
     10 C4         7.0046    6.8077    1.6872 C.2       1 RES1    0.0000
     11 C5         6.5698    5.4248    2.0569 C.ar      1 RES1    0.0000
     12 C6         5.4513    4.8916    1.4180 C.ar      1 RES1    0.0000
     13 C7         5.0959    3.5777    1.7039 C.ar      1 RES1    0.0000
     14 C8         5.7943    2.7779    2.5942 C.ar      1 RES1    0.0000
     15 C9         6.8938    3.3558    3.2084 C.ar      1 RES1    0.0000
     16 C10        7.2921    4.6625    2.9738 C.ar      1 RES1    0.0000
     17 N1         3.9248    3.0055    1.0237 N.pl3     1 RES1    0.0000
     18 N2         7.6973    2.5342    4.1315 N.pl3     1 RES1    0.0000
     19 O1         8.0754    7.1721    2.3998 O.3       1 RES1    0.0000
     20 O2         6.4749    7.4817    0.8440 O.2       1 RES1    0.0000
     21 O3         3.3960    3.6674    0.1377 O.2       1 RES1    0.0000
     22 O4         3.5313    1.9039    1.3854 O.2       1 RES1    0.0000
     23 O5         7.2552    1.4391    4.4535 O.2       1 RES1    0.0000
     24 O6         8.7660    2.9859    4.5115 O.2       1 RES1    0.0000
@<TRIPOS>BOND
     1    1    7 1
     2    2    7 1
     3    3    9 1
     4    4   12 1
     5    5   14 1
     6    6   16 1
     7    7    8 1
     8    8    9 3
     9   10   11 1
    10   11   12 ar
    11   12   13 ar
    12   13   14 ar
    13   14   15 ar
    14   15   16 ar
    15   16   11 ar
    16   17   13 1
    17   18   15 1
    18   19    7 1
    19   20   10 2
    20   21   17 2
    21   22   17 2
    22   23   18 2
    23   24   18 2
    24   10   19 1
@<TRIPOS>SUBSTRUCTURE
     1 RES1 1

@<TRIPOS>CRYSIN
   5.4350    9.5587   20.1243  90.0000  90.0000  90.0000  19 1

