# MOL2 file generated by ConQuest
# Please check atom types

@<TRIPOS>MOLECULE
POQXEA
    86    88     1
SMALL
NO_CHARGES
****
Generated from CSD

@<TRIPOS>ATOM
      1 O1         5.1806    4.1465    1.1640 O.2       1 RES1    0.0000
      2 O2         4.6795    2.6645    2.6202 O.2       1 RES1    0.0000
      3 O3         1.4569    2.7813    3.2251 O.3       1 RES1    0.0000
      4 N1         0.8298    1.5424    3.7099 N.3       1 RES1    0.0000
      5 N2         4.3602    3.4804    1.7811 N.pl3     1 RES1    0.0000
      6 C1        -1.1125    5.3745    0.7788 C.ar      1 RES1    0.0000
      7 H1        -1.8765    5.1801    1.3078 H         1 RES1    0.0000
      8 C2         0.1359    4.9646    1.2037 C.ar      1 RES1    0.0000
      9 H2         0.2267    4.5198    2.0370 H         1 RES1    0.0000
     10 C3         1.2640    5.1978    0.4193 C.ar      1 RES1    0.0000
     11 C4         2.6025    4.7544    0.8193 C.2       1 RES1    0.0000
     12 H3         3.3280    5.3108    0.5617 H         1 RES1    0.0000
     13 C5         2.9126    3.6572    1.5056 C.2       1 RES1    0.0000
     14 C6         2.0406    2.5182    1.9413 C.3       1 RES1    0.0000
     15 H4         1.3221    2.3788    1.2738 H         1 RES1    0.0000
     16 H5         2.5801    1.6891    1.9887 H         1 RES1    0.0000
     17 C7        -0.6462    1.7677    3.7437 C.3       1 RES1    0.0000
     18 C8        -1.2718    0.5031    4.3556 C.3       1 RES1    0.0000
     19 H6        -2.2439    0.6513    4.4711 H         1 RES1    0.0000
     20 H7        -1.1550   -0.2490    3.7221 H         1 RES1    0.0000
     21 C9        -0.6776    0.1135    5.6898 C.3       1 RES1    0.0000
     22 H8        -0.8651    0.8181    6.3605 H         1 RES1    0.0000
     23 H9        -1.0842   -0.7325    6.0059 H         1 RES1    0.0000
     24 C10        0.8153   -0.0621    5.5330 C.3       1 RES1    0.0000
     25 H10        0.9859   -0.8215    4.9222 H         1 RES1    0.0000
     26 H11        1.2060   -0.2907    6.4144 H         1 RES1    0.0000
     27 C11        1.5209    1.1868    4.9863 C.3       1 RES1    0.0000
     28 C12       -1.1207    3.0328    4.4824 C.3       1 RES1    0.0000
     29 H12       -1.0558    2.8904    5.4498 H         1 RES1    0.0000
     30 H13       -2.0522    3.2217    4.2413 H         1 RES1    0.0000
     31 H14       -0.5562    3.7919    4.2271 H         1 RES1    0.0000
     32 C13       -1.1273    1.8417    2.3005 C.3       1 RES1    0.0000
     33 H15       -0.8065    2.6718    1.8923 H         1 RES1    0.0000
     34 H16       -2.1069    1.8255    2.2809 H         1 RES1    0.0000
     35 H17       -0.7782    1.0750    1.7986 H         1 RES1    0.0000
     36 C14        1.5611    2.3116    6.0354 C.3       1 RES1    0.0000
     37 H18        1.8047    3.1552    5.6002 H         1 RES1    0.0000
     38 H19        2.2250    2.0937    6.7236 H         1 RES1    0.0000
     39 H20        0.6781    2.4013    6.4513 H         1 RES1    0.0000
     40 C15        2.9519    0.7942    4.6308 C.3       1 RES1    0.0000
     41 H21        2.9399    0.1375    3.9037 H         1 RES1    0.0000
     42 H22        3.3875    0.4034    5.4158 H         1 RES1    0.0000
     43 H23        3.4470    1.5900    4.3434 H         1 RES1    0.0000
     44 O1D       -5.1806    7.1220   -1.1640 O.2       1 RES1    0.0000
     45 O2D       -4.6795    8.6040   -2.6202 O.2       1 RES1    0.0000
     46 O3D       -1.4569    8.4872   -3.2251 O.3       1 RES1    0.0000
     47 N1D       -0.8298    9.7261   -3.7099 N.3       1 RES1    0.0000
     48 N2D       -4.3602    7.7881   -1.7811 N.pl3     1 RES1    0.0000
     49 C1D        1.1125    5.8940   -0.7788 C.ar      1 RES1    0.0000
     50 H1D        1.8765    6.0884   -1.3078 H         1 RES1    0.0000
     51 C2D       -0.1359    6.3039   -1.2037 C.ar      1 RES1    0.0000
     52 H2D       -0.2267    6.7487   -2.0370 H         1 RES1    0.0000
     53 C3D       -1.2640    6.0707   -0.4193 C.ar      1 RES1    0.0000
     54 C4D       -2.6025    6.5141   -0.8193 C.2       1 RES1    0.0000
     55 H3D       -3.3280    5.9577   -0.5617 H         1 RES1    0.0000
     56 C5D       -2.9126    7.6113   -1.5056 C.2       1 RES1    0.0000
     57 C6D       -2.0406    8.7503   -1.9413 C.3       1 RES1    0.0000
     58 H4D       -1.3221    8.8897   -1.2738 H         1 RES1    0.0000
     59 H5D       -2.5801    9.5794   -1.9887 H         1 RES1    0.0000
     60 C7D        0.6462    9.5008   -3.7437 C.3       1 RES1    0.0000
     61 C8D        1.2718   10.7654   -4.3556 C.3       1 RES1    0.0000
     62 H6D        2.2439   10.6172   -4.4711 H         1 RES1    0.0000
     63 H7D        1.1550   11.5175   -3.7221 H         1 RES1    0.0000
     64 C9D        0.6776   11.1550   -5.6898 C.3       1 RES1    0.0000
     65 H8D        0.8651   10.4504   -6.3605 H         1 RES1    0.0000
     66 H9D        1.0842   12.0010   -6.0059 H         1 RES1    0.0000
     67 C10D      -0.8153   11.3306   -5.5330 C.3       1 RES1    0.0000
     68 H10D      -0.9859   12.0900   -4.9222 H         1 RES1    0.0000
     69 H11D      -1.2060   11.5592   -6.4144 H         1 RES1    0.0000
     70 C11D      -1.5209   10.0817   -4.9863 C.3       1 RES1    0.0000
     71 C12D       1.1207    8.2357   -4.4824 C.3       1 RES1    0.0000
     72 H12D       1.0558    8.3781   -5.4498 H         1 RES1    0.0000
     73 H13D       2.0522    8.0468   -4.2413 H         1 RES1    0.0000
     74 H14D       0.5562    7.4766   -4.2271 H         1 RES1    0.0000
     75 C13D       1.1273    9.4268   -2.3005 C.3       1 RES1    0.0000
     76 H15D       0.8065    8.5967   -1.8923 H         1 RES1    0.0000
     77 H16D       2.1069    9.4430   -2.2809 H         1 RES1    0.0000
     78 H17D       0.7782   10.1935   -1.7986 H         1 RES1    0.0000
     79 C14D      -1.5611    8.9569   -6.0354 C.3       1 RES1    0.0000
     80 H18D      -1.8047    8.1133   -5.6002 H         1 RES1    0.0000
     81 H19D      -2.2250    9.1748   -6.7236 H         1 RES1    0.0000
     82 H20D      -0.6781    8.8672   -6.4513 H         1 RES1    0.0000
     83 C15D      -2.9519   10.4743   -4.6308 C.3       1 RES1    0.0000
     84 H21D      -2.9399   11.1310   -3.9037 H         1 RES1    0.0000
     85 H22D      -3.3875   10.8651   -5.4158 H         1 RES1    0.0000
     86 H23D      -3.4470    9.6785   -4.3434 H         1 RES1    0.0000
@<TRIPOS>BOND
     1    1    5 2
     2    2    5 2
     3    3    4 1
     4    4   17 1
     5    5   13 1
     6    6    7 1
     7    8    6 ar
     8    9    8 1
     9   10    8 ar
    10   11   10 1
    11   12   11 1
    12   13   11 2
    13   14    3 1
    14   15   14 1
    15   16   14 1
    16   17   18 1
    17   18   19 1
    18   20   18 1
    19   21   18 1
    20   22   21 1
    21   23   21 1
    22   24   21 1
    23   25   24 1
    24   26   24 1
    25   27    4 1
    26   28   17 1
    27   29   28 1
    28   30   28 1
    29   31   28 1
    30   32   17 1
    31   33   32 1
    32   34   32 1
    33   35   32 1
    34   36   27 1
    35   37   36 1
    36   38   36 1
    37   39   36 1
    38   40   27 1
    39   41   40 1
    40   42   40 1
    41   43   40 1
    42   44   48 2
    43   45   48 2
    44   46   47 1
    45   47   60 1
    46   48   56 1
    47   49   10 ar
    48   50   49 1
    49   51   49 ar
    50   52   51 1
    51   53    6 ar
    52   54   53 1
    53   55   54 1
    54   56   54 2
    55   57   46 1
    56   58   57 1
    57   59   57 1
    58   60   61 1
    59   61   62 1
    60   63   61 1
    61   64   61 1
    62   65   64 1
    63   66   64 1
    64   67   64 1
    65   68   67 1
    66   69   67 1
    67   70   47 1
    68   71   60 1
    69   72   71 1
    70   73   71 1
    71   74   71 1
    72   75   60 1
    73   76   75 1
    74   77   75 1
    75   78   75 1
    76   79   70 1
    77   80   79 1
    78   81   79 1
    79   82   79 1
    80   83   70 1
    81   84   83 1
    82   85   83 1
    83   86   83 1
    84   13   14 1
    85   24   27 1
    86   51   53 ar
    87   56   57 1
    88   67   70 1
@<TRIPOS>SUBSTRUCTURE
     1 RES1 1

@<TRIPOS>CRYSIN
   9.4439   11.2685   28.3698  90.0000  90.0000  90.0000  61 1

