# MOL2 file generated by ConQuest
# Please check atom types

@<TRIPOS>MOLECULE
POQXOK
    30    32     1
SMALL
NO_CHARGES
****
Generated from CSD

@<TRIPOS>ATOM
      1 O1         1.0272    2.5674    1.7093 O.3       1 RES1    0.0000
      2 O2         6.7047    3.6427    3.8633 O.2       1 RES1    0.0000
      3 O3         7.2206    2.8842    1.9185 O.2       1 RES1    0.0000
      4 N1         6.3996    3.1857    2.7769 N.pl3     1 RES1    0.0000
      5 C1         0.8736    4.3851    7.9500 C.ar      1 RES1    0.0000
      6 C2         1.2390    3.7026    5.2287 C.ar      1 RES1    0.0000
      7 C3         1.9948    3.6734    7.5313 C.ar      1 RES1    0.0000
      8 H1         2.6505    3.4186    8.1694 H         1 RES1    0.0000
      9 C4         0.1077    4.4121    5.6392 C.ar      1 RES1    0.0000
     10 H2        -0.5479    4.6662    5.0004 H         1 RES1    0.0000
     11 C5        -0.0647    4.7479    6.9762 C.ar      1 RES1    0.0000
     12 H3        -0.8377    5.2363    7.2371 H         1 RES1    0.0000
     13 C6         2.3759    2.6521    1.8546 C.ar      1 RES1    0.0000
     14 C7         2.1739    3.3281    6.1952 C.ar      1 RES1    0.0000
     15 H4         2.9413    2.8317    5.9393 H         1 RES1    0.0000
     16 C8         4.0569    3.3084    3.4489 C.ar      1 RES1    0.0000
     17 H5         4.3239    3.6500    4.2955 H         1 RES1    0.0000
     18 C9         1.4463    3.2996    3.8291 C.2       1 RES1    0.0000
     19 C10        2.7132    3.1142    3.1343 C.ar      1 RES1    0.0000
     20 C11        4.9839    2.9835    2.4768 C.ar      1 RES1    0.0000
     21 C12        0.6864    4.7333    9.4010 C.3       1 RES1    0.0000
     22 H6        -0.1503    5.2305    9.5134 H         1 RES1    0.0000
     23 H7         1.4380    5.2852    9.7044 H         1 RES1    0.0000
     24 H8         0.6508    3.9106    9.9317 H         1 RES1    0.0000
     25 C13        4.6384    2.4762    1.2168 C.ar      1 RES1    0.0000
     26 H9         5.3179    2.2455    0.5962 H         1 RES1    0.0000
     27 C14        0.4917    2.9704    2.9219 C.2       1 RES1    0.0000
     28 H10       -0.4411    3.0120    3.0997 H         1 RES1    0.0000
     29 C15        3.3159    2.3126    0.8815 C.ar      1 RES1    0.0000
     30 H11        3.0550    1.9841    0.0296 H         1 RES1    0.0000
@<TRIPOS>BOND
     1    1   13 1
     2    2    4 2
     3    3    4 2
     4    4   20 1
     5    5    7 ar
     6    6    9 ar
     7    7    8 1
     8    9   10 1
     9   11    5 ar
    10   12   11 1
    11   13   19 ar
    12   14    6 ar
    13   15   14 1
    14   16   17 1
    15   18    6 1
    16   19   16 ar
    17   20   16 ar
    18   21    5 1
    19   22   21 1
    20   23   21 1
    21   24   21 1
    22   25   20 ar
    23   26   25 1
    24   27    1 1
    25   28   27 1
    26   29   13 ar
    27   30   29 1
    28    7   14 ar
    29    9   11 ar
    30   18   19 1
    31   18   27 2
    32   25   29 ar
@<TRIPOS>SUBSTRUCTURE
     1 RES1 1

@<TRIPOS>CRYSIN
   9.8900    7.3000   32.9410  90.0000  90.0000  90.0000  61 1

