# MOL2 file generated by ConQuest
# Please check atom types

@<TRIPOS>MOLECULE
POQYIE
    26    25     1
SMALL
NO_CHARGES
****
Generated from CSD

@<TRIPOS>ATOM
      1 N1        -1.4856    1.2187   23.6722 N.pl3     1 RES1    0.0000
      2 O1        -1.0840    1.4695   24.7890 O.2       1 RES1    0.0000
      3 O2        -2.6139    1.4398   23.2588 O.2       1 RES1    0.0000
      4 N2        -0.5747    0.6229   22.8363 N.am      1 RES1    0.0000
      5 H1         0.1797    0.6706   23.1674 H         1 RES1    0.0000
      6 C1        -0.6384    0.5345   21.4498 C.2       1 RES1    0.0000
      7 O3         0.4183    0.3321   20.8724 O.2       1 RES1    0.0000
      8 N3        -1.8454    0.6222   20.8432 N.am      1 RES1    0.0000
      9 H2        -2.4842    0.6964   21.3475 H         1 RES1    0.0000
     10 C2        -2.1082    0.6280   19.4633 C.2       1 RES1    0.0000
     11 O4        -3.2842    0.6893   19.1090 O.2       1 RES1    0.0000
     12 N4        -1.0854    0.5771   18.6265 N.am      1 RES1    0.0000
     13 H3        -0.3488    0.5287   19.0076 H         1 RES1    0.0000
     14 C3        -1.2823    0.5191   17.1831 C.3       1 RES1    0.0000
     15 H4        -2.2537    0.5262   16.9934 H         1 RES1    0.0000
     16 H5        -0.9154   -0.3359   16.8449 H         1 RES1    0.0000
     17 C4        -0.6332    1.6539   16.4363 C.3       1 RES1    0.0000
     18 H6        -0.9186    2.5134   16.8592 H         1 RES1    0.0000
     19 C5         0.8795    1.5772   16.4903 C.3       1 RES1    0.0000
     20 H7         1.1766    1.6339   17.4220 H         1 RES1    0.0000
     21 H8         1.2632    2.3200   15.9792 H         1 RES1    0.0000
     22 H9         1.1776    0.7273   16.1049 H         1 RES1    0.0000
     23 C6        -1.1470    1.6333   14.9927 C.3       1 RES1    0.0000
     24 H10       -0.9345    0.7692   14.5821 H         1 RES1    0.0000
     25 H11       -0.7178    2.3516   14.4821 H         1 RES1    0.0000
     26 H12       -2.1184    1.7668   14.9907 H         1 RES1    0.0000
@<TRIPOS>BOND
     1    1    2 2
     2    3    1 2
     3    4    1 1
     4    5    4 1
     5    6    4 1
     6    7    6 2
     7    8    6 1
     8    9    8 1
     9   10    8 1
    10   11   10 2
    11   12   10 1
    12   13   12 1
    13   14   12 1
    14   15   14 1
    15   16   14 1
    16   17   14 1
    17   18   17 1
    18   19   17 1
    19   20   19 1
    20   21   19 1
    21   22   19 1
    22   23   17 1
    23   24   23 1
    24   25   23 1
    25   26   23 1
@<TRIPOS>SUBSTRUCTURE
     1 RES1 1

@<TRIPOS>CRYSIN
  10.5710    6.4480   28.5700  90.0000  90.0000  90.0000  61 1

