# MOL2 file generated by ConQuest
# Please check atom types

@<TRIPOS>MOLECULE
PORFUZ
    23    24     1
SMALL
USER_CHARGES
****
Generated from CSD

@<TRIPOS>ATOM
      1 C1         3.5401    2.3411    5.4638 C.ar      1 RES1    0.0000
      2 H1         2.7527    2.7863    5.6805 H         1 RES1    0.0000
      3 C2         3.4964    1.0818    4.8536 C.ar      1 RES1    0.0000
      4 C3         4.6017    0.3503    4.4795 C.ar      1 RES1    0.0000
      5 H2         4.5580   -0.4862    4.0776 H         1 RES1    0.0000
      6 C4         5.8980    1.0727    4.7996 C.ar      1 RES1    0.0000
      7 C5         7.0905    0.4331    4.4870 C.ar      1 RES1    0.0000
      8 H3         7.0780   -0.4077    4.0896 H         1 RES1    0.0000
      9 C6         8.3058    1.0491    4.7688 C.ar      1 RES1    0.0000
     10 H4         9.1036    0.6209    4.5597 H         1 RES1    0.0000
     11 C7         8.3245    2.3055    5.3634 C.ar      1 RES1    0.0000
     12 C8         7.1321    2.9457    5.6752 C.ar      1 RES1    0.0000
     13 H5         7.1445    3.7859    6.0733 H         1 RES1    0.0000
     14 C9         5.9167    2.3290    5.3941 C.ar      1 RES1    0.0000
     15 C10        9.7372    2.7180    5.6602 C.3       1 RES1    0.0000
     16 H6        10.3397    2.0300    5.3619 H         1 RES1    0.0000
     17 H7         9.8411    2.8400    6.6079 H         1 RES1    0.0000
     18 H8         9.9346    3.5370    5.2067 H         1 RES1    0.0000
     19 N1         4.7637    2.9149    5.7405 N.pl3     1 RES1    1.0000
     20 N2         2.1004    0.4687    4.6197 N.pl3     1 RES1    0.0000
     21 O1         2.1835   -0.8214    4.1159 O.2       1 RES1    0.0000
     22 O2         1.1904    0.9302    4.8656 O.2       1 RES1    0.0000
     23 O3         4.8260    3.8354    6.3177 O.2       1 RES1   -1.0000
@<TRIPOS>BOND
     1    1    2 1
     2    3    1 ar
     3    4    3 ar
     4    5    4 1
     5    6    4 ar
     6    7    6 ar
     7    8    7 1
     8    9    7 ar
     9   10    9 1
    10   11    9 ar
    11   12   11 ar
    12   13   12 1
    13   14    6 ar
    14   15   11 1
    15   16   15 1
    16   17   15 1
    17   18   15 1
    18   19    1 ar
    19   20    3 1
    20   21   20 2
    21   22   20 2
    22   23   19 1
    23   12   14 ar
    24   14   19 ar
@<TRIPOS>SUBSTRUCTURE
     1 RES1 1

@<TRIPOS>CRYSIN
  20.7750    6.0400    7.4970  90.0000  90.0000  90.0000  29 1

