# MOL2 file generated by ConQuest
# Please check atom types

@<TRIPOS>MOLECULE
PORVOH
    16    17     1
SMALL
NO_CHARGES
****
Generated from CSD

@<TRIPOS>ATOM
      1 O1         4.4665    0.3573    7.8322 O.3       1 RES1    0.0000
      2 N1         8.1086    1.3747   11.0028 N.3       1 RES1    0.0000
      3 N2         5.6120    0.0933    7.0647 N.2       1 RES1    0.0000
      4 C1         8.0217    0.8864    9.7203 C.2       1 RES1    0.0000
      5 C2         9.4409    0.6046    9.2266 C.3       1 RES1    0.0000
      6 C3        10.2684    0.9210   10.4539 C.ar      1 RES1    0.0000
      7 C4        11.6266    0.8550   10.6687 C.ar      1 RES1    0.0000
      8 C5        12.1215    1.2490   11.9198 C.ar      1 RES1    0.0000
      9 C6        11.2731    1.6807   12.8996 C.ar      1 RES1    0.0000
     10 C7         9.9098    1.7634   12.6999 C.ar      1 RES1    0.0000
     11 C8         9.4347    1.3779   11.4576 C.ar      1 RES1    0.0000
     12 C9         6.8417    0.7293    9.0784 C.2       1 RES1    0.0000
     13 C10        6.6917    0.2913    7.7255 C.2       1 RES1    0.0000
     14 C11        6.9968    1.8221   11.7980 C.3       1 RES1    0.0000
     15 C12        9.6424   -0.8561    8.8121 C.3       1 RES1    0.0000
     16 C13        9.8502    1.5707    8.0885 C.3       1 RES1    0.0000
@<TRIPOS>BOND
     1    1    3 1
     2    2    4 1
     3    3   13 2
     4    4    5 1
     5    5    6 1
     6    6    7 ar
     7    7    8 ar
     8    8    9 ar
     9    9   10 ar
    10   10   11 ar
    11   11    2 1
    12   12    4 2
    13   13   12 1
    14   14    2 1
    15   15    5 1
    16   16    5 1
    17    6   11 ar
@<TRIPOS>SUBSTRUCTURE
     1 RES1 1

@<TRIPOS>CRYSIN
   9.1400   10.4780   12.5710  90.0000  92.2000  90.0000 231 1

