# MOL2 file generated by ConQuest
# Please check atom types

@<TRIPOS>MOLECULE
POSGOU
    35    37     1
SMALL
NO_CHARGES
****
Generated from CSD

@<TRIPOS>ATOM
      1 N1         4.7339    9.0901    7.5285 N.3       1 RES1    0.0000
      2 O1         1.5185    5.7110    6.5215 O.3       1 RES1    0.0000
      3 O2         3.2036    6.9767    5.5680 O.3       1 RES1    0.0000
      4 O3         1.6814    5.3154    9.7187 O.3       1 RES1    0.0000
      5 H1         1.2375    4.7316    9.3534 H         1 RES1    0.0000
      6 O4         5.6381    9.2400    8.6745 O.3       1 RES1    0.0000
      7 C1         2.1993    5.9826    5.2840 C.3       1 RES1    0.0000
      8 C2         1.1825    6.5113    4.3152 C.3       1 RES1    0.0000
      9 H2         0.7665    7.2946    4.6839 H         1 RES1    0.0000
     10 H3         0.5153    5.8406    4.1533 H         1 RES1    0.0000
     11 H4         1.6152    6.7378    3.4888 H         1 RES1    0.0000
     12 C3         2.8946    4.7552    4.7755 C.3       1 RES1    0.0000
     13 H5         3.5288    4.4520    5.4298 H         1 RES1    0.0000
     14 H6         3.3535    4.9637    3.9575 H         1 RES1    0.0000
     15 H7         2.2483    4.0654    4.6127 H         1 RES1    0.0000
     16 C4         2.4171    6.1427    7.5455 C.3       1 RES1    0.0000
     17 H8         3.1075    5.4597    7.6785 H         1 RES1    0.0000
     18 C5         3.0386    7.3679    6.9343 C.3       1 RES1    0.0000
     19 H9         2.4194    8.1253    6.9954 H         1 RES1    0.0000
     20 C6         4.3136    7.6846    7.6582 C.3       1 RES1    0.0000
     21 H10        5.0311    7.0883    7.3573 H         1 RES1    0.0000
     22 C7         4.0779    7.5155    9.1907 C.3       1 RES1    0.0000
     23 H11        4.4925    6.6814    9.4967 H         1 RES1    0.0000
     24 C8         2.6058    7.5245    9.5789 C.3       1 RES1    0.0000
     25 H12        2.2357    8.3980    9.3771 H         1 RES1    0.0000
     26 H13        2.5348    7.3893   10.5367 H         1 RES1    0.0000
     27 C9         1.7633    6.4549    8.8652 C.3       1 RES1    0.0000
     28 H14        0.8624    6.8054    8.7058 H         1 RES1    0.0000
     29 C10        4.8547    8.7080    9.7467 C.3       1 RES1    0.0000
     30 H15        4.2423    9.3809   10.0824 H         1 RES1    0.0000
     31 H16        5.4297    8.4239   10.4748 H         1 RES1    0.0000
     32 C11        5.5841    9.2941    6.3630 C.3       1 RES1    0.0000
     33 H17        5.8280   10.2205    6.3037 H         1 RES1    0.0000
     34 H18        5.1076    9.0371    5.5697 H         1 RES1    0.0000
     35 H19        6.3768    8.7587    6.4469 H         1 RES1    0.0000
@<TRIPOS>BOND
     1    1    6 1
     2    2    7 1
     3    3    7 1
     4    4    5 1
     5    6   29 1
     6    7    8 1
     7    8    9 1
     8   10    8 1
     9   11    8 1
    10   12    7 1
    11   13   12 1
    12   14   12 1
    13   15   12 1
    14   16    2 1
    15   17   16 1
    16   18    3 1
    17   19   18 1
    18   20    1 1
    19   21   20 1
    20   22   20 1
    21   23   22 1
    22   24   22 1
    23   25   24 1
    24   26   24 1
    25   27    4 1
    26   28   27 1
    27   29   22 1
    28   30   29 1
    29   31   29 1
    30   32    1 1
    31   33   32 1
    32   34   32 1
    33   35   32 1
    34   16   18 1
    35   16   27 1
    36   18   20 1
    37   24   27 1
@<TRIPOS>SUBSTRUCTURE
     1 RES1 1

@<TRIPOS>CRYSIN
   6.3245   11.2710    8.5420  90.0000  97.1200  90.0000   4 1

