# MOL2 file generated by ConQuest
# Please check atom types

@<TRIPOS>MOLECULE
POSGAG
    48    51     1
SMALL
NO_CHARGES
****
Generated from CSD

@<TRIPOS>ATOM
      1 N1         6.1976    4.5720    1.2078 N.3       1 RES1    0.0000
      2 O1         3.0451    7.7643    2.1849 O.3       1 RES1    0.0000
      3 O2         4.9434    6.8215    4.3793 O.3       1 RES1    0.0000
      4 O3         4.9103    4.5789    3.9216 O.3       1 RES1    0.0000
      5 O4         6.4234    5.8529    0.5740 O.3       1 RES1    0.0000
      6 C1         0.9933    8.5455    3.1111 C.ar      1 RES1    0.0000
      7 C2         0.1642    7.4800    2.8817 C.ar      1 RES1    0.0000
      8 H1         0.5254    6.6243    2.8453 H         1 RES1    0.0000
      9 C3        -1.1903    7.6447    2.7011 C.ar      1 RES1    0.0000
     10 H2        -1.7300    6.9053    2.5354 H         1 RES1    0.0000
     11 C4        -1.7372    8.8835    2.7671 C.ar      1 RES1    0.0000
     12 H3        -2.6566    8.9959    2.6742 H         1 RES1    0.0000
     13 C5        -0.9471    9.9397    2.9665 C.ar      1 RES1    0.0000
     14 H4        -1.3216   10.7915    2.9989 H         1 RES1    0.0000
     15 C6         0.4186    9.7915    3.1242 C.ar      1 RES1    0.0000
     16 H5         0.9532   10.5437    3.2414 H         1 RES1    0.0000
     17 C7         2.4678    8.3625    3.3316 C.3       1 RES1    0.0000
     18 H6         2.8844    9.2219    3.4987 H         1 RES1    0.0000
     19 H7         2.6166    7.7967    4.1063 H         1 RES1    0.0000
     20 C8         5.1479    5.5279    4.9665 C.3       1 RES1    0.0000
     21 C9         4.1372    5.3472    6.0624 C.3       1 RES1    0.0000
     22 H8         3.2538    5.4685    5.7054 H         1 RES1    0.0000
     23 H9         4.2953    5.9934    6.7535 H         1 RES1    0.0000
     24 H10        4.2152    4.4622    6.4275 H         1 RES1    0.0000
     25 C10        6.5773    5.3677    5.4252 C.3       1 RES1    0.0000
     26 H11        7.1683    5.4941    4.6788 H         1 RES1    0.0000
     27 H12        6.7004    4.4865    5.7849 H         1 RES1    0.0000
     28 H13        6.7712    6.0202    6.1015 H         1 RES1    0.0000
     29 C11        4.4800    7.7893    2.1857 C.3       1 RES1    0.0000
     30 H14        4.7755    8.6332    2.5866 H         1 RES1    0.0000
     31 C12        5.0884    6.6501    2.9664 C.3       1 RES1    0.0000
     32 H15        6.0417    6.5886    2.7496 H         1 RES1    0.0000
     33 C13        4.4531    5.2906    2.7797 C.3       1 RES1    0.0000
     34 H16        3.4805    5.3906    2.8453 H         1 RES1    0.0000
     35 C14        4.7744    4.5687    1.4919 C.3       1 RES1    0.0000
     36 H17        4.4338    3.6500    1.5210 H         1 RES1    0.0000
     37 C15        4.1393    5.3383    0.3227 C.3       1 RES1    0.0000
     38 H18        4.0192    4.7687   -0.4527 H         1 RES1    0.0000
     39 H19        3.2856    5.7240    0.5739 H         1 RES1    0.0000
     40 C16        5.1756    6.4073    0.0678 C.3       1 RES1    0.0000
     41 H20        5.2598    6.5400   -0.8999 H         1 RES1    0.0000
     42 C17        4.9437    7.7558    0.7265 C.3       1 RES1    0.0000
     43 H21        4.2850    8.2322    0.1980 H         1 RES1    0.0000
     44 H22        5.7718    8.2577    0.6696 H         1 RES1    0.0000
     45 C18        6.5681    3.5491    0.2142 C.3       1 RES1    0.0000
     46 H23        6.4244    2.6755    0.5860 H         1 RES1    0.0000
     47 H24        7.4936    3.6500   -0.0189 H         1 RES1    0.0000
     48 H25        6.0263    3.6551   -0.5712 H         1 RES1    0.0000
@<TRIPOS>BOND
     1    1    5 1
     2    2   17 1
     3    3   20 1
     4    4   20 1
     5    5   40 1
     6    6    7 ar
     7    7    8 1
     8    9    7 ar
     9   10    9 1
    10   11    9 ar
    11   12   11 1
    12   13   11 ar
    13   14   13 1
    14   15    6 ar
    15   16   15 1
    16   17    6 1
    17   18   17 1
    18   19   17 1
    19   20   21 1
    20   21   22 1
    21   23   21 1
    22   24   21 1
    23   25   20 1
    24   26   25 1
    25   27   25 1
    26   28   25 1
    27   29    2 1
    28   30   29 1
    29   31    3 1
    30   32   31 1
    31   33    4 1
    32   34   33 1
    33   35    1 1
    34   36   35 1
    35   37   35 1
    36   38   37 1
    37   39   37 1
    38   40   37 1
    39   41   40 1
    40   42   29 1
    41   43   42 1
    42   44   42 1
    43   45    1 1
    44   46   45 1
    45   47   45 1
    46   48   45 1
    47   13   15 ar
    48   29   31 1
    49   31   33 1
    50   33   35 1
    51   40   42 1
@<TRIPOS>SUBSTRUCTURE
     1 RES1 1

@<TRIPOS>CRYSIN
  10.2610   12.7710   13.4720  90.0000  90.0000  90.0000  19 1

