# MOL2 file generated by ConQuest
# Please check atom types

@<TRIPOS>MOLECULE
POSGIO
    44    47     1
SMALL
NO_CHARGES
****
Generated from CSD

@<TRIPOS>ATOM
      1 N1         3.7542    2.9552    7.4284 N.3       1 RES1    0.0000
      2 O1        -0.0892    4.2747   11.1640 O.3       1 RES1    0.0000
      3 O2         1.9271    5.4482   11.0718 O.3       1 RES1    0.0000
      4 O3         4.4868    4.2497    7.4644 O.3       1 RES1    0.0000
      5 C1         0.6319    5.3882   11.7285 C.3       1 RES1    0.0000
      6 C2         0.9182    5.1301   13.1994 C.3       1 RES1    0.0000
      7 H1         1.4366    4.3267   13.2871 H         1 RES1    0.0000
      8 H2         0.0900    5.0300   13.6739 H         1 RES1    0.0000
      9 H3         1.4094    5.8693   13.5637 H         1 RES1    0.0000
     10 C3        -0.1721    6.6086   11.4991 C.3       1 RES1    0.0000
     11 H4        -0.3142    6.7247   10.5568 H         1 RES1    0.0000
     12 H5         0.2963    7.3709   11.8477 H         1 RES1    0.0000
     13 H6        -1.0189    6.5226   11.9422 H         1 RES1    0.0000
     14 C4         0.8732    3.5744   10.3701 C.3       1 RES1    0.0000
     15 H7         1.4037    2.9962   10.9594 H         1 RES1    0.0000
     16 C5         0.3342    2.7421    9.2276 C.3       1 RES1    0.0000
     17 H8        -0.2056    3.2893    8.6362 H         1 RES1    0.0000
     18 H9        -0.2163    2.0188    9.5672 H         1 RES1    0.0000
     19 C6         1.5572    2.1779    8.4720 C.3       1 RES1    0.0000
     20 H10        2.0456    1.5676    9.0455 H         1 RES1    0.0000
     21 H11        1.2616    1.6867    7.6893 H         1 RES1    0.0000
     22 C7         2.4654    3.3263    8.0469 C.3       1 RES1    0.0000
     23 H12        1.9749    3.9256    7.4464 H         1 RES1    0.0000
     24 C8         2.9774    4.1146    9.2434 C.3       1 RES1    0.0000
     25 H13        3.4122    3.5024    9.8709 H         1 RES1    0.0000
     26 C9         1.7407    4.6909    9.8844 C.3       1 RES1    0.0000
     27 H14        1.2488    5.2261    9.2276 H         1 RES1    0.0000
     28 C10        4.0305    5.0010    8.5979 C.3       1 RES1    0.0000
     29 H15        3.6464    5.8463    8.3191 H         1 RES1    0.0000
     30 H16        4.7602    5.1741    9.2119 H         1 RES1    0.0000
     31 C11        3.6157    2.6741    6.0161 C.3       1 RES1    0.0000
     32 H17        3.1716    3.4214    5.5865 H         1 RES1    0.0000
     33 H18        3.0545    1.8908    5.9014 H         1 RES1    0.0000
     34 C12        4.9323    2.4340    5.3436 C.ar      1 RES1    0.0000
     35 C13        5.7377    1.3625    5.6517 C.ar      1 RES1    0.0000
     36 H19        5.4671    0.7453    6.2905 H         1 RES1    0.0000
     37 C14        6.9458    1.2065    5.0108 C.ar      1 RES1    0.0000
     38 H20        7.4884    0.4892    5.2469 H         1 RES1    0.0000
     39 C15        7.3756    2.0618    4.0415 C.ar      1 RES1    0.0000
     40 H21        8.1903    1.9328    3.6119 H         1 RES1    0.0000
     41 C16        6.5688    3.1132    3.7266 C.ar      1 RES1    0.0000
     42 H22        6.8308    3.7065    3.0586 H         1 RES1    0.0000
     43 C17        5.3800    3.3093    4.3721 C.ar      1 RES1    0.0000
     44 H23        4.8616    4.0496    4.1539 H         1 RES1    0.0000
@<TRIPOS>BOND
     1    1    4 1
     2    2    5 1
     3    3    5 1
     4    4   28 1
     5    5    6 1
     6    6    7 1
     7    8    6 1
     8    9    6 1
     9   10    5 1
    10   11   10 1
    11   12   10 1
    12   13   10 1
    13   14    2 1
    14   15   14 1
    15   16   14 1
    16   17   16 1
    17   18   16 1
    18   19   16 1
    19   20   19 1
    20   21   19 1
    21   22    1 1
    22   23   22 1
    23   24   22 1
    24   25   24 1
    25   26    3 1
    26   27   26 1
    27   28   24 1
    28   29   28 1
    29   30   28 1
    30   31    1 1
    31   32   31 1
    32   33   31 1
    33   34   31 1
    34   35   34 ar
    35   36   35 1
    36   37   35 ar
    37   38   37 1
    38   39   37 ar
    39   40   39 1
    40   41   39 ar
    41   42   41 1
    42   43   34 ar
    43   44   43 1
    44   14   26 1
    45   19   22 1
    46   24   26 1
    47   41   43 ar
@<TRIPOS>SUBSTRUCTURE
     1 RES1 1

@<TRIPOS>CRYSIN
   7.1400   10.0040   22.4900  90.0000  90.0000  90.0000  19 1

