# MOL2 file generated by ConQuest
# Please check atom types

@<TRIPOS>MOLECULE
POSRUM
    41    43     1
SMALL
USER_CHARGES
****
Generated from CSD

@<TRIPOS>ATOM
      1 O1         3.9702    9.1152    9.2745 O.3       1 RES1    0.0000
      2 O2         1.6263    2.5200    0.2066 O.2       1 RES1    0.0000
      3 O3         2.5831    4.5297    4.7911 O.2       1 RES1   -1.0000
      4 O4         7.1998    7.2955    2.8336 O.3       1 RES1    0.0000
      5 O5         5.0147    7.8161    2.9482 O.2       1 RES1    0.0000
      6 N1         3.7443    4.8645    4.3384 N.pl3     1 RES1    1.0000
      7 C1         2.6517    9.4550    9.7237 C.3       1 RES1    0.0000
      8 H1         2.1099    9.7422    8.9589 H         1 RES1    0.0000
      9 H2         2.7067   10.1836   10.3764 H         1 RES1    0.0000
     10 H3         2.2370    8.6717   10.1418 H         1 RES1    0.0000
     11 C2         4.0592    8.2124    8.2474 C.ar      1 RES1    0.0000
     12 C3         3.0065    7.4198    7.8027 C.ar      1 RES1    0.0000
     13 H4         2.1635    7.4593    8.2390 H         1 RES1    0.0000
     14 C4         3.1884    6.5713    6.7190 C.ar      1 RES1    0.0000
     15 H5         2.4678    6.0234    6.4312 H         1 RES1    0.0000
     16 C5         4.4120    6.5067    6.0427 C.ar      1 RES1    0.0000
     17 C6         4.6156    5.7047    4.8452 C.2       1 RES1    0.0000
     18 C7         4.1409    4.3010    2.9925 C.3       1 RES1    0.0000
     19 C8         3.3689    5.0794    1.9596 C.2       1 RES1    0.0000
     20 H6         3.4596    6.0254    1.9473 H         1 RES1    0.0000
     21 C9         2.5668    4.5108    1.0652 C.2       1 RES1    0.0000
     22 H7         2.1115    5.0572    0.4349 H         1 RES1    0.0000
     23 C10        2.3688    3.0516    1.0307 C.2       1 RES1    0.0000
     24 C11        5.4714    7.2905    6.5345 C.ar      1 RES1    0.0000
     25 H8         6.3184    7.2510    6.1062 H         1 RES1    0.0000
     26 C12        5.3037    8.1155    7.6284 C.ar      1 RES1    0.0000
     27 H9         6.0383    8.6186    7.9600 H         1 RES1    0.0000
     28 C13        3.8529    2.8314    2.9691 C.2       1 RES1    0.0000
     29 H10        4.2387    2.2828    3.6423 H         1 RES1    0.0000
     30 C14        3.0797    2.2583    2.0481 C.2       1 RES1    0.0000
     31 H11        2.9849    1.3126    2.0468 H         1 RES1    0.0000
     32 C15        5.6506    4.6043    2.9761 C.3       1 RES1    0.0000
     33 H12        5.9452    4.8675    2.0690 H         1 RES1    0.0000
     34 H13        6.1702    3.8127    3.2639 H         1 RES1    0.0000
     35 C16        5.8371    5.7763    3.9758 C.3       1 RES1    0.0000
     36 H14        6.6602    5.6315    4.5255 H         1 RES1    0.0000
     37 C17        5.9386    7.0899    3.2184 C.2       1 RES1    0.0000
     38 C18        7.4024    8.3822    1.9010 C.3       1 RES1    0.0000
     39 H15        6.8674    8.2256    1.0954 H         1 RES1    0.0000
     40 H16        8.3509    8.4320    1.6594 H         1 RES1    0.0000
     41 H17        7.1270    9.2253    2.3169 H         1 RES1    0.0000
@<TRIPOS>BOND
     1    1    7 1
     2    2   23 2
     3    3    6 1
     4    4   37 1
     5    5   37 2
     6    6   17 2
     7    7    8 1
     8    9    7 1
     9   10    7 1
    10   11    1 1
    11   12   11 ar
    12   13   12 1
    13   14   12 ar
    14   15   14 1
    15   16   14 ar
    16   17   16 1
    17   18    6 1
    18   19   18 1
    19   20   19 1
    20   21   19 2
    21   22   21 1
    22   23   21 1
    23   24   16 ar
    24   25   24 1
    25   26   11 ar
    26   27   26 1
    27   28   18 1
    28   29   28 1
    29   30   23 1
    30   31   30 1
    31   32   18 1
    32   33   32 1
    33   34   32 1
    34   35   17 1
    35   36   35 1
    36   37   35 1
    37   38    4 1
    38   39   38 1
    39   40   38 1
    40   41   38 1
    41   24   26 ar
    42   28   30 2
    43   32   35 1
@<TRIPOS>SUBSTRUCTURE
     1 RES1 1

@<TRIPOS>CRYSIN
   6.0916    8.7713   15.1670  80.2550  81.7030  80.1220   2 1

