# MOL2 file generated by ConQuest
# Please check atom types

@<TRIPOS>MOLECULE
POTCUX
    47    48     1
SMALL
NO_CHARGES
****
Generated from CSD

@<TRIPOS>ATOM
      1 C1         2.8101    5.0590   -1.7267 C.ar      1 RES1    0.0000
      2 C2         3.2514    4.3002   -2.7923 C.ar      1 RES1    0.0000
      3 H1         4.1292    3.9931   -2.8093 H         1 RES1    0.0000
      4 C3         0.6632    5.1470   -2.7721 C.ar      1 RES1    0.0000
      5 H2        -0.2188    5.4432   -2.7572 H         1 RES1    0.0000
      6 C4         1.5030    5.4688   -1.7267 C.ar      1 RES1    0.0000
      7 H3         1.1783    5.9697   -1.0145 H         1 RES1    0.0000
      8 C5         1.0903    4.4155   -3.8089 C.ar      1 RES1    0.0000
      9 H4         0.5124    4.1954   -4.5041 H         1 RES1    0.0000
     10 C6         2.4008    3.9972   -3.8260 C.ar      1 RES1    0.0000
     11 H5         2.7158    3.5031   -4.5477 H         1 RES1    0.0000
     12 C7         3.7251    5.3077   -0.5855 C.3       1 RES1    0.0000
     13 H6         3.5062    4.7157    0.1512 H         1 RES1    0.0000
     14 H7         4.6423    5.1396   -0.8527 H         1 RES1    0.0000
     15 O1         3.5719    6.6854   -0.1778 O.3       1 RES1    0.0000
     16 O2         4.7624    6.2401    1.6767 O.2       1 RES1    0.0000
     17 C8         4.1835    7.0004    0.9538 C.2       1 RES1    0.0000
     18 N1         4.0245    8.3326    1.2711 N.am      1 RES1    0.0000
     19 C9         5.3671   10.1884    1.2178 C.2       1 RES1    0.0000
     20 C10        4.5684   10.1839    0.1458 C.2       1 RES1    0.0000
     21 C11        5.0093    9.0314    2.1142 C.3       1 RES1    0.0000
     22 H8         5.7947    8.4605    2.2441 H         1 RES1    0.0000
     23 O3         7.0450   10.8835    2.6007 O.3       1 RES1    0.0000
     24 O4         6.7142   12.0748    0.7441 O.2       1 RES1    0.0000
     25 C12        6.4191   11.1582    1.4648 C.2       1 RES1    0.0000
     26 C13        8.1318   11.7847    2.9381 C.3       1 RES1    0.0000
     27 H9         8.9532   11.4460    2.5496 H         1 RES1    0.0000
     28 H10        7.9542   12.6520    2.5432 H         1 RES1    0.0000
     29 C14        4.4166    9.4100    3.4736 C.3       1 RES1    0.0000
     30 H11        5.0878    9.9386    3.9537 H         1 RES1    0.0000
     31 C15        3.1806   10.2525    3.3384 C.3       1 RES1    0.0000
     32 H12        2.4543    9.7082    3.0276 H         1 RES1    0.0000
     33 H13        3.3426   10.9601    2.7093 H         1 RES1    0.0000
     34 H14        2.9552   10.6295    4.1922 H         1 RES1    0.0000
     35 C16        4.1383    8.1808    4.2848 C.3       1 RES1    0.0000
     36 H15        3.4109    7.6941    3.8888 H         1 RES1    0.0000
     37 H16        3.9033    8.4343    5.1801 H         1 RES1    0.0000
     38 H17        4.9211    7.6258    4.3040 H         1 RES1    0.0000
     39 C17        8.2981   11.9273    4.2145 C.3       1 RES1    0.0000
     40 H18        9.0888   12.4542    4.3753 H         1 RES1    0.0000
     41 H19        8.3991   11.0694    4.6254 H         1 RES1    0.0000
     42 H20        7.5384   12.3787    4.5893 H         1 RES1    0.0000
     43 O5         3.6981    9.1475    0.1235 O.3       1 RES1    0.0000
     44 C18        4.4162   11.1115   -1.0060 C.3       1 RES1    0.0000
     45 H21        4.5214   10.6239   -1.8257 H         1 RES1    0.0000
     46 H22        5.0859   11.7977   -0.9549 H         1 RES1    0.0000
     47 H23        3.5440   11.5121   -0.9815 H         1 RES1    0.0000
@<TRIPOS>BOND
     1    1    2 ar
     2    2    3 1
     3    4    5 1
     4    6    1 ar
     5    7    6 1
     6    8    4 ar
     7    9    8 1
     8   10    2 ar
     9   11   10 1
    10   12    1 1
    11   13   12 1
    12   14   12 1
    13   15   12 1
    14   16   17 2
    15   17   15 1
    16   18   17 1
    17   19   20 2
    18   20   43 1
    19   21   18 1
    20   22   21 1
    21   23   25 1
    22   24   25 2
    23   25   19 1
    24   26   23 1
    25   27   26 1
    26   28   26 1
    27   29   21 1
    28   30   29 1
    29   31   29 1
    30   32   31 1
    31   33   31 1
    32   34   31 1
    33   35   29 1
    34   36   35 1
    35   37   35 1
    36   38   35 1
    37   39   26 1
    38   40   39 1
    39   41   39 1
    40   42   39 1
    41   43   18 1
    42   44   20 1
    43   45   44 1
    44   46   44 1
    45   47   44 1
    46    4    6 ar
    47    8   10 ar
    48   19   21 1
@<TRIPOS>SUBSTRUCTURE
     1 RES1 1

@<TRIPOS>CRYSIN
   8.7990   10.0310   11.4280  79.9020  69.4700  76.5330   2 1

