# MOL2 file generated by ConQuest
# Please check atom types

@<TRIPOS>MOLECULE
POTFIO
    90    96     2
SMALL
NO_CHARGES
****
Generated from CSD

@<TRIPOS>ATOM
      1 O1        -5.5748   -1.0121  -10.0089 O.3       1 RES1    0.0000
      2 O2        -7.6765    1.4341   -9.7617 O.3       1 RES1    0.0000
      3 H1        -7.5655    1.4176  -10.5740 H         1 RES1    0.0000
      4 O3        -8.2102    0.2685   -5.1072 O.2       1 RES1    0.0000
      5 O4        -5.0985   -0.3106   -5.2030 O.3       1 RES1    0.0000
      6 O5         0.6573   -7.9907   -4.3712 O.3       2 RES2    0.0000
      7 O6         3.3032   -9.0768   -2.7286 O.3       2 RES2    0.0000
      8 H2         3.6765   -8.9653   -3.4506 H         2 RES2    0.0000
      9 O7         0.7923   -8.2090    1.3719 O.2       2 RES2    0.0000
     10 O8        -1.6800   -9.3261   -0.2000 O.3       2 RES2    0.0000
     11 N1        -7.4763   -0.6796   -7.0179 N.am      1 RES1    0.0000
     12 N2        -4.5344   -0.6641   -6.5263 N.3       1 RES1    0.0000
     13 N3         0.7534   -7.7121   -0.8040 N.am      2 RES2    0.0000
     14 N4        -1.5738   -9.2622   -1.6843 N.3       2 RES2    0.0000
     15 C1        -5.0635   -0.0475  -10.9725 C.3       1 RES1    0.0000
     16 H3        -4.9002    0.7974  -10.5240 H         1 RES1    0.0000
     17 H4        -5.7300    0.1032  -11.6613 H         1 RES1    0.0000
     18 C2        -3.7788   -0.5334  -11.6140 C.ar      1 RES1    0.0000
     19 C3        -3.0923   -1.5547  -11.1031 C.ar      1 RES1    0.0000
     20 H5        -3.4297   -2.0196  -10.3713 H         1 RES1    0.0000
     21 C4        -1.8826   -1.9255  -11.6529 C.ar      1 RES1    0.0000
     22 H6        -1.4005   -2.6334  -11.2891 H         1 RES1    0.0000
     23 C5        -1.4030   -1.2605  -12.7152 C.ar      1 RES1    0.0000
     24 H7        -0.5991   -1.5336  -13.0957 H         1 RES1    0.0000
     25 C6        -2.0541   -0.2128  -13.2442 C.ar      1 RES1    0.0000
     26 H8        -1.6860    0.2622  -13.9538 H         1 RES1    0.0000
     27 C7        -3.2639    0.1452  -12.7277 C.ar      1 RES1    0.0000
     28 H9        -3.7464    0.8394  -13.1151 H         1 RES1    0.0000
     29 C8        -6.2486   -0.3983   -8.9424 C.3       1 RES1    0.0000
     30 H10       -5.7032    0.3398   -8.5994 H         1 RES1    0.0000
     31 C9        -7.6414    0.1142   -9.2549 C.3       1 RES1    0.0000
     32 H11       -8.0937   -0.4960   -9.8742 H         1 RES1    0.0000
     33 C10       -8.3556    0.1050   -7.8857 C.3       1 RES1    0.0000
     34 H12       -8.4607    1.0075   -7.5455 H         1 RES1    0.0000
     35 H13       -9.2303   -0.3078   -7.9552 H         1 RES1    0.0000
     36 C11       -6.4942   -1.3994   -7.8246 C.3       1 RES1    0.0000
     37 H14       -6.9201   -2.1968   -8.2023 H         1 RES1    0.0000
     38 C12       -5.3200   -1.8305   -6.9762 C.3       1 RES1    0.0000
     39 H15       -4.7547   -2.4681   -7.4608 H         1 RES1    0.0000
     40 C13       -5.8570   -2.4489   -5.6904 C.3       1 RES1    0.0000
     41 H16       -6.6249   -3.0189   -5.8542 H         1 RES1    0.0000
     42 H17       -5.1758   -2.9467   -5.2127 H         1 RES1    0.0000
     43 C14       -6.2381   -1.1738   -4.9725 C.3       1 RES1    0.0000
     44 C15       -7.4158   -0.4786   -5.7001 C.2       1 RES1    0.0000
     45 C16       -6.4535   -1.2624   -3.4950 C.3       1 RES1    0.0000
     46 H18       -6.6281   -0.3864   -3.1437 H         1 RES1    0.0000
     47 H19       -5.6679   -1.6241   -3.0785 H         1 RES1    0.0000
     48 H20       -7.2030   -1.8342   -3.3159 H         1 RES1    0.0000
     49 C17       -3.1309   -0.9993   -6.2444 C.3       1 RES1    0.0000
     50 H21       -3.0948   -1.7602   -5.6612 H         1 RES1    0.0000
     51 H22       -2.7018   -0.2512   -5.8223 H         1 RES1    0.0000
     52 H23       -2.6802   -1.2039   -7.0665 H         1 RES1    0.0000
     53 C18        1.3453   -8.7909   -5.2447 C.3       2 RES2    0.0000
     54 H24        1.2834   -9.7079   -4.9350 H         2 RES2    0.0000
     55 H25        2.2808   -8.5378   -5.2210 H         2 RES2    0.0000
     56 C19        0.8776   -8.7379   -6.6610 C.ar      2 RES2    0.0000
     57 C20        0.2467   -9.8002   -7.2095 C.ar      2 RES2    0.0000
     58 H26        0.0255  -10.5191   -6.6610 H         2 RES2    0.0000
     59 C21       -0.0784   -9.8641   -8.5259 C.ar      2 RES2    0.0000
     60 H27       -0.5151  -10.6077   -8.8730 H         2 RES2    0.0000
     61 C22        0.2425   -8.8420   -9.3007 C.ar      2 RES2    0.0000
     62 H28        0.0352   -8.8932  -10.2060 H         2 RES2    0.0000
     63 C23        0.8564   -7.7267   -8.8480 C.ar      2 RES2    0.0000
     64 H29        1.0538   -7.0206   -9.4201 H         2 RES2    0.0000
     65 C24        1.1833   -7.6664   -7.4914 C.ar      2 RES2    0.0000
     66 H30        1.6035   -6.9128   -7.1456 H         2 RES2    0.0000
     67 C25        0.9350   -8.3195   -3.0063 C.3       2 RES2    0.0000
     68 H31        0.7376   -9.2695   -2.8660 H         2 RES2    0.0000
     69 C26        2.3480   -8.0373   -2.5203 C.3       2 RES2    0.0000
     70 H32        2.6744   -7.2015   -2.9146 H         2 RES2    0.0000
     71 C27        2.1926   -7.8719   -1.0150 C.3       2 RES2    0.0000
     72 H33        2.5242   -8.6538   -0.5457 H         2 RES2    0.0000
     73 H34        2.6749   -7.0900   -0.7026 H         2 RES2    0.0000
     74 C28        0.0796   -7.5111   -2.0856 C.3       2 RES2    0.0000
     75 H35        0.1680   -6.5666   -2.3342 H         2 RES2    0.0000
     76 C29       -1.3900   -7.8345   -1.9732 C.3       2 RES2    0.0000
     77 H36       -1.8738   -7.5714   -2.7841 H         2 RES2    0.0000
     78 C30       -1.9194   -7.0983   -0.7540 C.3       2 RES2    0.0000
     79 H37       -1.5601   -6.1994   -0.6846 H         2 RES2    0.0000
     80 H38       -2.8898   -7.0645   -0.7401 H         2 RES2    0.0000
     81 C31       -1.3712   -8.0090    0.3097 C.3       2 RES2    0.0000
     82 C32        0.1557   -7.9587    0.3638 C.2       2 RES2    0.0000
     83 C33       -2.0091   -7.8957    1.6788 C.3       2 RES2    0.0000
     84 H39       -1.7447   -8.6447    2.2189 H         2 RES2    0.0000
     85 H40       -2.9650   -7.8893    1.5871 H         2 RES2    0.0000
     86 H41       -1.7233   -7.0818    2.0995 H         2 RES2    0.0000
     87 C34       -2.8710   -9.7774   -2.1217 C.3       2 RES2    0.0000
     88 H42       -2.8850   -9.8386   -3.0785 H         2 RES2    0.0000
     89 H43       -3.5662   -9.1836   -1.8288 H         2 RES2    0.0000
     90 H44       -3.0139  -10.6479   -1.7427 H         2 RES2    0.0000
@<TRIPOS>BOND
     1    1   15 1
     2    2    3 1
     3    4   44 2
     4    5   12 1
     5    6   53 1
     6    7    8 1
     7    9   82 2
     8   10   14 1
     9   11   33 1
    10   12   38 1
    11   13   71 1
    12   14   76 1
    13   15   16 1
    14   17   15 1
    15   18   15 1
    16   19   18 ar
    17   20   19 1
    18   21   19 ar
    19   22   21 1
    20   23   21 ar
    21   24   23 1
    22   25   23 ar
    23   26   25 1
    24   27   18 ar
    25   28   27 1
    26   29    1 1
    27   30   29 1
    28   31    2 1
    29   32   31 1
    30   33   31 1
    31   34   33 1
    32   35   33 1
    33   36   11 1
    34   37   36 1
    35   38   36 1
    36   39   38 1
    37   40   38 1
    38   41   40 1
    39   42   40 1
    40   43    5 1
    41   44   11 1
    42   45   43 1
    43   46   45 1
    44   47   45 1
    45   48   45 1
    46   49   12 1
    47   50   49 1
    48   51   49 1
    49   52   49 1
    50   53   54 1
    51   55   53 1
    52   56   53 1
    53   57   56 ar
    54   58   57 1
    55   59   57 ar
    56   60   59 1
    57   61   59 ar
    58   62   61 1
    59   63   61 ar
    60   64   63 1
    61   65   56 ar
    62   66   65 1
    63   67    6 1
    64   68   67 1
    65   69    7 1
    66   70   69 1
    67   71   69 1
    68   72   71 1
    69   73   71 1
    70   74   13 1
    71   75   74 1
    72   76   74 1
    73   77   76 1
    74   78   76 1
    75   79   78 1
    76   80   78 1
    77   81   10 1
    78   82   13 1
    79   83   81 1
    80   84   83 1
    81   85   83 1
    82   86   83 1
    83   87   14 1
    84   88   87 1
    85   89   87 1
    86   90   87 1
    87   25   27 ar
    88   29   31 1
    89   29   36 1
    90   40   43 1
    91   43   44 1
    92   63   65 ar
    93   67   69 1
    94   67   74 1
    95   78   81 1
    96   81   82 1
@<TRIPOS>SUBSTRUCTURE
     1 RES1 1
     2 RES2 6

@<TRIPOS>CRYSIN
  12.9500    9.1343   14.5330  90.0000 107.1640  90.0000   4 1

