# MOL2 file generated by ConQuest
# Please check atom types

@<TRIPOS>MOLECULE
POTGUC
    76    80     2
SMALL
NO_CHARGES
****
Generated from CSD

@<TRIPOS>ATOM
      1 C1         9.7512    1.6290   11.6002 C.3       1 RES1    0.0000
      2 H1        10.3534    0.9085   11.3214 H         1 RES1    0.0000
      3 C2         8.4989    1.0529   12.2571 C.3       1 RES1    0.0000
      4 H2         8.0632    0.4416   11.6421 H         1 RES1    0.0000
      5 H3         8.7502    0.5536   13.0493 H         1 RES1    0.0000
      6 C3         7.5328    2.1594   12.6413 C.3       1 RES1    0.0000
      7 H4         6.7370    1.7748   13.0637 H         1 RES1    0.0000
      8 C4         7.1421    2.8976   11.3968 C.3       1 RES1    0.0000
      9 C5         8.3486    3.5685   10.7578 C.3       1 RES1    0.0000
     10 H5         8.0757    4.0716    9.9632 H         1 RES1    0.0000
     11 C6         9.0761    4.4690   11.7223 C.3       1 RES1    0.0000
     12 C7         9.5221    3.7191   12.9691 C.3       1 RES1    0.0000
     13 H6         9.9684    4.3251   13.5974 H         1 RES1    0.0000
     14 C8        10.4546    2.5553   12.5755 C.3       1 RES1    0.0000
     15 C9         9.3206    2.4698   10.3760 C.3       1 RES1    0.0000
     16 H7        10.1067    2.8672    9.9692 H         1 RES1    0.0000
     17 H8         8.9058    1.8889    9.7203 H         1 RES1    0.0000
     18 C10        8.2160    3.1229   13.6034 C.3       1 RES1    0.0000
     19 H9         8.4393    2.6559   14.4231 H         1 RES1    0.0000
     20 H10        7.6071    3.8434   13.8247 H         1 RES1    0.0000
     21 N1         8.2965    5.7530   12.0788 N.pl3     1 RES1    0.0000
     22 O1         8.1219    5.9880   13.2886 O.2       1 RES1    0.0000
     23 N2        10.2482    5.1973   11.0354 N.pl3     1 RES1    0.0000
     24 O2         7.9294    6.4422   11.2197 O.2       1 RES1    0.0000
     25 N3        11.8597    2.9686   12.1303 N.pl3     1 RES1    0.0000
     26 O3        11.0251    5.7661   11.7593 O.2       1 RES1    0.0000
     27 N4        10.9005    1.7262   13.8331 N.pl3     1 RES1    0.0000
     28 O4        10.3113    5.1555    9.8160 O.2       1 RES1    0.0000
     29 N5         6.4126    1.9787   10.3844 N.pl3     1 RES1    0.0000
     30 O5        12.5371    3.5412   12.9464 O.2       1 RES1    0.0000
     31 N6         5.9792    3.9321   11.6528 N.pl3     1 RES1    0.0000
     32 O6        12.1870    2.6939   11.0174 O.2       1 RES1    0.0000
     33 O7        11.3168    0.6387   13.6405 O.2       1 RES1    0.0000
     34 O8        10.8208    2.3179   14.9185 O.2       1 RES1    0.0000
     35 O9         5.7065    1.1304   10.8355 O.2       1 RES1    0.0000
     36 O10        6.5495    2.2538    9.2237 O.2       1 RES1    0.0000
     37 O11        5.7404    4.6737   10.8116 O.2       1 RES1    0.0000
     38 O12        5.3438    3.8159   12.5910 O.2       1 RES1    0.0000
     39 N7         2.8532    2.3326    8.9233 N.pl3     2 RES2    0.0000
     40 N8         3.8681    0.0296    7.2983 N.pl3     2 RES2    0.0000
     41 N9         2.7158   -0.4405    5.3561 N.pl3     2 RES2    0.0000
     42 N10        3.1917    1.3434    3.1101 N.pl3     2 RES2    0.0000
     43 N11        4.4235    3.3350    3.5121 N.pl3     2 RES2    0.0000
     44 N12        1.0136    3.4694    8.0629 N.pl3     2 RES2    0.0000
     45 C11        3.2433    3.6891    6.8543 C.3       2 RES2    0.0000
     46 H11        3.5146    4.4202    7.4479 H         2 RES2    0.0000
     47 C12        2.2929    2.7474    7.5771 C.3       2 RES2    0.0000
     48 C13        1.8940    1.5726    6.6581 C.3       2 RES2    0.0000
     49 H12        1.2827    0.9656    7.1236 H         2 RES2    0.0000
     50 C14        3.1565    0.8095    6.1830 C.3       2 RES2    0.0000
     51 C15        4.1262    1.7030    5.4423 C.3       2 RES2    0.0000
     52 H13        4.9254    1.2107    5.1599 H         2 RES2    0.0000
     53 C16        3.4109    2.3812    4.2253 C.3       2 RES2    0.0000
     54 C17        2.1596    3.1186    4.6609 C.3       2 RES2    0.0000
     55 H14        1.7077    3.4926    3.8759 H         2 RES2    0.0000
     56 C18        2.5655    4.2438    5.6062 C.3       2 RES2    0.0000
     57 H15        3.1731    4.8470    5.1491 H         2 RES2    0.0000
     58 H16        1.7785    4.7477    5.8635 H         2 RES2    0.0000
     59 C19        4.4876    2.8809    6.3888 C.3       2 RES2    0.0000
     60 H17        5.0989    3.4778    5.9305 H         2 RES2    0.0000
     61 H18        4.9456    2.5291    7.1690 H         2 RES2    0.0000
     62 C20        1.2079    2.1805    5.4040 C.3       2 RES2    0.0000
     63 H19        0.9294    1.4664    4.8093 H         2 RES2    0.0000
     64 H20        0.4160    2.6707    5.6745 H         2 RES2    0.0000
     65 O13        2.3471    1.3882    9.4295 O.2       2 RES2    0.0000
     66 O14        3.6913    3.0468    9.4199 O.2       2 RES2    0.0000
     67 O15        3.2120   -0.7585    7.9050 O.2       2 RES2    0.0000
     68 O16        5.0594    0.1804    7.4323 O.2       2 RES2    0.0000
     69 O17        1.5184   -0.7524    5.3430 O.2       2 RES2    0.0000
     70 O18        3.5902   -0.9893    4.7734 O.2       2 RES2    0.0000
     71 O19        2.0702    1.1853    2.7343 O.2       2 RES2    0.0000
     72 O20        4.1637    0.8285    2.6194 O.2       2 RES2    0.0000
     73 O21        3.8937    4.1548    2.8241 O.2       2 RES2    0.0000
     74 O22        5.5823    3.1349    3.6557 O.2       2 RES2    0.0000
     75 O23        1.1958    4.6256    8.4483 O.2       2 RES2    0.0000
     76 O24       -0.0266    2.9029    8.0641 O.2       2 RES2    0.0000
@<TRIPOS>BOND
     1    1    2 1
     2    3    1 1
     3    4    3 1
     4    5    3 1
     5    6    3 1
     6    7    6 1
     7    8    6 1
     8    9    8 1
     9   10    9 1
    10   11    9 1
    11   12   11 1
    12   13   12 1
    13   14    1 1
    14   15    1 1
    15   16   15 1
    16   17   15 1
    17   18    6 1
    18   19   18 1
    19   20   18 1
    20   21   11 1
    21   22   21 2
    22   23   11 1
    23   24   21 2
    24   25   14 1
    25   26   23 2
    26   27   14 1
    27   28   23 2
    28   29    8 1
    29   30   25 2
    30   31    8 1
    31   32   25 2
    32   33   27 2
    33   34   27 2
    34   35   29 2
    35   36   29 2
    36   37   31 2
    37   38   31 2
    38   39   47 1
    39   40   50 1
    40   41   50 1
    41   42   53 1
    42   43   53 1
    43   44   47 1
    44   45   46 1
    45   47   45 1
    46   48   47 1
    47   49   48 1
    48   50   48 1
    49   51   50 1
    50   52   51 1
    51   53   51 1
    52   54   53 1
    53   55   54 1
    54   56   45 1
    55   57   56 1
    56   58   56 1
    57   59   45 1
    58   60   59 1
    59   61   59 1
    60   62   48 1
    61   63   62 1
    62   64   62 1
    63   65   39 2
    64   66   39 2
    65   67   40 2
    66   68   40 2
    67   69   41 2
    68   70   41 2
    69   71   42 2
    70   72   42 2
    71   73   43 2
    72   74   43 2
    73   75   44 2
    74   76   44 2
    75    9   15 1
    76   12   14 1
    77   12   18 1
    78   51   59 1
    79   54   56 1
    80   54   62 1
@<TRIPOS>SUBSTRUCTURE
     1 RES1 1
     2 RES2 39

@<TRIPOS>CRYSIN
  12.0110   21.1290   11.9670  90.0000  90.5900  90.0000  14 1

