# MOL2 file generated by ConQuest
# Please check atom types

@<TRIPOS>MOLECULE
POTKOY
   122   126     2
SMALL
NO_CHARGES
****
Generated from CSD

@<TRIPOS>ATOM
      1 O1        11.7750    8.4274   -0.9934 O.2       1 RES1    0.0000
      2 N1        11.6233    7.5946   -0.0264 N.3       1 RES1    0.0000
      3 C1        12.8650    7.0744    0.5971 C.3       1 RES1    0.0000
      4 C2        12.5084    6.5289    1.9789 C.3       1 RES1    0.0000
      5 H1        13.2780    6.0609    2.3392 H         1 RES1    0.0000
      6 H2        12.3125    7.2732    2.5687 H         1 RES1    0.0000
      7 C3        11.3340    5.5958    1.9691 C.3       1 RES1    0.0000
      8 H3        11.5397    4.7894    1.4509 H         1 RES1    0.0000
      9 C4        10.1223    6.2779    1.4188 C.3       1 RES1    0.0000
     10 H4         9.8644    6.9905    2.0258 H         1 RES1    0.0000
     11 H5         9.3927    5.6392    1.3892 H         1 RES1    0.0000
     12 C5        10.3144    6.8667    0.0222 C.3       1 RES1    0.0000
     13 O2        11.1363    5.2662    3.3682 O.3       1 RES1    0.0000
     14 C6        10.5191    4.1278    3.6865 C.2       1 RES1    0.0000
     15 O3        10.0172    3.4140    2.8648 O.2       1 RES1    0.0000
     16 C7        10.4934    3.8885    5.1374 C.ar      1 RES1    0.0000
     17 C8        10.9872    4.7671    6.0627 C.ar      1 RES1    0.0000
     18 H6        11.3422    5.5782    5.7789 H         1 RES1    0.0000
     19 C9        10.9633    4.4703    7.4099 C.ar      1 RES1    0.0000
     20 H7        11.2865    5.0949    8.0170 H         1 RES1    0.0000
     21 C10       10.4698    3.2580    7.8763 C.ar      1 RES1    0.0000
     22 C11        9.9814    2.3929    6.9411 C.ar      1 RES1    0.0000
     23 H8         9.6270    1.5806    7.2224 H         1 RES1    0.0000
     24 C12        9.9999    2.6791    5.6037 C.ar      1 RES1    0.0000
     25 H9         9.6731    2.0528    4.9992 H         1 RES1    0.0000
     26 C13       10.4671    2.9337    9.3223 C.ar      1 RES1    0.0000
     27 C14       11.0599    3.7601   10.2649 C.ar      1 RES1    0.0000
     28 H10       11.4694    4.5483    9.9885 H         1 RES1    0.0000
     29 C15       11.0502    3.4322   11.6047 C.ar      1 RES1    0.0000
     30 H11       11.4525    4.0158   12.2068 H         1 RES1    0.0000
     31 C16       10.4842    2.3073   12.0883 C.ar      1 RES1    0.0000
     32 C17        9.8880    1.5061   11.1606 C.ar      1 RES1    0.0000
     33 H12        9.4793    0.7202   11.4468 H         1 RES1    0.0000
     34 C18        9.8622    1.8158    9.8256 C.ar      1 RES1    0.0000
     35 H13        9.4154    1.2457    9.2408 H         1 RES1    0.0000
     36 C19       10.5098    1.9665   13.5466 C.3       1 RES1    0.0000
     37 H14       10.7491    2.7653   14.0426 H         1 RES1    0.0000
     38 H15        9.6146    1.7126   13.8181 H         1 RES1    0.0000
     39 C20       11.4473    0.8727   13.9365 C.3       1 RES1    0.0000
     40 H16       12.3474    1.1337   13.6848 H         1 RES1    0.0000
     41 H17       11.2234    0.0774   13.4282 H         1 RES1    0.0000
     42 C21       11.4432    0.5308   15.3751 C.3       1 RES1    0.0000
     43 H18       11.8112   -0.3789   15.8266 H         1 RES1    0.0000
     44 H19       10.5057    0.8064   15.8316 H         1 RES1    0.0000
     45 H20       12.1614    1.3226   15.5231 H         1 RES1    0.0000
     46 C22       13.8188    8.2597    0.7847 C.3       1 RES1    0.0000
     47 H21       14.6571    7.9758    1.4040 H         1 RES1    0.0000
     48 H22       13.2763    9.0620    1.2609 H         1 RES1    0.0000
     49 H23       14.1791    8.5905   -0.1777 H         1 RES1    0.0000
     50 C23       13.5223    6.0099   -0.2936 C.3       1 RES1    0.0000
     51 H24       14.4503    5.8087    0.2196 H         1 RES1    0.0000
     52 H25       13.7333    6.4450   -1.2584 H         1 RES1    0.0000
     53 H26       12.9780    5.0873   -0.4244 H         1 RES1    0.0000
     54 C24       10.2788    5.7987   -1.0660 C.3       1 RES1    0.0000
     55 H27       10.9714    5.0492   -0.7106 H         1 RES1    0.0000
     56 H28       10.6277    6.1952   -2.0061 H         1 RES1    0.0000
     57 H29        9.3050    5.3524   -1.2017 H         1 RES1    0.0000
     58 C25        9.2256    7.8855   -0.2492 C.3       1 RES1    0.0000
     59 H30        8.2532    7.4198   -0.1900 H         1 RES1    0.0000
     60 H31        9.3654    8.3048   -1.2338 H         1 RES1    0.0000
     61 H32        9.2927    8.6696    0.4910 H         1 RES1    0.0000
     62 O4         9.6859   -4.4017   21.0247 O.2       2 RES2    0.0000
     63 N2         9.3740   -3.6134   20.0609 N.3       2 RES2    0.0000
     64 C26       10.5166   -2.9976   19.3404 C.3       2 RES2    0.0000
     65 C27       10.0195   -2.4809   18.0005 C.3       2 RES2    0.0000
     66 H33        9.8468   -3.2381   17.4182 H         2 RES2    0.0000
     67 H34       10.7179   -1.9489   17.5934 H         2 RES2    0.0000
     68 C28        8.7511   -1.6363   18.0893 C.3       2 RES2    0.0000
     69 H35        8.9115   -0.8017   18.5754 H         2 RES2    0.0000
     70 C29        7.6647   -2.4422   18.7334 C.3       2 RES2    0.0000
     71 H36        7.4395   -3.1829   18.1486 H         2 RES2    0.0000
     72 H37        6.8748   -1.8850   18.8173 H         2 RES2    0.0000
     73 C30        8.0164   -2.9988   20.1127 C.3       2 RES2    0.0000
     74 O5         8.4136   -1.3806   16.6996 O.3       2 RES2    0.0000
     75 C31        7.5941   -0.4041   16.3794 C.2       2 RES2    0.0000
     76 O6         7.1252    0.3507   17.1887 O.2       2 RES2    0.0000
     77 C32        7.3239   -0.3413   14.9383 C.ar      2 RES2    0.0000
     78 C33        7.7309   -1.3443   14.0870 C.ar      2 RES2    0.0000
     79 H38        8.1850   -2.0768   14.4350 H         2 RES2    0.0000
     80 C34        7.4855   -1.2926   12.7299 C.ar      2 RES2    0.0000
     81 H39        7.7593   -1.9970   12.1870 H         2 RES2    0.0000
     82 C35        6.8393   -0.2006   12.1673 C.ar      2 RES2    0.0000
     83 C36        6.4106    0.7859   13.0235 C.ar      2 RES2    0.0000
     84 H40        5.9522    1.5196   12.6806 H         2 RES2    0.0000
     85 C37        6.6454    0.7091   14.3856 C.ar      2 RES2    0.0000
     86 H41        6.3319    1.3882   14.9383 H         2 RES2    0.0000
     87 C38        6.6489   -0.1238   10.6967 C.ar      2 RES2    0.0000
     88 C39        5.9595    0.9026   10.0946 C.ar      2 RES2    0.0000
     89 H42        5.5762    1.5660   10.6251 H         2 RES2    0.0000
     90 C40        5.8265    0.9683    8.7375 C.ar      2 RES2    0.0000
     91 H43        5.3656    1.6862    8.3649 H         2 RES2    0.0000
     92 C41        6.3478    0.0076    7.9034 C.ar      2 RES2    0.0000
     93 C42        7.0269   -0.9701    8.4956 C.ar      2 RES2    0.0000
     94 H44        7.4253   -1.6217    7.9676 H         2 RES2    0.0000
     95 C43        7.1574   -1.0551    9.8503 C.ar      2 RES2    0.0000
     96 H45        7.6155   -1.7806   10.2081 H         2 RES2    0.0000
     97 C44        6.1740    0.0000    6.4106 C.3       2 RES2    0.0000
     98 H46        5.7358   -0.8393    6.1984 H         2 RES2    0.0000
     99 H47        5.5327    0.6991    6.2132 H         2 RES2    0.0000
    100 C45        7.0115    0.1191    5.6407 C.3       2 RES2    0.0000
    101 H48        7.5739   -0.6604    5.7740 H         2 RES2    0.0000
    102 H49        7.5299    0.8721    5.9664 H         2 RES2    0.0000
    103 C46        6.9866    0.3091    4.1109 C.3       2 RES2    0.0000
    104 H50        7.7750    0.5314    3.4052 H         2 RES2    0.0000
    105 H51        6.2424    1.0897    4.0763 H         2 RES2    0.0000
    106 H52        6.5329   -0.6364    3.8567 H         2 RES2    0.0000
    107 C47        7.0238   -4.1295   20.4458 C.3       2 RES2    0.0000
    108 H53        6.0433   -3.6867   20.5174 H         2 RES2    0.0000
    109 H54        7.2617   -4.6298   21.3711 H         2 RES2    0.0000
    110 H55        7.0371   -4.8445   19.6365 H         2 RES2    0.0000
    111 C48        7.9638   -1.9372   21.1935 C.3       2 RES2    0.0000
    112 H56        6.9092   -1.7044   21.2206 H         2 RES2    0.0000
    113 H57        8.5284   -1.0275   21.0578 H         2 RES2    0.0000
    114 H58        8.2511   -2.4070   22.1213 H         2 RES2    0.0000
    115 C49       11.1370   -1.8991   20.1843 C.3       2 RES2    0.0000
    116 H59       10.4763   -1.0633   20.3718 H         2 RES2    0.0000
    117 H60       12.0207   -1.5531   19.6760 H         2 RES2    0.0000
    118 H61       11.4152   -2.3542   21.1244 H         2 RES2    0.0000
    119 C50       11.5427   -4.0556   19.0912 C.3       2 RES2    0.0000
    120 H62       12.3285   -3.6381   18.4792 H         2 RES2    0.0000
    121 H63       11.1543   -4.9454   18.6199 H         2 RES2    0.0000
    122 H64       11.9416   -4.3090   20.0634 H         2 RES2    0.0000
@<TRIPOS>BOND
     1    1    2 1
     2    2    3 1
     3    3    4 1
     4    4    5 1
     5    6    4 1
     6    7    4 1
     7    8    7 1
     8    9    7 1
     9   10    9 1
    10   11    9 1
    11   12    2 1
    12   13    7 1
    13   14   13 1
    14   15   14 2
    15   16   14 1
    16   17   16 ar
    17   18   17 1
    18   19   17 ar
    19   20   19 1
    20   21   19 ar
    21   22   21 ar
    22   23   22 1
    23   24   16 ar
    24   25   24 1
    25   26   21 1
    26   27   26 ar
    27   28   27 1
    28   29   27 ar
    29   30   29 1
    30   31   29 ar
    31   32   31 ar
    32   33   32 1
    33   34   26 ar
    34   35   34 1
    35   36   31 1
    36   37   36 1
    37   38   36 1
    38   39   36 1
    39   40   39 1
    40   41   39 1
    41   42   39 1
    42   43   42 1
    43   44   42 1
    44   45   42 1
    45   46    3 1
    46   47   46 1
    47   48   46 1
    48   49   46 1
    49   50    3 1
    50   51   50 1
    51   52   50 1
    52   53   50 1
    53   54   12 1
    54   55   54 1
    55   56   54 1
    56   57   54 1
    57   58   12 1
    58   59   58 1
    59   60   58 1
    60   61   58 1
    61   62   63 1
    62   63   64 1
    63   64   65 1
    64   65   66 1
    65   67   65 1
    66   68   65 1
    67   69   68 1
    68   70   68 1
    69   71   70 1
    70   72   70 1
    71   73   63 1
    72   74   68 1
    73   75   74 1
    74   76   75 2
    75   77   75 1
    76   78   77 ar
    77   79   78 1
    78   80   78 ar
    79   81   80 1
    80   82   80 ar
    81   83   82 ar
    82   84   83 1
    83   85   77 ar
    84   86   85 1
    85   87   82 1
    86   88   87 ar
    87   89   88 1
    88   90   88 ar
    89   91   90 1
    90   92   90 ar
    91   93   92 ar
    92   94   93 1
    93   95   87 ar
    94   96   95 1
    95   97   92 1
    96   98   97 1
    97   99   97 1
    98  100   97 1
    99  101  100 1
   100  102  100 1
   101  103  100 1
   102  104  103 1
   103  105  103 1
   104  106  103 1
   105  107   73 1
   106  108  107 1
   107  109  107 1
   108  110  107 1
   109  111   73 1
   110  112  111 1
   111  113  111 1
   112  114  111 1
   113  115   64 1
   114  116  115 1
   115  117  115 1
   116  118  115 1
   117  119   64 1
   118  120  119 1
   119  121  119 1
   120  122  119 1
   121    9   12 1
   122   22   24 ar
   123   32   34 ar
   124   70   73 1
   125   83   85 ar
   126   93   95 ar
@<TRIPOS>SUBSTRUCTURE
     1 RES1 1
     2 RES2 62

@<TRIPOS>CRYSIN
  31.2040    5.8650   25.3110  90.0000 102.8700  90.0000   5 1

