# MOL2 file generated by ConQuest
# Please check atom types

@<TRIPOS>MOLECULE
POTKUE
    83    86     1
SMALL
NO_CHARGES
****
Generated from CSD

@<TRIPOS>ATOM
      1 N1        -3.5748   11.4939   10.0629 N.3       1 RES1    0.0000
      2 O1        -4.1941   10.6007   10.7413 O.2       1 RES1    0.0000
      3 O2        -1.5602   14.3988    7.8472 O.3       1 RES1    0.0000
      4 O3         0.4664   14.6357    8.7825 O.2       1 RES1    0.0000
      5 C1        -3.2258   11.1245    8.6714 C.3       1 RES1    0.0000
      6 C2        -2.8039   12.3904    7.9141 C.3       1 RES1    0.0000
      7 H1        -2.3992   12.1321    7.0709 H         1 RES1    0.0000
      8 H2        -3.5941   12.9158    7.7135 H         1 RES1    0.0000
      9 C3        -1.8333   13.2433    8.6785 C.3       1 RES1    0.0000
     10 H3        -1.0070   12.7461    8.8553 H         1 RES1    0.0000
     11 C4        -2.4584   13.6837    9.9613 C.3       1 RES1    0.0000
     12 H4        -3.2424   14.2187    9.7607 H         1 RES1    0.0000
     13 H5        -1.8304   14.2486   10.4379 H         1 RES1    0.0000
     14 C5        -2.8689   12.5318   10.8667 C.3       1 RES1    0.0000
     15 C6        -0.3484   15.0020    7.9906 C.2       1 RES1    0.0000
     16 C7        -0.1980   16.1341    7.0697 C.ar      1 RES1    0.0000
     17 C8         1.0371   16.7747    7.0052 C.ar      1 RES1    0.0000
     18 H6         1.7260   16.5040    7.5678 H         1 RES1    0.0000
     19 C9         1.2477   17.7997    6.1213 C.ar      1 RES1    0.0000
     20 H7         2.0834   18.2054    6.0986 H         1 RES1    0.0000
     21 C10        0.2626   18.2542    5.2625 C.ar      1 RES1    0.0000
     22 C11       -0.9842   17.6281    5.3569 C.ar      1 RES1    0.0000
     23 H8        -1.6795   17.9194    4.8123 H         1 RES1    0.0000
     24 C12       -1.2091   16.5963    6.2312 C.ar      1 RES1    0.0000
     25 H9        -2.0493   16.1990    6.2647 H         1 RES1    0.0000
     26 C13        0.5159   19.2965    4.2676 C.ar      1 RES1    0.0000
     27 C14        1.7407   19.3400    3.5892 C.ar      1 RES1    0.0000
     28 H10        2.3973   18.7115    3.7875 H         1 RES1    0.0000
     29 C15        1.9850   20.2933    2.6396 C.ar      1 RES1    0.0000
     30 H11        2.8040   20.2804    2.2001 H         1 RES1    0.0000
     31 C16        1.0757   21.2707    2.3028 C.ar      1 RES1    0.0000
     32 C17       -0.1422   21.2332    2.9908 C.ar      1 RES1    0.0000
     33 H12       -0.7874   21.8771    2.8033 H         1 RES1    0.0000
     34 C18       -0.4139   20.2723    3.9368 C.ar      1 RES1    0.0000
     35 H13       -1.2398   20.2763    4.3644 H         1 RES1    0.0000
     36 C19        1.3379   22.3158    1.2577 C.3       1 RES1    0.0000
     37 H14        0.8704   23.1269    1.5491 H         1 RES1    0.0000
     38 C20        0.7642   21.9484   -0.0908 C.3       1 RES1    0.0000
     39 H15       -0.1843   21.7687    0.0036 H         1 RES1    0.0000
     40 H16        1.1909   21.1373   -0.4085 H         1 RES1    0.0000
     41 C21        0.9628   23.0475   -1.1108 C.3       1 RES1    0.0000
     42 H17        0.4447   23.8227   -0.8432 H         1 RES1    0.0000
     43 H18        0.6229   22.7461   -1.9684 H         1 RES1    0.0000
     44 C22        2.4230   23.4605   -1.2756 C.3       1 RES1    0.0000
     45 H19        2.9144   22.6901   -1.6304 H         1 RES1    0.0000
     46 C23        3.0075   23.8005    0.0764 C.3       1 RES1    0.0000
     47 H20        3.9562   23.9766   -0.0239 H         1 RES1    0.0000
     48 H21        2.5883   24.6099    0.4085 H         1 RES1    0.0000
     49 C24        2.8147   22.6982    1.0857 C.3       1 RES1    0.0000
     50 H22        3.1712   22.9842    1.9409 H         1 RES1    0.0000
     51 H23        3.3142   21.9166    0.8014 H         1 RES1    0.0000
     52 C25        2.5445   24.5987   -2.2873 C.3       1 RES1    0.0000
     53 H24        2.0883   24.3311   -3.1007 H         1 RES1    0.0000
     54 H25        2.0759   25.3702   -1.9325 H         1 RES1    0.0000
     55 C26        3.9483   25.0261   -2.6540 C.3       1 RES1    0.0000
     56 H26        4.4353   24.2514   -2.9765 H         1 RES1    0.0000
     57 H27        4.3967   25.3420   -1.8537 H         1 RES1    0.0000
     58 C27        4.0107   26.1119   -3.7074 C.3       1 RES1    0.0000
     59 H28        3.4946   26.8775   -3.4041 H         1 RES1    0.0000
     60 H29        3.6012   25.7856   -4.5232 H         1 RES1    0.0000
     61 C28        5.4505   26.5713   -4.0192 C.3       1 RES1    0.0000
     62 H30        5.8270   26.9701   -3.2189 H         1 RES1    0.0000
     63 H31        5.9838   25.7896   -4.2342 H         1 RES1    0.0000
     64 C29        5.5651   27.5060   -5.0846 C.3       1 RES1    0.0000
     65 H32        6.4882   27.7437   -5.2052 H         1 RES1    0.0000
     66 H33        5.0577   28.2916   -4.8768 H         1 RES1    0.0000
     67 H34        5.2283   27.1111   -5.8932 H         1 RES1    0.0000
     68 C30       -1.6480   11.9037   11.5654 C.3       1 RES1    0.0000
     69 H35       -1.0276   11.5890   10.9049 H         1 RES1    0.0000
     70 H36       -1.9356   11.1676   12.1113 H         1 RES1    0.0000
     71 H37       -1.2209   12.5628   12.1172 H         1 RES1    0.0000
     72 C31       -3.8512   13.0290   11.9058 C.3       1 RES1    0.0000
     73 H38       -4.1095   12.3009   12.4768 H         1 RES1    0.0000
     74 H39       -4.6282   13.3835   11.4687 H         1 RES1    0.0000
     75 H40       -3.4385   13.7171   12.4338 H         1 RES1    0.0000
     76 C32       -2.1238   10.0818    8.6762 C.3       1 RES1    0.0000
     77 H41       -1.3417   10.4444    9.0978 H         1 RES1    0.0000
     78 H42       -1.9139    9.8336    7.7732 H         1 RES1    0.0000
     79 H43       -2.4183    9.3070    9.1611 H         1 RES1    0.0000
     80 C33       -4.4566   10.5254    8.0001 C.3       1 RES1    0.0000
     81 H44       -5.1628   11.1760    7.9870 H         1 RES1    0.0000
     82 H45       -4.7438    9.7518    8.4898 H         1 RES1    0.0000
     83 H46       -4.2391   10.2715    7.1007 H         1 RES1    0.0000
@<TRIPOS>BOND
     1    1    2 1
     2    3    9 1
     3    4   15 2
     4    5    1 1
     5    6    5 1
     6    7    6 1
     7    8    6 1
     8    9    6 1
     9   10    9 1
    10   11    9 1
    11   12   11 1
    12   13   11 1
    13   14    1 1
    14   15    3 1
    15   16   15 1
    16   17   16 ar
    17   18   17 1
    18   19   17 ar
    19   20   19 1
    20   21   19 ar
    21   22   21 ar
    22   23   22 1
    23   24   16 ar
    24   25   24 1
    25   26   21 1
    26   27   26 ar
    27   28   27 1
    28   29   27 ar
    29   30   29 1
    30   31   29 ar
    31   32   31 ar
    32   33   32 1
    33   34   26 ar
    34   35   34 1
    35   36   31 1
    36   37   36 1
    37   38   36 1
    38   39   38 1
    39   40   38 1
    40   41   38 1
    41   42   41 1
    42   43   41 1
    43   44   41 1
    44   45   44 1
    45   46   44 1
    46   47   46 1
    47   48   46 1
    48   49   36 1
    49   50   49 1
    50   51   49 1
    51   52   44 1
    52   53   52 1
    53   54   52 1
    54   55   52 1
    55   56   55 1
    56   57   55 1
    57   58   55 1
    58   59   58 1
    59   60   58 1
    60   61   58 1
    61   62   61 1
    62   63   61 1
    63   64   61 1
    64   65   64 1
    65   66   64 1
    66   67   64 1
    67   68   14 1
    68   69   68 1
    69   70   68 1
    70   71   68 1
    71   72   14 1
    72   73   72 1
    73   74   72 1
    74   75   72 1
    75   76    5 1
    76   77   76 1
    77   78   76 1
    78   79   76 1
    79   80    5 1
    80   81   80 1
    81   82   80 1
    82   83   80 1
    83   11   14 1
    84   22   24 ar
    85   32   34 ar
    86   46   49 1
@<TRIPOS>SUBSTRUCTURE
     1 RES1 1

@<TRIPOS>CRYSIN
   6.1530   40.2900   12.3140  90.0000 104.0800  90.0000  14 1

