# MOL2 file generated by ConQuest
# Please check atom types

@<TRIPOS>MOLECULE
POVCIO
   100   104     2
SMALL
NO_CHARGES
****
Generated from CSD

@<TRIPOS>ATOM
      1 C1        13.3796    3.0249    7.2310 C.ar      1 RES1    0.0000
      2 C2        13.0337    4.1736    7.9095 C.ar      1 RES1    0.0000
      3 H1        13.3949    5.0293    7.7091 H         1 RES1    0.0000
      4 C3        12.0990    3.9503    8.9153 C.ar      1 RES1    0.0000
      5 C4        11.5804    2.7098    9.2366 C.ar      1 RES1    0.0000
      6 H2        10.9450    2.6324    9.9369 H         1 RES1    0.0000
      7 C5        11.9839    1.5721    8.5403 C.ar      1 RES1    0.0000
      8 H3        11.6566    0.7076    8.7585 H         1 RES1    0.0000
      9 C6        12.8810    1.7712    7.5147 C.ar      1 RES1    0.0000
     10 C7        14.1473    1.5920    5.8126 C.2       1 RES1    0.0000
     11 C8        14.8934    1.1255    4.6064 C.3       1 RES1    0.0000
     12 H4        14.6716    0.1570    4.4914 H         1 RES1    0.0000
     13 C9        16.3989    1.2073    4.8326 C.3       1 RES1    0.0000
     14 H5        16.6563    2.1404    4.9833 H         1 RES1    0.0000
     15 H6        16.8662    0.8613    4.0450 H         1 RES1    0.0000
     16 H7        16.6414    0.6711    5.6162 H         1 RES1    0.0000
     17 C10       14.4092    1.8474    3.3249 C.3       1 RES1    0.0000
     18 H8        14.7216    2.7971    3.3626 H         1 RES1    0.0000
     19 C11       15.0298    1.1885    2.0870 C.ar      1 RES1    0.0000
     20 C12       15.6478    1.9547    1.1228 C.ar      1 RES1    0.0000
     21 H9        15.7025    2.8966    1.2359 H         1 RES1    0.0000
     22 C13       16.1938    1.3676   -0.0139 C.ar      1 RES1    0.0000
     23 H10       16.6347    1.8939   -0.6705 H         1 RES1    0.0000
     24 C14       16.0801    0.0122   -0.1567 C.ar      1 RES1    0.0000
     25 C15       15.4374   -0.7750    0.7538 C.ar      1 RES1    0.0000
     26 H11       15.3543   -1.7115    0.6130 H         1 RES1    0.0000
     27 C16       14.9058   -0.1780    1.8886 C.ar      1 RES1    0.0000
     28 H12       14.4525   -0.7098    2.5333 H         1 RES1    0.0000
     29 C17       12.8764    1.8519    3.1384 C.3       1 RES1    0.0000
     30 H13       12.6765    2.1249    2.2080 H         1 RES1    0.0000
     31 H14       12.5447    0.9265    3.2535 H         1 RES1    0.0000
     32 C18       12.1132    2.7419    4.0629 C.2       1 RES1    0.0000
     33 H15       12.3662    3.6573    4.0966 H         1 RES1    0.0000
     34 C19       11.1214    2.3660    4.8286 C.2       1 RES1    0.0000
     35 H16       10.8895    1.4450    4.8484 H         1 RES1    0.0000
     36 C20       10.3500    3.3013    5.6658 C.2       1 RES1    0.0000
     37 C21        8.5514    3.4284    7.2191 C.3       1 RES1    0.0000
     38 H17        9.1038    3.8331    7.9214 H         1 RES1    0.0000
     39 H18        7.8684    2.8580    7.6298 H         1 RES1    0.0000
     40 H19        8.1178    4.1349    6.6974 H         1 RES1    0.0000
     41 N1        11.6069    5.0990    9.6691 N.pl3     1 RES1    0.0000
     42 N2        13.4161    0.8646    6.5769 N.2       1 RES1    0.0000
     43 N3        16.6786   -0.6224   -1.3391 N.pl3     1 RES1    0.0000
     44 O1        12.1493    6.1780    9.5017 O.2       1 RES1    0.0000
     45 O2        10.6671    4.9442   10.4494 O.2       1 RES1    0.0000
     46 O3        14.2323    2.9265    6.1463 O.3       1 RES1    0.0000
     47 O4        17.2575    0.0741   -2.1576 O.2       1 RES1    0.0000
     48 O5        16.5806   -1.8497   -1.4307 O.2       1 RES1    0.0000
     49 O6        10.5161    4.4854    5.7796 O.2       1 RES1    0.0000
     50 O7         9.3929    2.6236    6.3431 O.3       1 RES1    0.0000
     51 C22       15.8641    7.9005    4.1720 C.ar      2 RES2    0.0000
     52 C23       16.9036    8.1139    3.2971 C.ar      2 RES2    0.0000
     53 H20       17.1132    8.9840    2.9777 H         2 RES2    0.0000
     54 C24       17.6295    7.0117    2.9083 C.ar      2 RES2    0.0000
     55 H21       18.3468    7.1100    2.2953 H         2 RES2    0.0000
     56 C25       17.3177    5.7623    3.4082 C.ar      2 RES2    0.0000
     57 C26       16.2870    5.5058    4.3029 C.ar      2 RES2    0.0000
     58 H22       16.0809    4.6391    4.6302 H         2 RES2    0.0000
     59 C27       15.6026    6.6358    4.6640 C.ar      2 RES2    0.0000
     60 C28       14.1722    8.0664    5.4595 C.2       2 RES2    0.0000
     61 C29       13.0218    8.5263    6.2748 C.3       2 RES2    0.0000
     62 H23       12.8516    9.4782    6.0209 H         2 RES2    0.0000
     63 C30       13.4054    8.5318    7.7408 C.3       2 RES2    0.0000
     64 H24       13.6508    7.6253    8.0186 H         2 RES2    0.0000
     65 H25       12.6458    8.8436    8.2765 H         2 RES2    0.0000
     66 H26       14.1679    9.1322    7.8757 H         2 RES2    0.0000
     67 C31       11.7309    7.7546    5.9673 C.3       2 RES2    0.0000
     68 H27       11.8393    6.8160    6.2946 H         2 RES2    0.0000
     69 C32       10.5578    8.3881    6.7132 C.ar      2 RES2    0.0000
     70 C33        9.7097    7.6098    7.4889 C.ar      2 RES2    0.0000
     71 H28        9.8672    6.6756    7.5603 H         2 RES2    0.0000
     72 C34        8.6380    8.1692    8.1594 C.ar      2 RES2    0.0000
     73 H29        8.0741    7.6363    8.7070 H         2 RES2    0.0000
     74 C35        8.4129    9.5180    8.0126 C.ar      2 RES2    0.0000
     75 C36        9.2161   10.3317    7.2350 C.ar      2 RES2    0.0000
     76 H30        9.0372   11.2604    7.1477 H         2 RES2    0.0000
     77 C37       10.2858    9.7469    6.5883 C.ar      2 RES2    0.0000
     78 H31       10.8497   10.2842    6.0447 H         2 RES2    0.0000
     79 C38       11.3746    7.7071    4.4656 C.3       2 RES2    0.0000
     80 H32       10.4374    7.4041    4.3723 H         2 RES2    0.0000
     81 H33       11.4300    8.6258    4.0986 H         2 RES2    0.0000
     82 C39       12.2446    6.8193    3.6502 C.2       2 RES2    0.0000
     83 H34       12.3102    5.9149    3.9339 H         2 RES2    0.0000
     84 C40       12.9246    7.1454    2.5889 C.2       2 RES2    0.0000
     85 H35       12.8878    8.0465    2.2893 H         2 RES2    0.0000
     86 C41       13.7420    6.2001    1.8350 C.2       2 RES2    0.0000
     87 C42       15.3123    5.9182    0.0913 C.3       2 RES2    0.0000
     88 H36       15.9573    5.4826    0.6884 H         2 RES2    0.0000
     89 H37       15.7947    6.4423   -0.5832 H         2 RES2    0.0000
     90 H38       14.7666    5.2372   -0.3551 H         2 RES2    0.0000
     91 N4        18.1020    4.6236    2.9202 N.pl3     2 RES2    0.0000
     92 N5        14.9230    8.7961    4.7080 N.2       2 RES2    0.0000
     93 N6         7.3065   10.1537    8.7466 N.pl3     2 RES2    0.0000
     94 O8        17.6585    3.4970    3.0828 O.2       2 RES2    0.0000
     95 O9        19.1887    4.8569    2.3786 O.2       2 RES2    0.0000
     96 O10       14.5184    6.7297    5.5227 O.3       2 RES2    0.0000
     97 O11        6.7130    9.4860    9.5826 O.2       2 RES2    0.0000
     98 O12        7.0125   11.3157    8.4667 O.2       2 RES2    0.0000
     99 O13       13.8226    5.0061    2.0513 O.2       2 RES2    0.0000
    100 O14       14.4462    6.8060    0.8707 O.3       2 RES2    0.0000
@<TRIPOS>BOND
     1    1    2 ar
     2    2    3 1
     3    4    2 ar
     4    5    4 ar
     5    6    5 1
     6    7    5 ar
     7    8    7 1
     8    9    1 ar
     9   10   11 1
    10   11   12 1
    11   13   11 1
    12   14   13 1
    13   15   13 1
    14   16   13 1
    15   17   11 1
    16   18   17 1
    17   19   17 1
    18   20   19 ar
    19   21   20 1
    20   22   20 ar
    21   23   22 1
    22   24   22 ar
    23   25   24 ar
    24   26   25 1
    25   27   19 ar
    26   28   27 1
    27   29   17 1
    28   30   29 1
    29   31   29 1
    30   32   29 1
    31   33   32 1
    32   34   32 2
    33   35   34 1
    34   36   34 1
    35   37   38 1
    36   39   37 1
    37   40   37 1
    38   41    4 1
    39   42    9 1
    40   43   24 1
    41   44   41 2
    42   45   41 2
    43   46    1 1
    44   47   43 2
    45   48   43 2
    46   49   36 2
    47   50   36 1
    48   51   52 ar
    49   52   53 1
    50   54   52 ar
    51   55   54 1
    52   56   54 ar
    53   57   56 ar
    54   58   57 1
    55   59   51 ar
    56   60   61 1
    57   61   62 1
    58   63   61 1
    59   64   63 1
    60   65   63 1
    61   66   63 1
    62   67   61 1
    63   68   67 1
    64   69   67 1
    65   70   69 ar
    66   71   70 1
    67   72   70 ar
    68   73   72 1
    69   74   72 ar
    70   75   74 ar
    71   76   75 1
    72   77   69 ar
    73   78   77 1
    74   79   67 1
    75   80   79 1
    76   81   79 1
    77   82   79 1
    78   83   82 1
    79   84   82 2
    80   85   84 1
    81   86   84 1
    82   87   88 1
    83   89   87 1
    84   90   87 1
    85   91   56 1
    86   92   51 1
    87   93   74 1
    88   94   91 2
    89   95   91 2
    90   96   59 1
    91   97   93 2
    92   98   93 2
    93   99   86 2
    94  100   86 1
    95    7    9 ar
    96   10   42 2
    97   10   46 1
    98   25   27 ar
    99   37   50 1
   100   57   59 ar
   101   60   92 2
   102   60   96 1
   103   75   77 ar
   104   87  100 1
@<TRIPOS>SUBSTRUCTURE
     1 RES1 1
     2 RES2 51

@<TRIPOS>CRYSIN
  17.9690   11.0559   19.8390  90.0000  90.5280  90.0000   5 1

