# MOL2 file generated by ConQuest
# Please check atom types

@<TRIPOS>MOLECULE
POVLAP
    19    19     1
SMALL
NO_CHARGES
****
Generated from CSD

@<TRIPOS>ATOM
      1 O1         4.4462    0.9047    4.8543 O.3       1 RES1    0.0000
      2 O2         6.6625   -4.1467    3.5404 O.3       1 RES1    0.0000
      3 N1         5.6220   -3.2621    3.9262 N.2       1 RES1    0.0000
      4 N2         7.4350   -1.9705    4.6880 N.3       1 RES1    0.0000
      5 N3         5.5701    0.1183    4.7210 N.2       1 RES1    0.0000
      6 C1         6.1223   -2.2027    4.4686 C.2       1 RES1    0.0000
      7 C2         5.1606   -1.1200    4.7631 C.2       1 RES1    0.0000
      8 H1         7.6921   -1.2041    4.9579 H         1 RES1    0.0000
      9 H2         8.0583   -2.6222    4.4401 H         1 RES1    0.0000
     10 H3         6.1870   -4.6825    3.1650 H         1 RES1    0.0000
     11 O2A        2.2299   -4.1467    6.1682 O.3       1 RES1    0.0000
     12 N1A        3.2705   -3.2621    5.7825 N.2       1 RES1    0.0000
     13 N2A        1.4574   -1.9705    5.0207 N.3       1 RES1    0.0000
     14 N3A        3.3223    0.1183    4.9876 N.2       1 RES1    0.0000
     15 C1A        2.7702   -2.2027    5.2401 C.2       1 RES1    0.0000
     16 C2A        3.7318   -1.1200    4.9456 C.2       1 RES1    0.0000
     17 H1A        1.2003   -1.2041    4.7508 H         1 RES1    0.0000
     18 H2A        0.8342   -2.6222    5.2686 H         1 RES1    0.0000
     19 H3A        2.7054   -4.6825    6.5436 H         1 RES1    0.0000
@<TRIPOS>BOND
     1    1    5 1
     2    2    3 1
     3    3    6 2
     4    4    6 1
     5    5    7 2
     6    6    7 1
     7    7   16 1
     8    8    4 1
     9    9    4 1
    10   10    2 1
    11   11   12 1
    12   12   15 2
    13   13   15 1
    14   14    1 1
    15   15   16 1
    16   16   14 2
    17   17   13 1
    18   18   13 1
    19   19   11 1
@<TRIPOS>SUBSTRUCTURE
     1 RES1 1

@<TRIPOS>CRYSIN
  12.8440    8.9190    6.9880  90.0000 112.1470  90.0000  15 1

