# MOL2 file generated by ConQuest
# Please check atom types

@<TRIPOS>MOLECULE
POVMAO
    52    52     2
SMALL
NO_CHARGES
****
Generated from CSD

@<TRIPOS>ATOM
      1 O1        12.3031    2.0639    1.3144 O.2       1 RES1    0.0000
      2 O2        10.4824    2.6290    0.1795 O.3       1 RES1    0.0000
      3 H1        11.0155    3.1227   -0.2000 H         1 RES1    0.0000
      4 O3        14.4828    0.4592    3.7383 O.2       1 RES1    0.0000
      5 N1        12.1067    0.1359    3.1265 N.pl3     1 RES1    0.0000
      6 H2        12.6243    0.7178    2.7615 H         1 RES1    0.0000
      7 N2        12.5701   -0.6842    4.0691 N.2       1 RES1    0.0000
      8 N3        13.7852   -0.4497    4.3267 N.pl3     1 RES1    0.0000
      9 C1        11.1227    1.8915    1.0753 C.2       1 RES1    0.0000
     10 C2        10.2677    0.8883    1.7418 C.ar      1 RES1    0.0000
     11 C3         8.9260    0.7541    1.3710 C.ar      1 RES1    0.0000
     12 H3         8.5804    1.3121    0.7114 H         1 RES1    0.0000
     13 C4         8.1057   -0.1747    1.9545 C.ar      1 RES1    0.0000
     14 H4         7.2198   -0.2577    1.6842 H         1 RES1    0.0000
     15 C5         8.6161   -0.9862    2.9518 C.ar      1 RES1    0.0000
     16 H5         8.0600   -1.6040    3.3685 H         1 RES1    0.0000
     17 C6         9.9250   -0.8925    3.3324 C.ar      1 RES1    0.0000
     18 H6        10.2548   -1.4549    3.9959 H         1 RES1    0.0000
     19 C7        10.7726    0.0383    2.7381 C.ar      1 RES1    0.0000
     20 C8        14.4635   -1.2823    5.3552 C.3       1 RES1    0.0000
     21 H7        14.7495   -0.7029    6.0792 H         1 RES1    0.0000
     22 H8        15.2620   -1.6679    4.9600 H         1 RES1    0.0000
     23 C9        13.6432   -2.3857    5.9309 C.3       1 RES1    0.0000
     24 H9        14.1874   -2.9118    6.5222 H         1 RES1    0.0000
     25 H10       13.3115   -2.9417    5.2225 H         1 RES1    0.0000
     26 H11       12.9063   -2.0151    6.4198 H         1 RES1    0.0000
     27 O4        14.3406    2.3141    6.4608 O.2       2 RES2    0.0000
     28 O5        16.1027    1.9062    5.1825 O.3       2 RES2    0.0000
     29 H12       15.5738    1.3888    4.8302 H         2 RES2    0.0000
     30 O6        12.0608    4.1765    8.4631 O.2       2 RES2    0.0000
     31 N4        14.4875    4.4170    8.0523 N.pl3     2 RES2    0.0000
     32 H13       13.9828    3.8257    7.6844 H         2 RES2    0.0000
     33 N5        13.9648    5.3125    8.8817 N.2       2 RES2    0.0000
     34 N6        12.7208    5.1208    9.0535 N.pl3     2 RES2    0.0000
     35 C10       15.5122    2.5284    6.1807 C.2       2 RES2    0.0000
     36 C11       16.3806    3.4891    6.8774 C.ar      2 RES2    0.0000
     37 C12       17.7546    3.4827    6.6637 C.ar      2 RES2    0.0000
     38 H14       18.1221    2.8501    6.0890 H         2 RES2    0.0000
     39 C13       18.5769    4.3880    7.2804 C.ar      2 RES2    0.0000
     40 H15       19.4946    4.3646    7.1292 H         2 RES2    0.0000
     41 C14       18.0407    5.3316    8.1226 C.ar      2 RES2    0.0000
     42 H16       18.5988    5.9558    8.5304 H         2 RES2    0.0000
     43 C15       16.6940    5.3636    8.3665 C.ar      2 RES2    0.0000
     44 H17       16.3444    6.0133    8.9325 H         2 RES2    0.0000
     45 C16       15.8439    4.4349    7.7801 C.ar      2 RES2    0.0000
     46 C17       11.9887    6.0708    9.9151 C.3       2 RES2    0.0000
     47 H18       11.5299    5.5830   10.6177 H         2 RES2    0.0000
     48 H19       12.6183    6.6800   10.3318 H         2 RES2    0.0000
     49 C18       11.0095    6.8376    9.1296 C.3       2 RES2    0.0000
     50 H20       10.4673    7.3659    9.7209 H         2 RES2    0.0000
     51 H21       10.4494    6.2327    8.6368 H         2 RES2    0.0000
     52 H22       11.4703    7.4149    8.5178 H         2 RES2    0.0000
@<TRIPOS>BOND
     1    1    9 2
     2    2    3 1
     3    4    8 1
     4    5    6 1
     5    7    5 1
     6    8    7 2
     7    9    2 1
     8   10    9 1
     9   11   10 ar
    10   12   11 1
    11   13   11 ar
    12   14   13 1
    13   15   13 ar
    14   16   15 1
    15   17   15 ar
    16   18   17 1
    17   19    5 1
    18   20    8 1
    19   21   20 1
    20   22   20 1
    21   23   20 1
    22   24   23 1
    23   25   23 1
    24   26   23 1
    25   27   35 2
    26   28   29 1
    27   30   34 1
    28   31   32 1
    29   33   31 1
    30   34   33 2
    31   35   28 1
    32   36   35 1
    33   37   36 ar
    34   38   37 1
    35   39   37 ar
    36   40   39 1
    37   41   39 ar
    38   42   41 1
    39   43   41 ar
    40   44   43 1
    41   45   31 1
    42   46   34 1
    43   47   46 1
    44   48   46 1
    45   49   46 1
    46   50   49 1
    47   51   49 1
    48   52   49 1
    49   10   19 ar
    50   17   19 ar
    51   36   45 ar
    52   43   45 ar
@<TRIPOS>SUBSTRUCTURE
     1 RES1 1
     2 RES2 27

@<TRIPOS>CRYSIN
  19.8620   21.3010    9.7580  90.0000  90.0000  90.0000  61 1

