# MOL2 file generated by ConQuest
# Please check atom types

@<TRIPOS>MOLECULE
POWDEL
    48    50     1
SMALL
NO_CHARGES
****
Generated from CSD

@<TRIPOS>ATOM
      1 N1         4.4925    3.6634    5.6866 N.pl3     1 RES1    0.0000
      2 N2         4.6074    4.9935    5.3497 N.2       1 RES1    0.0000
      3 C1         5.5751    5.4432    6.1250 C.2       1 RES1    0.0000
      4 C2         6.0809    4.4426    6.9657 C.2       1 RES1    0.0000
      5 H1         6.7783    4.5257    7.6052 H         1 RES1    0.0000
      6 C3         5.3550    3.3218    6.6710 C.2       1 RES1    0.0000
      7 C4         3.5331    2.8597    5.0383 C.ar      1 RES1    0.0000
      8 C5         3.8641    1.5809    4.6430 C.ar      1 RES1    0.0000
      9 H2         4.7375    1.2436    4.8051 H         1 RES1    0.0000
     10 C6         2.9278    0.7960    4.0130 C.ar      1 RES1    0.0000
     11 H3         3.1493   -0.0930    3.7621 H         1 RES1    0.0000
     12 C7         1.6748    1.2883    3.7442 C.ar      1 RES1    0.0000
     13 H4         1.0323    0.7439    3.3048 H         1 RES1    0.0000
     14 C8         1.3530    2.5765    4.1144 C.ar      1 RES1    0.0000
     15 H5         0.4927    2.9262    3.9135 H         1 RES1    0.0000
     16 C9         2.2753    3.3626    4.7763 C.ar      1 RES1    0.0000
     17 H6         2.0459    4.2430    5.0498 H         1 RES1    0.0000
     18 C10        5.9553    6.8990    6.0923 C.3       1 RES1    0.0000
     19 C11        7.3129    7.1121    6.6999 C.3       1 RES1    0.0000
     20 H7         7.3006    6.8207    7.6358 H         1 RES1    0.0000
     21 H8         7.5448    8.0631    6.6571 H         1 RES1    0.0000
     22 H9         7.9782    6.5914    6.2044 H         1 RES1    0.0000
     23 C12        4.8919    7.6664    6.8803 C.3       1 RES1    0.0000
     24 H10        4.0209    7.5597    6.4445 H         1 RES1    0.0000
     25 H11        5.1284    8.6174    6.9094 H         1 RES1    0.0000
     26 H12        4.8450    7.3142    7.7933 H         1 RES1    0.0000
     27 C13        5.9592    7.4357    4.6716 C.3       1 RES1    0.0000
     28 H13        6.6638    6.9906    4.1566 H         1 RES1    0.0000
     29 H14        6.1271    8.4016    4.6873 H         1 RES1    0.0000
     30 H15        5.0896    7.2622    4.2545 H         1 RES1    0.0000
     31 N3         5.4076    2.0604    7.2009 N.3       1 RES1    0.0000
     32 H16        4.6528    1.6106    7.1464 H         1 RES1    0.0000
     33 C14        7.5040    1.7667    8.4909 C.ar      1 RES1    0.0000
     34 C15        8.2474    1.7563    7.3290 C.ar      1 RES1    0.0000
     35 H17        7.8145    1.8809    6.4919 H         1 RES1    0.0000
     36 C16        9.6096    1.5661    7.3700 C.ar      1 RES1    0.0000
     37 H18       10.1212    1.5387    6.5699 H         1 RES1    0.0000
     38 C17       10.2121    1.4170    8.5933 C.ar      1 RES1    0.0000
     39 C18        9.5035    1.4348    9.7700 C.ar      1 RES1    0.0000
     40 H19        9.9421    1.3379   10.6073 H         1 RES1    0.0000
     41 C19        8.1460    1.5964    9.7014 C.ar      1 RES1    0.0000
     42 H20        7.6353    1.5908   10.5017 H         1 RES1    0.0000
     43 C20        6.0110    1.9343    8.5100 C.3       1 RES1    0.0000
     44 H21        5.6104    1.1544    8.9694 H         1 RES1    0.0000
     45 H22        5.7892    2.7414    9.0397 H         1 RES1    0.0000
     46 N4        11.6527    1.2319    8.6473 N.pl3     1 RES1    0.0000
     47 O1        12.2433    1.0478    7.5878 O.2       1 RES1    0.0000
     48 O2        12.2059    1.2767    9.7290 O.2       1 RES1    0.0000
@<TRIPOS>BOND
     1    1    2 1
     2    2    3 2
     3    3    4 1
     4    4    5 1
     5    6    1 1
     6    7    1 1
     7    8    7 ar
     8    9    8 1
     9   10    8 ar
    10   11   10 1
    11   12   10 ar
    12   13   12 1
    13   14   12 ar
    14   15   14 1
    15   16    7 ar
    16   17   16 1
    17   18    3 1
    18   19   18 1
    19   20   19 1
    20   21   19 1
    21   22   19 1
    22   23   18 1
    23   24   23 1
    24   25   23 1
    25   26   23 1
    26   27   18 1
    27   28   27 1
    28   29   27 1
    29   30   27 1
    30   31    6 1
    31   32   31 1
    32   33   34 ar
    33   34   35 1
    34   36   34 ar
    35   37   36 1
    36   38   36 ar
    37   39   38 ar
    38   40   39 1
    39   41   33 ar
    40   42   41 1
    41   43   31 1
    42   44   43 1
    43   45   43 1
    44   46   38 1
    45   47   46 2
    46   48   46 2
    47    4    6 2
    48   14   16 ar
    49   33   43 1
    50   39   41 ar
@<TRIPOS>SUBSTRUCTURE
     1 RES1 1

@<TRIPOS>CRYSIN
   9.6594   12.3991   15.4338  90.0000  97.7440  90.0000 231 1

