# MOL2 file generated by ConQuest
# Please check atom types

@<TRIPOS>MOLECULE
POWDAI
    45    47     1
SMALL
USER_CHARGES
****
Generated from CSD

@<TRIPOS>ATOM
      1 O1         1.6511    5.8643    4.9954 O.2       1 RES1   -1.0000
      2 O2         2.9208    8.2504   11.9744 O.2       1 RES1    0.0000
      3 O3         3.5637    9.6896   10.5073 O.2       1 RES1    0.0000
      4 N1         3.1492    8.5794   10.8184 N.pl3     1 RES1    0.0000
      5 N2         1.3889    4.9100    5.8270 N.pl3     1 RES1    1.0000
      6 C1        -0.0604    3.2149    6.8771 C.ar      1 RES1    0.0000
      7 C2         2.5118    4.5801    6.7475 C.3       1 RES1    0.0000
      8 C3        -0.9359    2.4798    9.0071 C.ar      1 RES1    0.0000
      9 C4        -0.8328    4.7496    4.9984 C.2       1 RES1    0.0000
     10 C5         0.2103    4.3064    5.8982 C.2       1 RES1    0.0000
     11 C6         3.3772    7.8736    8.4616 C.ar      1 RES1    0.0000
     12 C7        -0.6172    3.5027    8.1243 C.ar      1 RES1    0.0000
     13 C8         2.6634    5.6607    7.7974 C.ar      1 RES1    0.0000
     14 C9         2.2346    5.4145    9.1003 C.ar      1 RES1    0.0000
     15 C10       -3.1481    5.8052    3.3794 C.ar      1 RES1    0.0000
     16 C11       -3.1193    4.5522    4.0089 C.ar      1 RES1    0.0000
     17 C12       -2.0250    4.1396    4.8908 C.2       1 RES1    0.0000
     18 C13       -0.1882    0.8674    7.4106 C.ar      1 RES1    0.0000
     19 C14        3.2290    6.9001    7.4856 C.ar      1 RES1    0.0000
     20 C15       -4.1781    3.6667    3.7838 C.ar      1 RES1    0.0000
     21 C16        2.3728    6.3745   10.0856 C.ar      1 RES1    0.0000
     22 C17        0.1512    1.8862    6.5302 C.ar      1 RES1    0.0000
     23 C18        2.9468    7.5860    9.7483 C.ar      1 RES1    0.0000
     24 C19       -0.7208    1.1614    8.6510 C.ar      1 RES1    0.0000
     25 C20       -5.2434    5.2520    2.3284 C.ar      1 RES1    0.0000
     26 C21       -5.2310    4.0175    2.9508 C.ar      1 RES1    0.0000
     27 C22       -4.2018    6.1430    2.5419 C.ar      1 RES1    0.0000
     28 H1         3.3518    4.4987    6.2304 H         1 RES1    0.0000
     29 H2         2.3355    3.7115    7.1885 H         1 RES1    0.0000
     30 H3        -1.3028    2.6861    9.8589 H         1 RES1    0.0000
     31 H4        -0.6655    5.5112    4.4552 H         1 RES1    0.0000
     32 H5         3.7636    8.7165    8.2552 H         1 RES1    0.0000
     33 H6        -0.7793    4.4057    8.3713 H         1 RES1    0.0000
     34 H7         1.8419    4.5761    9.3142 H         1 RES1    0.0000
     35 H8        -2.4436    6.4247    3.5276 H         1 RES1    0.0000
     36 H9        -2.1710    3.3742    5.4342 H         1 RES1    0.0000
     37 H10       -0.0532   -0.0387    7.1580 H         1 RES1    0.0000
     38 H11        3.5152    7.0769    6.5961 H         1 RES1    0.0000
     39 H12       -4.1770    2.8157    4.2057 H         1 RES1    0.0000
     40 H13        2.0804    6.2055   10.9732 H         1 RES1    0.0000
     41 H14        0.5309    1.6735    5.6857 H         1 RES1    0.0000
     42 H15       -0.9377    0.4615    9.2551 H         1 RES1    0.0000
     43 H16       -5.9640    5.4895    1.7562 H         1 RES1    0.0000
     44 H17       -5.9456    3.4075    2.8076 H         1 RES1    0.0000
     45 H18       -4.2092    6.9900    2.1124 H         1 RES1    0.0000
@<TRIPOS>BOND
     1    1    5 1
     2    2    4 2
     3    3    4 2
     4    4   23 1
     5    5    7 1
     6    6   10 1
     7    7   13 1
     8    8   12 ar
     9    9   10 1
    10   10    5 2
    11   11   19 ar
    12   12    6 ar
    13   13   14 ar
    14   14   21 ar
    15   15   16 ar
    16   16   17 1
    17   17    9 2
    18   18   22 ar
    19   19   13 ar
    20   20   16 ar
    21   21   23 ar
    22   22    6 ar
    23   23   11 ar
    24   24    8 ar
    25   25   26 ar
    26   26   20 ar
    27   27   15 ar
    28   28    7 1
    29   29    7 1
    30   30    8 1
    31   31    9 1
    32   32   11 1
    33   33   12 1
    34   34   14 1
    35   35   15 1
    36   36   17 1
    37   37   18 1
    38   38   19 1
    39   39   20 1
    40   40   21 1
    41   41   22 1
    42   42   24 1
    43   43   25 1
    44   44   26 1
    45   45   27 1
    46   18   24 ar
    47   25   27 ar
@<TRIPOS>SUBSTRUCTURE
     1 RES1 1

@<TRIPOS>CRYSIN
  14.0236    6.7864   19.6740  90.0000 104.4990  90.0000 231 1

