# MOL2 file generated by ConQuest
# Please check atom types

@<TRIPOS>MOLECULE
POWJUG
    68    72     1
SMALL
NO_CHARGES
****
Generated from CSD

@<TRIPOS>ATOM
      1 O1        -0.5850    0.5167    7.7636 O.2       1 RES1    0.0000
      2 N1         0.3567   -2.6478    6.7532 N.2       1 RES1    0.0000
      3 N2        -0.5224   -0.7378    7.4935 N.3       1 RES1    0.0000
      4 N3         2.9675   -1.1839    7.0471 N.ar      1 RES1    0.0000
      5 N4         1.9312    0.5285    6.0404 N.pl3     1 RES1    0.0000
      6 C1         0.5574   -1.3972    6.9369 C.2       1 RES1    0.0000
      7 C2        -0.9545   -2.9932    7.3870 C.3       1 RES1    0.0000
      8 C3        -1.6902   -1.6614    7.5689 C.3       1 RES1    0.0000
      9 C4        -0.6084   -3.5936    8.7391 C.3       1 RES1    0.0000
     10 C5        -1.6552   -3.9913    6.5364 C.3       1 RES1    0.0000
     11 C6        -2.4419   -1.4220    8.8346 C.3       1 RES1    0.0000
     12 C7        -2.5863   -1.3160    6.3600 C.3       1 RES1    0.0000
     13 C8         1.8208   -0.7012    6.6540 C.ar      1 RES1    0.0000
     14 C9         3.8688   -0.2289    6.6760 C.ar      1 RES1    0.0000
     15 C10        3.2743    0.8124    6.0698 C.ar      1 RES1    0.0000
     16 C11        0.0000    0.5651    4.5927 C.ar      1 RES1    0.0000
     17 C12        0.9513    1.2716    5.3239 C.ar      1 RES1    0.0000
     18 C13        0.9439    2.6530    5.3625 C.ar      1 RES1    0.0000
     19 C14        0.0000    3.3097    4.5927 C.ar      1 RES1    0.0000
     20 H1        -0.1561   -2.9448    9.2663 H         1 RES1    0.0000
     21 H2        -0.0467   -4.3498    8.6160 H         1 RES1    0.0000
     22 H3        -1.4068   -3.8605    9.1800 H         1 RES1    0.0000
     23 H4        -1.1137   -4.7658    6.4445 H         1 RES1    0.0000
     24 H5        -1.8208   -3.6159    5.6785 H         1 RES1    0.0000
     25 H6        -2.4812   -4.2281    6.9424 H         1 RES1    0.0000
     26 H7        -1.8835   -1.6169    9.5786 H         1 RES1    0.0000
     27 H8        -3.2085   -1.9845    8.8603 H         1 RES1    0.0000
     28 H9        -2.7169   -0.5128    8.8732 H         1 RES1    0.0000
     29 H10       -3.3624   -1.8642    6.3729 H         1 RES1    0.0000
     30 H11       -2.1043   -1.4678    5.5554 H         1 RES1    0.0000
     31 H12       -2.8432   -0.4029    6.4060 H         1 RES1    0.0000
     32 H13        4.8053   -0.2930    6.8285 H         1 RES1    0.0000
     33 H14        3.6990    1.5908    5.7281 H         1 RES1    0.0000
     34 H15        0.0000   -0.3859    4.5927 H         1 RES1    0.0000
     35 H16        1.5639    3.1331    5.8989 H         1 RES1    0.0000
     36 H17        0.0000    4.2595    4.5927 H         1 RES1    0.0000
     37 C12C      -0.9513    1.2716    3.8616 C.ar      1 RES1    0.0000
     38 N4C       -1.9312    0.5285    3.1451 N.pl3     1 RES1    0.0000
     39 C8C       -1.8208   -0.7012    2.5315 C.ar      1 RES1    0.0000
     40 N3C       -2.9675   -1.1839    2.1384 N.ar      1 RES1    0.0000
     41 C9C       -3.8688   -0.2289    2.5095 C.ar      1 RES1    0.0000
     42 C10C      -3.2743    0.8124    3.1157 C.ar      1 RES1    0.0000
     43 H14C      -3.6990    1.5908    3.4574 H         1 RES1    0.0000
     44 H13C      -4.8053   -0.2930    2.3570 H         1 RES1    0.0000
     45 C1C       -0.5574   -1.3972    2.2486 C.2       1 RES1    0.0000
     46 N1C       -0.3567   -2.6478    2.4323 N.2       1 RES1    0.0000
     47 C2C        0.9545   -2.9932    1.7985 C.3       1 RES1    0.0000
     48 C3C        1.6902   -1.6614    1.6166 C.3       1 RES1    0.0000
     49 N2C        0.5224   -0.7378    1.6920 N.3       1 RES1    0.0000
     50 O1C        0.5850    0.5167    1.4219 O.2       1 RES1    0.0000
     51 C6C        2.4419   -1.4220    0.3509 C.3       1 RES1    0.0000
     52 H7C        1.8835   -1.6169   -0.3931 H         1 RES1    0.0000
     53 H8C        3.2085   -1.9845    0.3252 H         1 RES1    0.0000
     54 H9C        2.7169   -0.5128    0.3123 H         1 RES1    0.0000
     55 C7C        2.5863   -1.3160    2.8255 C.3       1 RES1    0.0000
     56 H10C       3.3624   -1.8642    2.8126 H         1 RES1    0.0000
     57 H11C       2.1043   -1.4678    3.6301 H         1 RES1    0.0000
     58 H12C       2.8432   -0.4029    2.7795 H         1 RES1    0.0000
     59 C4C        0.6084   -3.5936    0.4464 C.3       1 RES1    0.0000
     60 H1C        0.1561   -2.9448   -0.0808 H         1 RES1    0.0000
     61 H2C        0.0467   -4.3498    0.5695 H         1 RES1    0.0000
     62 H3C        1.4068   -3.8605    0.0055 H         1 RES1    0.0000
     63 C5C        1.6552   -3.9913    2.6491 C.3       1 RES1    0.0000
     64 H4C        1.1137   -4.7658    2.7410 H         1 RES1    0.0000
     65 H5C        1.8208   -3.6159    3.5070 H         1 RES1    0.0000
     66 H6C        2.4812   -4.2281    2.2431 H         1 RES1    0.0000
     67 C13C      -0.9439    2.6530    3.8230 C.ar      1 RES1    0.0000
     68 H16C      -1.5639    3.1331    3.2866 H         1 RES1    0.0000
@<TRIPOS>BOND
     1    1    3 1
     2    2    6 2
     3    3    6 1
     4    4   13 ar
     5    5   13 ar
     6    6   13 1
     7    7    2 1
     8    8    3 1
     9    9    7 1
    10   10    7 1
    11   11    8 1
    12   12    8 1
    13   14    4 ar
    14   15    5 ar
    15   16   17 ar
    16   17    5 1
    17   18   17 ar
    18   19   18 ar
    19   20    9 1
    20   21    9 1
    21   22    9 1
    22   23   10 1
    23   24   10 1
    24   25   10 1
    25   26   11 1
    26   27   11 1
    27   28   11 1
    28   29   12 1
    29   30   12 1
    30   31   12 1
    31   32   14 1
    32   33   15 1
    33   34   16 1
    34   35   18 1
    35   36   19 1
    36   37   16 ar
    37   38   37 1
    38   39   38 ar
    39   40   39 ar
    40   41   40 ar
    41   42   38 ar
    42   43   42 1
    43   44   41 1
    44   45   39 1
    45   46   45 2
    46   47   46 1
    47   48   47 1
    48   49   45 1
    49   50   49 1
    50   51   48 1
    51   52   51 1
    52   53   51 1
    53   54   51 1
    54   55   48 1
    55   56   55 1
    56   57   55 1
    57   58   55 1
    58   59   47 1
    59   60   59 1
    60   61   59 1
    61   62   59 1
    62   63   47 1
    63   64   63 1
    64   65   63 1
    65   66   63 1
    66   67   19 ar
    67   68   67 1
    68    7    8 1
    69   14   15 ar
    70   37   67 ar
    71   41   42 ar
    72   48   49 1
@<TRIPOS>SUBSTRUCTURE
     1 RES1 1

@<TRIPOS>CRYSIN
  10.6170   13.0820   18.3710  90.0000  90.0000  90.0000  60 1

