# MOL2 file generated by ConQuest
# Please check atom types

@<TRIPOS>MOLECULE
POWJOA
    70    74     1
SMALL
NO_CHARGES
****
Generated from CSD

@<TRIPOS>ATOM
      1 O1         0.9612   10.4483    2.8019 O.2       1 RES1    0.0000
      2 O2        -0.6102    6.4181    1.4009 O.2       1 RES1    0.0000
      3 N1         0.2403    9.5821    2.2793 N.pl3     1 RES1    0.0000
      4 N2        -0.5120    7.6585    1.6514 N.3       1 RES1    0.0000
      5 N3         2.9672    8.2239    2.1087 N.ar      1 RES1    0.0000
      6 N4         1.9433    6.5220    3.1539 N.pl3     1 RES1    0.0000
      7 C1         0.5433    8.2877    2.1595 C.2       1 RES1    0.0000
      8 C2        -1.0657    9.9230    1.5770 C.3       1 RES1    0.0000
      9 C3        -1.7030    8.5649    1.5498 C.3       1 RES1    0.0000
     10 C4        -0.6478   10.4497    0.1978 C.3       1 RES1    0.0000
     11 C5        -1.7762   11.0331    2.2974 C.3       1 RES1    0.0000
     12 C6        -2.5911    8.3015    2.7565 C.3       1 RES1    0.0000
     13 C7        -2.4971    8.2461    0.2740 C.3       1 RES1    0.0000
     14 C8         1.8493    7.7195    2.4644 C.ar      1 RES1    0.0000
     15 C9         3.8971    7.3037    2.5551 C.ar      1 RES1    0.0000
     16 C10        3.2911    6.3058    3.1921 C.ar      1 RES1    0.0000
     17 C11        0.0000    6.4306    4.5368 C.ar      1 RES1    0.0000
     18 C12        0.9403    5.7584    3.8345 C.ar      1 RES1    0.0000
     19 C13        0.9821    4.3878    3.8326 C.ar      1 RES1    0.0000
     20 C14        0.0000    3.6865    4.5368 C.ar      1 RES1    0.0000
     21 H1        -0.0502   11.1828    0.3067 H         1 RES1    0.0000
     22 H2        -0.2121    9.7595   -0.2885 H         1 RES1    0.0000
     23 H3        -1.4167   10.7380   -0.2776 H         1 RES1    0.0000
     24 H4        -1.2047   11.7871    2.3664 H         1 RES1    0.0000
     25 H5        -2.0238   10.7407    3.1685 H         1 RES1    0.0000
     26 H6        -2.5598   11.2729    1.8129 H         1 RES1    0.0000
     27 H7        -3.3643    8.8448    2.7039 H         1 RES1    0.0000
     28 H8        -2.1074    8.5094    3.5496 H         1 RES1    0.0000
     29 H9        -2.8398    7.3855    2.7692 H         1 RES1    0.0000
     30 H10       -3.2817    8.7811    0.2468 H         1 RES1    0.0000
     31 H11       -1.9621    8.4263   -0.4882 H         1 RES1    0.0000
     32 H12       -2.7436    7.3259    0.2758 H         1 RES1    0.0000
     33 H13        4.8322    7.3744    2.4244 H         1 RES1    0.0000
     34 H14        3.7174    5.5644    3.6022 H         1 RES1    0.0000
     35 H15        0.0000    7.4492    4.5368 H         1 RES1    0.0000
     36 H16        1.6654    3.9221    3.3626 H         1 RES1    0.0000
     37 H17        0.0000    2.6651    4.5368 H         1 RES1    0.0000
     38 C12C      -0.9403    5.7584    5.2390 C.ar      1 RES1    0.0000
     39 N4C       -1.9433    6.5220    5.9196 N.pl3     1 RES1    0.0000
     40 C8C       -1.8493    7.7195    6.6091 C.ar      1 RES1    0.0000
     41 N3C       -2.9672    8.2239    6.9648 N.ar      1 RES1    0.0000
     42 C9C       -3.8971    7.3037    6.5184 C.ar      1 RES1    0.0000
     43 C10C      -3.2911    6.3058    5.8814 C.ar      1 RES1    0.0000
     44 H14C      -3.7174    5.5644    5.4713 H         1 RES1    0.0000
     45 H13C      -4.8322    7.3744    6.6491 H         1 RES1    0.0000
     46 C1C       -0.5433    8.2877    6.9140 C.2       1 RES1    0.0000
     47 N1C       -0.2403    9.5821    6.7942 N.3       1 RES1    0.0000
     48 O1C       -0.9612   10.4483    6.2716 O.2       1 RES1    0.0000
     49 C2C        1.0657    9.9230    7.4965 C.3       1 RES1    0.0000
     50 C3C        1.7030    8.5649    7.5237 C.3       1 RES1    0.0000
     51 N2C        0.5120    7.6585    7.4221 N.pl3     1 RES1    0.0000
     52 O2C        0.6102    6.4181    7.6726 O.2       1 RES1    0.0000
     53 C6C        2.5911    8.3015    6.3170 C.3       1 RES1    0.0000
     54 H7C        3.3643    8.8448    6.3696 H         1 RES1    0.0000
     55 H8C        2.1074    8.5094    5.5239 H         1 RES1    0.0000
     56 H9C        2.8398    7.3855    6.3043 H         1 RES1    0.0000
     57 C7C        2.4971    8.2461    8.7995 C.3       1 RES1    0.0000
     58 H10C       3.2817    8.7811    8.8267 H         1 RES1    0.0000
     59 H11C       1.9621    8.4263    9.5617 H         1 RES1    0.0000
     60 H12C       2.7436    7.3259    8.7977 H         1 RES1    0.0000
     61 C4C        0.6478   10.4497    8.8757 C.3       1 RES1    0.0000
     62 H1C        0.0502   11.1828    8.7668 H         1 RES1    0.0000
     63 H2C        0.2121    9.7595    9.3620 H         1 RES1    0.0000
     64 H3C        1.4167   10.7380    9.3511 H         1 RES1    0.0000
     65 C5C        1.7762   11.0331    6.7761 C.3       1 RES1    0.0000
     66 H4C        1.2047   11.7871    6.7071 H         1 RES1    0.0000
     67 H5C        2.0238   10.7407    5.9050 H         1 RES1    0.0000
     68 H6C        2.5598   11.2729    7.2606 H         1 RES1    0.0000
     69 C13C      -0.9821    4.3878    5.2409 C.ar      1 RES1    0.0000
     70 H16C      -1.6654    3.9221    5.7109 H         1 RES1    0.0000
@<TRIPOS>BOND
     1    1    3 1
     2    2    4 1
     3    3    7 2
     4    4    7 1
     5    5   14 ar
     6    6   14 ar
     7    7   14 1
     8    8    3 1
     9    9    4 1
    10   10    8 1
    11   11    8 1
    12   12    9 1
    13   13    9 1
    14   15    5 ar
    15   16    6 ar
    16   17   18 ar
    17   18    6 1
    18   19   18 ar
    19   20   19 ar
    20   21   10 1
    21   22   10 1
    22   23   10 1
    23   24   11 1
    24   25   11 1
    25   26   11 1
    26   27   12 1
    27   28   12 1
    28   29   12 1
    29   30   13 1
    30   31   13 1
    31   32   13 1
    32   33   15 1
    33   34   16 1
    34   35   17 1
    35   36   19 1
    36   37   20 1
    37   38   17 ar
    38   39   38 1
    39   40   39 ar
    40   41   40 ar
    41   42   41 ar
    42   43   39 ar
    43   44   43 1
    44   45   42 1
    45   46   40 1
    46   47   46 1
    47   48   47 1
    48   49   47 1
    49   50   49 1
    50   51   46 2
    51   52   51 1
    52   53   50 1
    53   54   53 1
    54   55   53 1
    55   56   53 1
    56   57   50 1
    57   58   57 1
    58   59   57 1
    59   60   57 1
    60   61   49 1
    61   62   61 1
    62   63   61 1
    63   64   61 1
    64   65   49 1
    65   66   65 1
    66   67   65 1
    67   68   65 1
    68   69   20 ar
    69   70   69 1
    70    8    9 1
    71   15   16 ar
    72   38   69 ar
    73   42   43 ar
    74   50   51 1
@<TRIPOS>SUBSTRUCTURE
     1 RES1 1

@<TRIPOS>CRYSIN
  10.4480   13.8590   18.1470  90.0000  90.0000  90.0000  60 1

