# MOL2 file generated by ConQuest
# Please check atom types

@<TRIPOS>MOLECULE
POWLOD
   348   348    12
SMALL
NO_CHARGES
****
Generated from CSD

@<TRIPOS>ATOM
      1 O1         5.0627   -0.4781    7.8999 O.2       1 RES1    0.0000
      2 O2         5.0409    1.6354    8.3590 O.2       1 RES1    0.0000
      3 O3         5.5990    4.4180    2.8372 O.3       1 RES1    0.0000
      4 H1         5.5500    5.2220    2.6935 H         1 RES1    0.0000
      5 O4         5.1846    5.0644    4.9562 O.2       1 RES1    0.0000
      6 N1         5.6202   -1.3168    5.4567 N.3       1 RES1    0.0000
      7 H2         5.4809   -1.5626    6.2696 H         1 RES1    0.0000
      8 N2         5.1318    0.7165    7.5401 N.pl3     1 RES1    0.0000
      9 C1         5.5563   -0.0080    5.1649 C.ar      1 RES1    0.0000
     10 C2         5.3486    1.0277    6.1526 C.ar      1 RES1    0.0000
     11 C3         5.2957    2.3739    5.7958 C.ar      1 RES1    0.0000
     12 H3         5.1449    3.0183    6.4488 H         1 RES1    0.0000
     13 C4         5.4673    2.7539    4.4779 C.ar      1 RES1    0.0000
     14 C5         5.6750    1.7716    3.4902 C.ar      1 RES1    0.0000
     15 H4         5.7753    2.0233    2.6002 H         1 RES1    0.0000
     16 C6         5.7289    0.4441    3.8411 C.ar      1 RES1    0.0000
     17 H5         5.8860   -0.1870    3.1748 H         1 RES1    0.0000
     18 C7         5.4026    4.1876    4.1121 C.2       1 RES1    0.0000
     19 C8         5.9130   -2.3479    4.4705 C.3       1 RES1    0.0000
     20 H6         6.6599   -2.0701    3.9152 H         1 RES1    0.0000
     21 H7         5.1430   -2.4841    3.8959 H         1 RES1    0.0000
     22 C9         6.2620   -3.6574    5.1901 C.3       1 RES1    0.0000
     23 H8         6.5626   -4.3071    4.5356 H         1 RES1    0.0000
     24 H9         6.9929   -3.4924    5.8061 H         1 RES1    0.0000
     25 C10        5.1191   -4.2136    5.9320 C.2       1 RES1    0.0000
     26 H10        4.3524   -4.4006    5.4404 H         1 RES1    0.0000
     27 C11        5.0754   -4.4707    7.2277 C.2       1 RES1    0.0000
     28 H11        5.8180   -4.3004    7.7593 H         1 RES1    0.0000
     29 H12        4.3040   -4.8213    7.6053 H         1 RES1    0.0000
     30 O5         1.6685   13.9671    1.6185 O.2       2 RES2    0.0000
     31 O6         1.9911   12.4165    0.1658 O.2       2 RES2    0.0000
     32 O7         2.2587    7.8176    1.2631 O.3       2 RES2    0.0000
     33 H13        2.4096    7.0183    1.1446 H         2 RES2    0.0000
     34 O8         2.0936    7.1525    3.4073 O.2       2 RES2    0.0000
     35 N3         1.7829   13.4489    4.1921 N.3       2 RES2    0.0000
     36 H14        1.6798   14.0699    3.6042 H         2 RES2    0.0000
     37 N4         1.8261   12.7724    1.3268 N.pl3     2 RES2    0.0000
     38 C12        1.8024   12.1761    3.7627 C.ar      2 RES2    0.0000
     39 C13        1.8322   11.7962    2.3841 C.ar      2 RES2    0.0000
     40 C14        1.9311   10.4753    1.9902 C.ar      2 RES2    0.0000
     41 H15        1.9832   10.2636    1.0854 H         2 RES2    0.0000
     42 C15        1.9528    9.4663    2.9393 C.ar      2 RES2    0.0000
     43 C16        1.8917    9.8069    4.3061 C.ar      2 RES2    0.0000
     44 H16        1.9092    9.1351    4.9502 H         2 RES2    0.0000
     45 C17        1.8078   11.1210    4.6985 C.ar      2 RES2    0.0000
     46 H17        1.7538   11.3187    5.6062 H         2 RES2    0.0000
     47 C18        2.1107    8.0486    2.5440 C.2       2 RES2    0.0000
     48 C19        1.9226   13.8562    5.5870 C.3       2 RES2    0.0000
     49 H18        2.5889   13.3020    6.0253 H         2 RES2    0.0000
     50 H19        1.0792   13.7360    6.0505 H         2 RES2    0.0000
     51 C20        2.3369   15.3013    5.6462 C.3       2 RES2    0.0000
     52 H20        3.1618   15.4188    5.1501 H         2 RES2    0.0000
     53 H21        2.5047   15.5524    6.5687 H         2 RES2    0.0000
     54 C21        1.2685   16.2008    5.0687 C.2       2 RES2    0.0000
     55 H22        0.4806   16.3069    5.5514 H         2 RES2    0.0000
     56 C22        1.3836   16.8392    3.9344 C.2       2 RES2    0.0000
     57 H23        2.1606   16.7543    3.4295 H         2 RES2    0.0000
     58 H24        0.6888   17.3821    3.6323 H         2 RES2    0.0000
     59 O9         5.1551   13.8329    3.9981 O.2       3 RES3    0.0000
     60 O10        4.9959   12.2329    5.4552 O.2       3 RES3    0.0000
     61 O11        5.3007    7.6313    4.3979 O.3       3 RES3    0.0000
     62 H25        5.3294    6.8246    4.5356 H         3 RES3    0.0000
     63 O12        5.4789    6.9615    2.2552 O.2       3 RES3    0.0000
     64 N5         5.1280   13.2653    1.4289 N.3       3 RES3    0.0000
     65 H26        5.0910   13.8829    2.0242 H         3 RES3    0.0000
     66 N6         5.1179   12.6202    4.2957 N.pl3     3 RES3    0.0000
     67 C23        5.2435   11.9905    1.8569 C.ar      3 RES3    0.0000
     68 C24        5.2199   11.6205    3.2385 C.ar      3 RES3    0.0000
     69 C25        5.2628   10.2950    3.6383 C.ar      3 RES3    0.0000
     70 H27        5.2265   10.0900    4.5445 H         3 RES3    0.0000
     71 C26        5.3619    9.2720    2.7083 C.ar      3 RES3    0.0000
     72 C27        5.4273    9.6219    1.3401 C.ar      3 RES3    0.0000
     73 H28        5.5116    8.9481    0.7019 H         3 RES3    0.0000
     74 C28        5.3721   10.9234    0.9344 C.ar      3 RES3    0.0000
     75 H29        5.4193   11.1184    0.0267 H         3 RES3    0.0000
     76 C29        5.3984    7.8610    3.0993 C.2       3 RES3    0.0000
     77 C30        5.0621   13.6693    0.0163 C.3       3 RES3    0.0000
     78 H30        4.4902   13.0616   -0.4753 H         3 RES3    0.0000
     79 H31        5.9484   13.6425   -0.3776 H         3 RES3    0.0000
     80 C31        4.5008   15.0889   -0.0578 C.3       3 RES3    0.0000
     81 H32        4.3676   15.3320   -0.9877 H         3 RES3    0.0000
     82 H33        3.6374   15.1116    0.3820 H         3 RES3    0.0000
     83 C32        5.4071   16.0973    0.5864 C.2       3 RES3    0.0000
     84 H34        6.1906   16.3203    0.1377 H         3 RES3    0.0000
     85 C33        5.1750   16.6916    1.7414 C.2       3 RES3    0.0000
     86 H35        4.4012   16.4939    2.2197 H         3 RES3    0.0000
     87 H36        5.7837   17.3086    2.0790 H         3 RES3    0.0000
     88 O13        8.1071   11.4576    5.1546 O.2       4 RES4    0.0000
     89 O14        8.3445    9.3321    4.7074 O.2       4 RES4    0.0000
     90 O15        8.0103    6.5495   10.2233 O.3       4 RES4    0.0000
     91 H37        8.0990    5.7428   10.3610 H         4 RES4    0.0000
     92 O16        8.3641    5.9151    8.1073 O.2       4 RES4    0.0000
     93 N7         7.6155   12.2716    7.6112 N.3       4 RES4    0.0000
     94 H38        7.6933   12.5207    6.7908 H         4 RES4    0.0000
     95 N8         8.1682   10.2523    5.5026 N.pl3     4 RES4    0.0000
     96 C34        7.7547   10.9608    7.8837 C.ar      4 RES4    0.0000
     97 C35        7.9992    9.9471    6.9152 C.ar      4 RES4    0.0000
     98 C36        8.1235    8.5915    7.2602 C.ar      4 RES4    0.0000
     99 H39        8.2769    7.9531    6.5998 H         4 RES4    0.0000
    100 C37        8.0136    8.2069    8.5841 C.ar      4 RES4    0.0000
    101 C38        7.7663    9.1945    9.5614 C.ar      4 RES4    0.0000
    102 H40        7.6927    8.9414   10.4513 H         4 RES4    0.0000
    103 C39        7.6318   10.5140    9.2371 C.ar      4 RES4    0.0000
    104 H41        7.4563   11.1317    9.9094 H         4 RES4    0.0000
    105 C40        8.1557    6.7926    8.9498 C.2       4 RES4    0.0000
    106 C41        7.3399   13.3026    8.6137 C.3       4 RES4    0.0000
    107 H42        8.1483   13.5023    9.1112 H         4 RES4    0.0000
    108 H43        6.6682   12.9881    9.2371 H         4 RES4    0.0000
    109 C42        6.8354   14.5714    7.8985 C.3       4 RES4    0.0000
    110 H44        6.0767   14.3504    7.3358 H         4 RES4    0.0000
    111 H45        6.5436   15.2252    8.5559 H         4 RES4    0.0000
    112 C43        7.9172   15.1524    7.0677 C.2       4 RES4    0.0000
    113 H46        8.7327   15.3320    7.4764 H         4 RES4    0.0000
    114 C44        7.7907   15.4262    5.7765 C.2       4 RES4    0.0000
    115 H47        6.9878   15.2519    5.3412 H         4 RES4    0.0000
    116 H48        8.5057   15.7928    5.3071 H         4 RES4    0.0000
    117 O17       11.1639   10.8626    7.8881 O.2       5 RES5    0.0000
    118 O18       10.8666   12.9741    8.3190 O.2       5 RES5    0.0000
    119 O19       11.4946   15.7881    2.8016 O.3       5 RES5    0.0000
    120 H49       11.4514   16.5941    2.6713 H         5 RES5    0.0000
    121 O20       11.2484   16.4539    4.9369 O.2       5 RES5    0.0000
    122 N9        11.5495   10.0186    5.4196 N.3       5 RES5    0.0000
    123 H50       11.4577    9.7628    6.2356 H         5 RES5    0.0000
    124 N10       11.1043   12.0539    7.5238 N.pl3     5 RES5    0.0000
    125 C45       11.5322   11.3421    5.1516 C.ar      5 RES5    0.0000
    126 C46       11.3178   12.3751    6.1245 C.ar      5 RES5    0.0000
    127 C47       11.2727   13.7127    5.7765 C.ar      5 RES5    0.0000
    128 H51       11.1251   14.3504    6.4340 H         5 RES5    0.0000
    129 C48       11.4454   14.1120    4.4601 C.ar      5 RES5    0.0000
    130 C49       11.6743   13.1110    3.4650 C.ar      5 RES5    0.0000
    131 H52       11.7942   13.3621    2.5780 H         5 RES5    0.0000
    132 C50       11.7191   11.7848    3.8071 C.ar      5 RES5    0.0000
    133 H53       11.8770   11.1518    3.1437 H         5 RES5    0.0000
    134 C51       11.3851   15.5457    4.0840 C.2       5 RES5    0.0000
    135 C52       11.7131    9.0082    4.3846 C.3       5 RES5    0.0000
    136 H54       12.6006    9.0750    3.9996 H         5 RES5    0.0000
    137 H55       11.0656    9.1551    3.6782 H         5 RES5    0.0000
    138 C53       11.5145    7.6079    4.9887 C.3       5 RES5    0.0000
    139 H56       10.6040    7.5324    5.3130 H         5 RES5    0.0000
    140 H57       11.6296    6.9448    4.2868 H         5 RES5    0.0000
    141 C54       12.4488    7.2887    6.1052 C.2       5 RES5    0.0000
    142 H58       13.3629    7.3455    5.9483 H         5 RES5    0.0000
    143 C55       12.0389    6.9261    7.3091 C.2       5 RES5    0.0000
    144 H59       11.1288    6.8580    7.4898 H         5 RES5    0.0000
    145 H60       12.6599    6.7378    7.9755 H         5 RES5    0.0000
    146 O21        1.6428   22.7089    5.1753 O.2       6 RES6    0.0000
    147 O22        1.5056   20.6020    4.6941 O.2       6 RES6    0.0000
    148 O23        0.4194   17.8502   10.1581 O.3       6 RES6    0.0000
    149 H61        0.3855   17.0415   10.2796 H         6 RES6    0.0000
    150 O24        0.8931   17.1911    8.0747 O.2       6 RES6    0.0000
    151 N11        1.0977   23.5810    7.6082 N.3       6 RES6    0.0000
    152 H62        1.3031   23.8194    6.8071 H         6 RES6    0.0000
    153 N12        1.4509   21.5242    5.5115 N.pl3     6 RES6    0.0000
    154 C56        1.0224   22.2675    7.8792 C.ar      6 RES6    0.0000
    155 C57        1.1678   21.2331    6.9123 C.ar      6 RES6    0.0000
    156 C58        1.0616   19.8869    7.2469 C.ar      6 RES6    0.0000
    157 H63        1.1561   19.2385    6.5880 H         6 RES6    0.0000
    158 C59        0.8157   19.5102    8.5544 C.ar      6 RES6    0.0000
    159 C60        0.6680   20.5139    9.5273 C.ar      6 RES6    0.0000
    160 H64        0.4869   20.2668   10.4054 H         6 RES6    0.0000
    161 C61        0.7806   21.8428    9.2252 C.ar      6 RES6    0.0000
    162 H65        0.6980   22.4771    9.9005 H         6 RES6    0.0000
    163 C62        0.7168   18.0886    8.9172 C.2       6 RES6    0.0000
    164 C63        0.8526   24.6347    8.5885 C.3       6 RES6    0.0000
    165 H66        1.6280   24.7342    9.1630 H         6 RES6    0.0000
    166 H67        0.0924   24.4003    9.1438 H         6 RES6    0.0000
    167 C64        0.5721   25.9469    7.8585 C.3       6 RES6    0.0000
    168 H68       -0.1639   25.8160    7.2410 H         6 RES6    0.0000
    169 H69        0.3038   26.6173    8.5041 H         6 RES6    0.0000
    170 C65        1.7677   26.4377    7.1048 C.2       6 RES6    0.0000
    171 H70        2.5509   26.5772    7.5860 H         6 RES6    0.0000
    172 C66        1.7939   26.6888    5.8106 C.2       6 RES6    0.0000
    173 H71        1.0283   26.5639    5.2967 H         6 RES6    0.0000
    174 H72        2.5771   26.9913    5.4108 H         6 RES6    0.0000
    175 O25        4.3458   21.8748    7.8777 O.2       7 RES7    0.0000
    176 O26        4.3800   24.0037    8.3131 O.2       7 RES7    0.0000
    177 O27        5.3417   27.3585    4.9902 O.2       7 RES7    0.0000
    178 O28        5.7306   26.6714    2.8875 O.3       7 RES7    0.0000
    179 H73        5.8139   27.4787    2.7661 H         7 RES7    0.0000
    180 N13        4.7563   20.9867    5.4433 N.3       7 RES7    0.0000
    181 H74        4.5791   20.7610    6.2518 H         7 RES7    0.0000
    182 N14        4.5058   23.0628    7.5327 N.pl3     7 RES7    0.0000
    183 C67        4.9370   22.2895    5.1649 C.ar      7 RES7    0.0000
    184 C68        4.8240   23.3372    6.1452 C.ar      7 RES7    0.0000
    185 C69        4.9987   24.6788    5.8002 C.ar      7 RES7    0.0000
    186 H75        4.9244   25.3419    6.4503 H         7 RES7    0.0000
    187 C70        5.2807   25.0247    4.4927 C.ar      7 RES7    0.0000
    188 C71        5.3992   24.0217    3.5109 C.ar      7 RES7    0.0000
    189 H76        5.5912   24.2601    2.6313 H         7 RES7    0.0000
    190 C72        5.2374   22.7122    3.8352 C.ar      7 RES7    0.0000
    191 H77        5.3238   22.0698    3.1689 H         7 RES7    0.0000
    192 C73        5.4555   26.4464    4.1388 C.2       7 RES7    0.0000
    193 C74        4.8498   19.9336    4.4127 C.3       7 RES7    0.0000
    194 H78        5.7614   19.8662    4.0899 H         7 RES7    0.0000
    195 H79        4.2752   20.1533    3.6620 H         7 RES7    0.0000
    196 C75        4.4161   18.5987    5.0258 C.3       7 RES7    0.0000
    197 H80        3.4929   18.6708    5.3145 H         7 RES7    0.0000
    198 H81        4.4642   17.9096    4.3490 H         7 RES7    0.0000
    199 C76        5.2232   18.2201    6.1363 C.2       7 RES7    0.0000
    200 H82        6.1456   18.1901    6.0253 H         7 RES7    0.0000
    201 C77        4.7061   17.9049    7.3432 C.2       7 RES7    0.0000
    202 H83        3.7856   17.9296    7.4750 H         7 RES7    0.0000
    203 H84        5.2695   17.6625    8.0421 H         7 RES7    0.0000
    204 O29        8.9940   24.8871    1.6511 O.2       8 RES8    0.0000
    205 O30        8.8964   23.3132    0.1658 O.2       8 RES8    0.0000
    206 O31        8.4734   18.7223    1.2350 O.3       8 RES8    0.0000
    207 H85        8.4290   17.9163    1.1032 H         8 RES8    0.0000
    208 O32        8.2467   18.0645    3.3806 O.2       8 RES8    0.0000
    209 N15        8.8689   24.3462    4.2128 N.3       8 RES8    0.0000
    210 H86        8.9595   24.9679    3.6235 H         8 RES8    0.0000
    211 N16        8.8797   23.6925    1.3416 N.pl3     8 RES8    0.0000
    212 C78        8.7049   23.0848    3.7715 C.ar      8 RES8    0.0000
    213 C79        8.7013   22.7082    2.3929 C.ar      8 RES8    0.0000
    214 C80        8.5865   21.3833    1.9916 C.ar      8 RES8    0.0000
    215 H87        8.6106   21.1683    1.0869 H         8 RES8    0.0000
    216 C81        8.4365   20.3817    2.9305 C.ar      8 RES8    0.0000
    217 C82        8.4027   20.7089    4.3017 C.ar      8 RES8    0.0000
    218 H88        8.2994   20.0331    4.9339 H         8 RES8    0.0000
    219 C83        8.5218   22.0177    4.7089 C.ar      8 RES8    0.0000
    220 H89        8.4836   22.2167    5.6181 H         8 RES8    0.0000
    221 C84        8.3740   18.9633    2.5203 C.2       8 RES8    0.0000
    222 C85        8.9031   24.7395    5.6151 C.3       8 RES8    0.0000
    223 H90        9.4194   24.0998    6.1275 H         8 RES8    0.0000
    224 H91        8.0026   24.7676    5.9749 H         8 RES8    0.0000
    225 C86        9.5464   26.1285    5.7173 C.3       8 RES8    0.0000
    226 H92        9.6228   26.3769    6.6516 H         8 RES8    0.0000
    227 H93       10.4415   26.0965    5.3426 H         8 RES8    0.0000
    228 C87        8.7434   27.1629    4.9917 C.2       8 RES8    0.0000
    229 H94        7.9612   27.4654    5.3930 H         8 RES8    0.0000
    230 C88        9.0718   27.6757    3.8189 C.2       8 RES8    0.0000
    231 H95        9.8481   27.3986    3.3895 H         8 RES8    0.0000
    232 H96        8.5266   28.3134    3.4221 H         8 RES8    0.0000
    233 O33       12.4881   25.1289    4.0410 O.2       9 RES9    0.0000
    234 O34       11.9682   23.5870    5.4848 O.2       9 RES9    0.0000
    235 O35       11.5701   19.0054    4.3624 O.3       9 RES9    0.0000
    236 H97       11.4807   18.2034    4.4882 H         9 RES9    0.0000
    237 O36       11.6104   18.3423    2.2138 O.2       9 RES9    0.0000
    238 N17       12.2418   24.6420    1.4660 N.3       9 RES9    0.0000
    239 H98       12.4215   25.2484    2.0509 H         9 RES9    0.0000
    240 N18       12.2022   23.9522    4.3179 N.pl3     9 RES9    0.0000
    241 C89       12.1553   23.3679    1.8895 C.ar      9 RES9    0.0000
    242 C90       12.1163   22.9853    3.2518 C.ar      9 RES9    0.0000
    243 C91       11.9511   21.6524    3.6427 C.ar      9 RES9    0.0000
    244 H99       11.9073   21.4354    4.5460 H         9 RES9    0.0000
    245 C92       11.8517   20.6555    2.6876 C.ar      9 RES9    0.0000
    246 C93       11.9222   21.0074    1.3283 C.ar      9 RES9    0.0000
    247 H100      11.8649   20.3403    0.6826 H         9 RES9    0.0000
    248 C94       12.0715   22.3162    0.9284 C.ar      9 RES9    0.0000
    249 H101      12.1198   22.5172    0.0222 H         9 RES9    0.0000
    250 C95       11.6841   19.2385    3.0696 C.2       9 RES9    0.0000
    251 C96       12.0554   25.0694    0.0874 C.3       9 RES9    0.0000
    252 H102      11.3286   24.5673   -0.3169 H         9 RES9    0.0000
    253 H103      12.8625   24.8945   -0.4220 H         9 RES9    0.0000
    254 C97       11.7343   26.5712    0.0607 C.3       9 RES9    0.0000
    255 H104      11.5309   26.8377   -0.8485 H         9 RES9    0.0000
    256 H105      10.9480   26.7375    0.6042 H         9 RES9    0.0000
    257 C98       12.8650   27.3866    0.5701 C.2       9 RES9    0.0000
    258 H106      13.6436   27.4053    0.0637 H         9 RES9    0.0000
    259 C99       12.8500   28.1004    1.7044 C.2       9 RES9    0.0000
    260 H107      12.0893   28.1064    2.2389 H         9 RES9    0.0000
    261 H108      13.6014   28.5872    1.9561 H         9 RES9    0.0000
    262 O37        7.7002   -2.8126    8.9839 O.2      10 RES10   0.0000
    263 O38        8.1502   -1.2614    7.5431 O.2      10 RES10   0.0000
    264 O39        8.2376    3.3515    8.6640 O.3      10 RES10   0.0000
    265 H109       8.2854    4.1602    8.5396 H        10 RES10   0.0000
    266 O40        8.1093    3.9986   10.8037 O.2      10 RES10   0.0000
    267 N19        7.8922   -2.3118   11.5560 N.3      10 RES10   0.0000
    268 H110       7.7830   -2.9248   10.9652 H        10 RES10   0.0000
    269 N20        7.9201   -1.6213    8.7099 N.pl3    10 RES10   0.0000
    270 C100       7.8983   -1.0417   11.1428 C.ar     10 RES10   0.0000
    271 C101       7.9250   -0.6517    9.7509 C.ar     10 RES10   0.0000
    272 C102       8.0104    0.6891    9.3733 C.ar     10 RES10   0.0000
    273 H111       8.0460    0.9082    8.4715 H        10 RES10   0.0000
    274 C103       8.0450    1.6908   10.3255 C.ar     10 RES10   0.0000
    275 C104       7.9834    1.3395   11.6952 C.ar     10 RES10   0.0000
    276 H112       7.9886    2.0100   12.3408 H        10 RES10   0.0000
    277 C105       7.9165    0.0307   12.0817 C.ar     10 RES10   0.0000
    278 H113       7.8799   -0.1669   12.9894 H        10 RES10   0.0000
    279 C106       8.1376    3.1118    9.9449 C.2      10 RES10   0.0000
    280 C107       8.0569   -2.7245   12.9449 C.3      10 RES10   0.0000
    281 H114       7.2284   -2.5909   13.4306 H        10 RES10   0.0000
    282 H115       8.7498   -2.1903   13.3685 H        10 RES10   0.0000
    283 C108       8.4416   -4.2049   12.9746 C.3      10 RES10   0.0000
    284 H116       9.2440   -4.3338   12.4459 H        10 RES10   0.0000
    285 H117       8.6415   -4.4607   13.8882 H        10 RES10   0.0000
    286 C109       7.3611   -5.0831   12.4444 C.2      10 RES10   0.0000
    287 H118       6.5860   -5.1485   12.9538 H        10 RES10   0.0000
    288 C110       7.3939   -5.7735   11.3309 C.2      10 RES10   0.0000
    289 H119       8.1470   -5.7428   10.7860 H        10 RES10   0.0000
    290 H120       6.6642   -6.2971   11.0851 H        10 RES10   0.0000
    291 O41        5.7919   36.0556    3.9418 O.2      11 RES11   0.0000
    292 O42        5.7414   34.4803    5.4345 O.2      11 RES11   0.0000
    293 O43        5.8595   29.8667    4.3772 O.3      11 RES11   0.0000
    294 H121       5.8513   29.0547    4.5119 H        11 RES11   0.0000
    295 O44        6.0567   29.1869    2.2478 O.2      11 RES11   0.0000
    296 N21        5.8176   35.4780    1.3919 N.3      11 RES11   0.0000
    297 H122       5.7758   36.0996    1.9842 H        11 RES11   0.0000
    298 N22        5.8141   34.8482    4.2513 N.pl3    11 RES11   0.0000
    299 C111       5.9206   34.2185    1.8228 C.ar     11 RES11   0.0000
    300 C112       5.9155   33.8566    3.2133 C.ar     11 RES11   0.0000
    301 C113       5.9628   32.5224    3.6190 C.ar     11 RES11   0.0000
    302 H123       5.9542   32.3201    4.5267 H        11 RES11   0.0000
    303 C114       6.0206   31.5020    2.6965 C.ar     11 RES11   0.0000
    304 C115       6.0803   31.8379    1.3223 C.ar     11 RES11   0.0000
    305 H124       6.1476   31.1581    0.6900 H        11 RES11   0.0000
    306 C116       6.0410   33.1408    0.9092 C.ar     11 RES11   0.0000
    307 H125       6.0967   33.3284   -0.0015 H        11 RES11   0.0000
    308 C117       5.9905   30.0931    3.1096 C.2      11 RES11   0.0000
    309 C118       5.7680   35.8773   -0.0222 C.3      11 RES11   0.0000
    310 H126       5.2091   35.2583   -0.5198 H        11 RES11   0.0000
    311 H127       6.6600   35.8526   -0.4028 H        11 RES11   0.0000
    312 C119       5.1955   37.2936   -0.1170 C.3      11 RES11   0.0000
    313 H128       5.1071   37.5420   -1.0514 H        11 RES11   0.0000
    314 H129       4.3111   37.3083    0.2813 H        11 RES11   0.0000
    315 C120       6.0631   38.2893    0.5745 C.2      11 RES11   0.0000
    316 H130       6.8527   38.5437    0.1525 H        11 RES11   0.0000
    317 C121       5.7869   38.8362    1.7458 C.2      11 RES11   0.0000
    318 H131       5.0060   38.6038    2.1945 H        11 RES11   0.0000
    319 H132       6.3743   39.4519    2.1220 H        11 RES11   0.0000
    320 O45        3.4588   -0.2117   -2.2537 O.2      12 RES12   0.0000
    321 O46        3.5862    1.9112   -2.6743 O.2      12 RES12   0.0000
    322 O47        2.7534    5.3081    0.6678 O.2      12 RES12   0.0000
    323 O48        2.4669    4.6410    2.7883 O.3      12 RES12   0.0000
    324 H133       2.4247    5.4490    2.9112 H        12 RES12   0.0000
    325 N23        3.0887   -1.0771    0.2177 N.3      12 RES12   0.0000
    326 H134       3.2398   -1.3222   -0.5938 H        12 RES12   0.0000
    327 N24        3.3998    0.9749   -1.8747 N.pl3    12 RES12   0.0000
    328 C122       2.9636    0.2317    0.4753 C.ar     12 RES12   0.0000
    329 C123       3.1122    1.2761   -0.4946 C.ar     12 RES12   0.0000
    330 C124       3.0072    2.6250   -0.1510 C.ar     12 RES12   0.0000
    331 H135       3.1033    3.2788   -0.8041 H        12 RES12   0.0000
    332 C125       2.7576    2.9916    1.1624 C.ar     12 RES12   0.0000
    333 C126       2.5894    1.9826    2.1294 C.ar     12 RES12   0.0000
    334 H136       2.4055    2.2237    3.0089 H        12 RES12   0.0000
    335 C127       2.6914    0.6631    1.8036 C.ar     12 RES12   0.0000
    336 H137       2.5794    0.0267    2.4714 H        12 RES12   0.0000
    337 C128       2.6609    4.4079    1.5356 C.2      12 RES12   0.0000
    338 C129       2.9800   -2.1122    1.2439 C.3      12 RES12   0.0000
    339 H138       2.0860   -2.1035    1.6200 H        12 RES12   0.0000
    340 H139       3.6102   -1.9299    1.9576 H        12 RES12   0.0000
    341 C130       3.2689   -3.4797    0.6501 C.3      12 RES12   0.0000
    342 H140       4.1843   -3.4924    0.3287 H        12 RES12   0.0000
    343 H141       3.1914   -4.1469    1.3505 H        12 RES12   0.0000
    344 C131       2.3616   -3.8490   -0.4679 C.2      12 RES12   0.0000
    345 H142       1.4495   -3.8664   -0.2917 H        12 RES12   0.0000
    346 C132       2.7463   -4.1515   -1.6807 C.2      12 RES12   0.0000
    347 H143       3.6518   -4.1469   -1.8969 H        12 RES12   0.0000
    348 H144       2.1167   -4.3739   -2.3278 H        12 RES12   0.0000
@<TRIPOS>BOND
     1    1    8 2
     2    2    8 2
     3    3    4 1
     4    5   18 2
     5    6    7 1
     6    8   10 1
     7    9    6 1
     8   10    9 ar
     9   11   10 ar
    10   12   11 1
    11   13   11 ar
    12   14   13 ar
    13   15   14 1
    14   16    9 ar
    15   17   16 1
    16   18    3 1
    17   19    6 1
    18   20   19 1
    19   21   19 1
    20   22   19 1
    21   23   22 1
    22   24   22 1
    23   25   22 1
    24   26   25 1
    25   27   25 2
    26   28   27 1
    27   29   27 1
    28   30   37 2
    29   31   37 2
    30   32   33 1
    31   34   47 2
    32   35   36 1
    33   37   39 1
    34   38   35 1
    35   39   38 ar
    36   40   39 ar
    37   41   40 1
    38   42   40 ar
    39   43   42 ar
    40   44   43 1
    41   45   38 ar
    42   46   45 1
    43   47   32 1
    44   48   35 1
    45   49   48 1
    46   50   48 1
    47   51   48 1
    48   52   51 1
    49   53   51 1
    50   54   51 1
    51   55   54 1
    52   56   54 2
    53   57   56 1
    54   58   56 1
    55   59   66 2
    56   60   66 2
    57   61   62 1
    58   63   76 2
    59   64   65 1
    60   66   68 1
    61   67   64 1
    62   68   67 ar
    63   69   68 ar
    64   70   69 1
    65   71   69 ar
    66   72   71 ar
    67   73   72 1
    68   74   67 ar
    69   75   74 1
    70   76   61 1
    71   77   64 1
    72   78   77 1
    73   79   77 1
    74   80   77 1
    75   81   80 1
    76   82   80 1
    77   83   80 1
    78   84   83 1
    79   85   83 2
    80   86   85 1
    81   87   85 1
    82   88   95 2
    83   89   95 2
    84   90   91 1
    85   92  105 2
    86   93   94 1
    87   95   97 1
    88   96   93 1
    89   97   96 ar
    90   98   97 ar
    91   99   98 1
    92  100   98 ar
    93  101  100 ar
    94  102  101 1
    95  103   96 ar
    96  104  103 1
    97  105   90 1
    98  106   93 1
    99  107  106 1
   100  108  106 1
   101  109  106 1
   102  110  109 1
   103  111  109 1
   104  112  109 1
   105  113  112 1
   106  114  112 2
   107  115  114 1
   108  116  114 1
   109  117  124 2
   110  118  124 2
   111  119  120 1
   112  121  134 2
   113  122  123 1
   114  124  126 1
   115  125  122 1
   116  126  125 ar
   117  127  126 ar
   118  128  127 1
   119  129  127 ar
   120  130  129 ar
   121  131  130 1
   122  132  125 ar
   123  133  132 1
   124  134  119 1
   125  135  122 1
   126  136  135 1
   127  137  135 1
   128  138  135 1
   129  139  138 1
   130  140  138 1
   131  141  138 1
   132  142  141 1
   133  143  141 2
   134  144  143 1
   135  145  143 1
   136  146  153 2
   137  147  153 2
   138  148  149 1
   139  150  163 2
   140  151  152 1
   141  153  155 1
   142  154  151 1
   143  155  154 ar
   144  156  155 ar
   145  157  156 1
   146  158  156 ar
   147  159  158 ar
   148  160  159 1
   149  161  154 ar
   150  162  161 1
   151  163  148 1
   152  164  151 1
   153  165  164 1
   154  166  164 1
   155  167  164 1
   156  168  167 1
   157  169  167 1
   158  170  167 1
   159  171  170 1
   160  172  170 2
   161  173  172 1
   162  174  172 1
   163  175  182 2
   164  176  182 2
   165  177  192 2
   166  178  179 1
   167  180  181 1
   168  182  184 1
   169  183  180 1
   170  184  183 ar
   171  185  184 ar
   172  186  185 1
   173  187  185 ar
   174  188  187 ar
   175  189  188 1
   176  190  183 ar
   177  191  190 1
   178  192  178 1
   179  193  180 1
   180  194  193 1
   181  195  193 1
   182  196  193 1
   183  197  196 1
   184  198  196 1
   185  199  196 1
   186  200  199 1
   187  201  199 2
   188  202  201 1
   189  203  201 1
   190  204  211 2
   191  205  211 2
   192  206  207 1
   193  208  221 2
   194  209  210 1
   195  211  213 1
   196  212  209 1
   197  213  212 ar
   198  214  213 ar
   199  215  214 1
   200  216  214 ar
   201  217  216 ar
   202  218  217 1
   203  219  212 ar
   204  220  219 1
   205  221  206 1
   206  222  209 1
   207  223  222 1
   208  224  222 1
   209  225  222 1
   210  226  225 1
   211  227  225 1
   212  228  225 1
   213  229  228 1
   214  230  228 2
   215  231  230 1
   216  232  230 1
   217  233  240 2
   218  234  240 2
   219  235  236 1
   220  237  250 2
   221  238  239 1
   222  240  242 1
   223  241  238 1
   224  242  241 ar
   225  243  242 ar
   226  244  243 1
   227  245  243 ar
   228  246  245 ar
   229  247  246 1
   230  248  241 ar
   231  249  248 1
   232  250  235 1
   233  251  238 1
   234  252  251 1
   235  253  251 1
   236  254  251 1
   237  255  254 1
   238  256  254 1
   239  257  254 1
   240  258  257 1
   241  259  257 2
   242  260  259 1
   243  261  259 1
   244  262  269 2
   245  263  269 2
   246  264  265 1
   247  266  279 2
   248  267  268 1
   249  269  271 1
   250  270  267 1
   251  271  270 ar
   252  272  271 ar
   253  273  272 1
   254  274  272 ar
   255  275  274 ar
   256  276  275 1
   257  277  270 ar
   258  278  277 1
   259  279  264 1
   260  280  267 1
   261  281  280 1
   262  282  280 1
   263  283  280 1
   264  284  283 1
   265  285  283 1
   266  286  283 1
   267  287  286 1
   268  288  286 2
   269  289  288 1
   270  290  288 1
   271  291  298 2
   272  292  298 2
   273  293  294 1
   274  295  308 2
   275  296  297 1
   276  298  300 1
   277  299  296 1
   278  300  299 ar
   279  301  300 ar
   280  302  301 1
   281  303  301 ar
   282  304  303 ar
   283  305  304 1
   284  306  299 ar
   285  307  306 1
   286  308  293 1
   287  309  296 1
   288  310  309 1
   289  311  309 1
   290  312  309 1
   291  313  312 1
   292  314  312 1
   293  315  312 1
   294  316  315 1
   295  317  315 2
   296  318  317 1
   297  319  317 1
   298  320  327 2
   299  321  327 2
   300  322  337 2
   301  323  324 1
   302  325  326 1
   303  327  329 1
   304  328  325 1
   305  329  328 ar
   306  330  329 ar
   307  331  330 1
   308  332  330 ar
   309  333  332 ar
   310  334  333 1
   311  335  328 ar
   312  336  335 1
   313  337  323 1
   314  338  325 1
   315  339  338 1
   316  340  338 1
   317  341  338 1
   318  342  341 1
   319  343  341 1
   320  344  341 1
   321  345  344 1
   322  346  344 2
   323  347  346 1
   324  348  346 1
   325   13   18 1
   326   14   16 ar
   327   42   47 1
   328   43   45 ar
   329   71   76 1
   330   72   74 ar
   331  100  105 1
   332  101  103 ar
   333  129  134 1
   334  130  132 ar
   335  158  163 1
   336  159  161 ar
   337  187  192 1
   338  188  190 ar
   339  216  221 1
   340  217  219 ar
   341  245  250 1
   342  246  248 ar
   343  274  279 1
   344  275  277 ar
   345  303  308 1
   346  304  306 ar
   347  332  337 1
   348  333  335 ar
@<TRIPOS>SUBSTRUCTURE
     1 RES1 1
     2 RES2 30
     3 RES3 59
     4 RES4 88
     5 RES5 117
     6 RES6 146
     7 RES7 175
     8 RES8 204
     9 RES9 233
    10 RES10 262
    11 RES11 291
    12 RES12 320

@<TRIPOS>CRYSIN
  13.3461   66.7770   15.0195  90.0000  99.6320  90.0000   9 1

