# MOL2 file generated by ConQuest
# Please check atom types

@<TRIPOS>MOLECULE
POWLET
    89    62     3
SMALL
NO_CHARGES
****
Generated from CSD

@<TRIPOS>ATOM
      1 O1        -0.8250   14.1937   20.3820 O.3       1 RES1    0.0000
      2 H1        -0.9764   14.4985   21.1271 H         1 RES1    0.0000
      3 O2        -0.5664   16.3652   19.8924 O.2       1 RES1    0.0000
      4 O3         0.3919   17.5881   15.3665 O.2       1 RES1    0.0000
      5 O4         0.8736   16.1678   13.8115 O.2       1 RES1    0.0000
      6 N1         0.5261   16.4282   14.9776 N.pl3     1 RES1    0.0000
      7 N2         0.6216   13.5855   14.2398 N.3       1 RES1    0.0000
      8 C1         0.2719   15.3423   15.9031 C.ar      1 RES1    0.0000
      9 C2        -0.0130   15.7113   17.2159 C.ar      1 RES1    0.0000
     10 H2        -0.0391   16.6119   17.4455 H         1 RES1    0.0000
     11 C3        -0.2563   14.7545   18.1822 C.ar      1 RES1    0.0000
     12 C4        -0.2068   13.4021   17.7951 C.ar      1 RES1    0.0000
     13 H3        -0.3653   12.7435   18.4315 H         1 RES1    0.0000
     14 C5         0.0676   13.0302   16.5120 C.ar      1 RES1    0.0000
     15 H4         0.0836   12.1255   16.2973 H         1 RES1    0.0000
     16 C6         0.3302   13.9835   15.4939 C.ar      1 RES1    0.0000
     17 C7         0.6941   12.1976   13.7598 C.3       1 RES1    0.0000
     18 H5         1.1374   11.6601   14.4490 H         1 RES1    0.0000
     19 C8         1.5625   12.1696   12.5070 C.3       1 RES1    0.0000
     20 H6         1.6461   11.2638   12.1995 H         1 RES1    0.0000
     21 H7         2.4410   12.4919   12.7224 H         1 RES1    0.0000
     22 C9         0.9695   13.0282   11.3735 C.3       1 RES1    0.0000
     23 H8         1.4693   12.8835   10.5668 H         1 RES1    0.0000
     24 H9         1.0159   13.9559   11.6168 H         1 RES1    0.0000
     25 H10        0.0528   12.7797   11.2305 H         1 RES1    0.0000
     26 C10       -0.6936   11.6129   13.5259 C.3       1 RES1    0.0000
     27 H11       -1.2005   11.6569   14.3401 H         1 RES1    0.0000
     28 H12       -1.1412   12.1177   12.8440 H         1 RES1    0.0000
     29 H13       -0.6154   10.6977   13.2474 H         1 RES1    0.0000
     30 C11       -0.5584   15.1787   19.5501 C.2       1 RES1    0.0000
     31 O5         4.1979    9.1485   11.7462 O.3       2 RES2    0.0000
     32 H14        4.4287    8.9475   10.9851 H         2 RES2    0.0000
     33 O6         4.5258    6.9575   12.0832 O.2       2 RES2    0.0000
     34 O7         3.7064    5.1468   16.4360 O.2       2 RES2    0.0000
     35 O8         3.1373    6.3498   18.1379 O.2       2 RES2    0.0000
     36 N3         3.4329    6.2378   16.9367 N.pl3     2 RES2    0.0000
     37 N4         2.8257    8.9491   17.9161 N.3       2 RES2    0.0000
     38 C12        3.4563    7.4187   16.1075 C.ar      2 RES2    0.0000
     39 C13        3.7955    7.2366   14.7687 C.ar      2 RES2    0.0000
     40 H15        3.9995    6.3844   14.4554 H         2 RES2    0.0000
     41 C14        3.8325    8.3044   13.9080 C.ar      2 RES2    0.0000
     42 C15        3.5240    9.5855   14.3892 C.ar      2 RES2    0.0000
     43 H16        3.5441   10.3125   13.8108 H         2 RES2    0.0000
     44 C16        3.1939    9.7731   15.7048 C.ar      2 RES2    0.0000
     45 H17        2.9875   10.6317   15.9963 H         2 RES2    0.0000
     46 C17        3.1545    8.7148   16.6300 C.ar      2 RES2    0.0000
     47 C18        2.6615   10.2794   18.5235 C.3       2 RES2    0.0000
     48 H18        2.0875   10.8157   17.9385 H         2 RES2    0.0000
     49 C19        1.9569   10.0986   19.8457 C.3       2 RES2    0.0000
     50 H19        2.3792    9.4083   20.3630 H         2 RES2    0.0000
     51 H20        1.0460    9.8391   19.6886 H         2 RES2    0.0000
     52 C20        1.9759   11.4840   20.6426 C.3       2 RES2    0.0000
     53 H21        1.6651   11.3424   21.5390 H         2 RES2    0.0000
     54 H22        1.4017   12.1145   20.2008 H         2 RES2    0.0000
     55 H23        2.8722   11.8283   20.6640 H         2 RES2    0.0000
     56 C21        3.9857   10.9902   18.6748 C.3       2 RES2    0.0000
     57 H24        4.3944   11.0641   17.8105 H         2 RES2    0.0000
     58 H25        3.8458   11.8677   19.0377 H         2 RES2    0.0000
     59 H26        4.5604   10.4901   19.2596 H         2 RES2    0.0000
     60 C22        4.2129    8.1031   12.4893 C.2       2 RES2    0.0000
     61 H27        0.7510   14.1997   13.7447 H         1 RES1    0.0000
     62 H28        2.8265    8.2085   18.3888 H         2 RES2    0.0000
     63 C23       -1.2592   12.1161   12.1333 Du        3 SUP3    0.0000
     64 C24        2.0240    9.0765   20.6426 Du        3 SUP3    0.0000
     65 C25        3.5123   12.0532   19.4688 Du        3 SUP3    0.0000
     66 H29       -1.2807   11.8787   14.2377 Du        3 SUP3    0.0000
     67 H30       -0.6474   10.6537   13.5184 Du        3 SUP3    0.0000
     68 H31        4.3944   11.0641   17.8105 Du        3 SUP3    0.0000
     69 H32        3.8458   11.8677   19.0377 Du        3 SUP3    0.0000
     70 H33        4.5604   10.4901   19.2596 Du        3 SUP3    0.0000
     71 H34        4.3405   11.2465   17.8211 Du        3 SUP3    0.0000
     72 H35        4.6316   10.4603   19.1465 Du        3 SUP3    0.0000
     73 H36        1.6461   11.2638   12.1995 Du        3 SUP3    0.0000
     74 H37        2.4410   12.4919   12.7224 Du        3 SUP3    0.0000
     75 H38        1.1444   12.6822   11.8110 Du        3 SUP3    0.0000
     76 H39        1.0274   10.2511   19.6609 Du        3 SUP3    0.0000
     77 H40        2.2456   10.8298   20.3951 Du        3 SUP3    0.0000
     78 H41        1.1242    9.6426   19.7014 Du        3 SUP3    0.0000
     79 H42        2.5025    9.5844   20.4463 Du        3 SUP3    0.0000
     80 H43        1.7875   10.9635   20.2264 Du        3 SUP3    0.0000
     81 H44       -2.1391   11.7513   11.9946 Du        3 SUP3    0.0000
     82 H45       -0.6795   11.8283   11.4269 Du        3 SUP3    0.0000
     83 H46       -1.3112   13.0753   12.1354 Du        3 SUP3    0.0000
     84 H47        1.6845    8.2981   20.1923 Du        3 SUP3    0.0000
     85 H48        1.4920    9.2479   21.4238 Du        3 SUP3    0.0000
     86 H49        2.9343    8.9287   20.8987 Du        3 SUP3    0.0000
     87 H50        4.1119   12.8002   19.3898 Du        3 SUP3    0.0000
     88 H51        3.4703   11.7733   20.3865 Du        3 SUP3    0.0000
     89 H52        2.6385   12.3111   19.1721 Du        3 SUP3    0.0000
@<TRIPOS>BOND
     1    1    2 1
     2    3   30 2
     3    4    6 2
     4    5    6 2
     5    6    8 1
     6    7   16 1
     7    8    9 ar
     8    9   10 1
     9   11    9 ar
    10   12   11 ar
    11   13   12 1
    12   14   12 ar
    13   15   14 1
    14   16    8 ar
    15   17    7 1
    16   18   17 1
    17   19   17 1
    18   20   19 1
    19   21   19 1
    20   22   19 1
    21   23   22 1
    22   24   22 1
    23   25   22 1
    24   26   17 1
    25   27   26 1
    26   28   26 1
    27   29   26 1
    28   30    1 1
    29   31   32 1
    30   33   60 2
    31   34   36 2
    32   35   36 2
    33   36   38 1
    34   37   46 1
    35   38   39 ar
    36   39   40 1
    37   41   39 ar
    38   42   41 ar
    39   43   42 1
    40   44   42 ar
    41   45   44 1
    42   46   38 ar
    43   47   37 1
    44   48   47 1
    45   49   47 1
    46   50   49 1
    47   51   49 1
    48   52   49 1
    49   53   52 1
    50   54   52 1
    51   55   52 1
    52   56   47 1
    53   57   56 1
    54   58   56 1
    55   59   56 1
    56   60   31 1
    57   61    7 1
    58   62   37 1
    59   11   30 1
    60   14   16 ar
    61   41   60 1
    62   44   46 ar
@<TRIPOS>SUBSTRUCTURE
     1 RES1 1
     2 RES2 31
     3 SUP3 63

@<TRIPOS>CRYSIN
   6.9722   15.7250   21.8111  90.0000 101.8960  90.0000  14 1

