# MOL2 file generated by ConQuest
# Please check atom types

@<TRIPOS>MOLECULE
POWMEU
    58    60     2
SMALL
NO_CHARGES
****
Generated from CSD

@<TRIPOS>ATOM
      1 O1         4.5560    6.9989   -0.8443 O.2       1 RES1    0.0000
      2 O2         3.2117    8.4981    0.1448 O.3       1 RES1    0.0000
      3 H1         3.7034    9.0387   -0.2152 H         1 RES1    0.0000
      4 O3        -0.4872    7.3573    2.6652 O.2       1 RES1    0.0000
      5 O4        -1.2116    5.3406    2.9275 O.2       1 RES1    0.0000
      6 N1        -0.3616    6.1472    2.5101 N.pl3     1 RES1    0.0000
      7 N2         0.3425    3.3072    2.3080 N.3       1 RES1    0.0000
      8 C1         0.8046    5.6457    1.8127 C.ar      1 RES1    0.0000
      9 C2         1.6154    6.6042    1.2188 C.ar      1 RES1    0.0000
     10 H2         1.3870    7.5036    1.2830 H         1 RES1    0.0000
     11 C3         2.7596    6.2372    0.5328 C.ar      1 RES1    0.0000
     12 C4         3.1078    4.8715    0.4751 C.ar      1 RES1    0.0000
     13 H3         3.8787    4.6145    0.0238 H         1 RES1    0.0000
     14 C5         2.3250    3.9152    1.0755 C.ar      1 RES1    0.0000
     15 H4         2.5878    3.0236    1.0357 H         1 RES1    0.0000
     16 C6         1.1166    4.2558    1.7602 C.ar      1 RES1    0.0000
     17 C7         0.6919    1.9138    2.4840 C.3       1 RES1    0.0000
     18 H5         1.5292    1.8237    2.9849 H         1 RES1    0.0000
     19 C8         0.6733    0.9605    1.2641 C.3       1 RES1    0.0000
     20 H6         0.1559    1.2909    0.5132 H         1 RES1    0.0000
     21 H7         1.5536    0.6673    0.9798 H         1 RES1    0.0000
     22 C9        -0.0792   -0.0689    2.1413 C.3       1 RES1    0.0000
     23 H8        -0.8543   -0.4614    1.7092 H         1 RES1    0.0000
     24 H9         0.4925   -0.7541    2.5204 H         1 RES1    0.0000
     25 C10       -0.4226    1.0756    3.1247 C.3       1 RES1    0.0000
     26 H10       -1.3115    1.4454    3.0025 H         1 RES1    0.0000
     27 H11       -0.2618    0.8552    4.0558 H         1 RES1    0.0000
     28 C11        3.5646    7.2962   -0.0992 C.2       1 RES1    0.0000
     29 O5         5.7411    2.6518    9.4688 O.2       2 RES2    0.0000
     30 O6         7.1673    1.2690    8.4282 O.3       2 RES2    0.0000
     31 H12        6.7839    0.6619    8.8430 H         2 RES2    0.0000
     32 O7        10.3239    3.1849    5.3530 O.2       2 RES2    0.0000
     33 O8        10.7430    5.3073    5.2476 O.2       2 RES2    0.0000
     34 N3        10.0864    4.3463    5.6870 N.pl3     2 RES2    0.0000
     35 N4         9.0807    7.0380    6.3556 N.3       2 RES2    0.0000
     36 C12        9.0090    4.5989    6.6149 C.ar      2 RES2    0.0000
     37 C13        8.4204    3.4752    7.1958 C.ar      2 RES2    0.0000
     38 H13        8.7475    2.6275    6.9962 H         2 RES2    0.0000
     39 C14        7.3569    3.6124    8.0657 C.ar      2 RES2    0.0000
     40 C15        6.8544    4.9068    8.3230 C.ar      2 RES2    0.0000
     41 H14        6.1265    5.0083    8.8927 H         2 RES2    0.0000
     42 C16        7.4189    6.0182    7.7504 C.ar      2 RES2    0.0000
     43 H15        7.0567    6.8553    7.9346 H         2 RES2    0.0000
     44 C17        8.5444    5.9264    6.8805 C.ar      2 RES2    0.0000
     45 C18        8.4744    8.3509    6.4566 C.3       2 RES2    0.0000
     46 H16        8.3343    8.5979    7.3946 H         2 RES2    0.0000
     47 C19        7.2108    8.6526    5.6145 C.3       2 RES2    0.0000
     48 H17        7.1106    8.0837    4.8359 H         2 RES2    0.0000
     49 H18        6.3910    8.6874    6.1313 H         2 RES2    0.0000
     50 C20        7.8191   10.0399    5.3059 C.3       2 RES2    0.0000
     51 H19        7.7514   10.3007    4.3744 H         2 RES2    0.0000
     52 H20        7.5031   10.7471    5.8902 H         2 RES2    0.0000
     53 C21        9.1985    9.4743    5.6985 C.3       2 RES2    0.0000
     54 H21        9.7248    9.1638    4.9456 H         2 RES2    0.0000
     55 H22        9.7173   10.0631    6.2689 H         2 RES2    0.0000
     56 C22        6.7224    2.4417    8.6895 C.2       2 RES2    0.0000
     57 H23       -0.3729    3.6143    2.7294 H         1 RES1    0.0000
     58 H24        9.6790    6.9615    5.8312 H         2 RES2    0.0000
@<TRIPOS>BOND
     1    1   28 2
     2    2    3 1
     3    4    6 2
     4    5    6 2
     5    6    8 1
     6    7   16 1
     7    8    9 ar
     8    9   10 1
     9   11    9 ar
    10   12   11 ar
    11   13   12 1
    12   14   12 ar
    13   15   14 1
    14   16    8 ar
    15   17    7 1
    16   18   17 1
    17   19   17 1
    18   20   19 1
    19   21   19 1
    20   22   19 1
    21   23   22 1
    22   24   22 1
    23   25   17 1
    24   26   25 1
    25   27   25 1
    26   28    2 1
    27   29   56 2
    28   30   31 1
    29   32   34 2
    30   33   34 2
    31   34   36 1
    32   35   44 1
    33   36   37 ar
    34   37   38 1
    35   39   37 ar
    36   40   39 ar
    37   41   40 1
    38   42   40 ar
    39   43   42 1
    40   44   36 ar
    41   45   35 1
    42   46   45 1
    43   47   45 1
    44   48   47 1
    45   49   47 1
    46   50   47 1
    47   51   50 1
    48   52   50 1
    49   53   45 1
    50   54   53 1
    51   55   53 1
    52   56   30 1
    53   57    7 1
    54   58   35 1
    55   11   28 1
    56   14   16 ar
    57   22   25 1
    58   39   56 1
    59   42   44 ar
    60   50   53 1
@<TRIPOS>SUBSTRUCTURE
     1 RES1 1
     2 RES2 29

@<TRIPOS>CRYSIN
   9.8555   10.5308   10.9110  74.8600  78.2650  84.8260   2 1

