# MOL2 file generated by ConQuest
# Please check atom types

@<TRIPOS>MOLECULE
POWPEX
    31    32     1
SMALL
NO_CHARGES
****
Generated from CSD

@<TRIPOS>ATOM
      1 N1         2.0862   10.0441    0.6849 N.2       1 RES1    0.0000
      2 O1         3.9512   10.5810    7.6707 O.2       1 RES1    0.0000
      3 O2        -0.0964    7.2220   -1.5323 O.2       1 RES1    0.0000
      4 C1         2.5509   10.5923    2.9579 C.ar      1 RES1    0.0000
      5 C2         0.9689    9.3315   -1.3539 C.ar      1 RES1    0.0000
      6 C3         0.6177    7.9515   -0.8463 C.2       1 RES1    0.0000
      7 N2         4.0163    9.7157    6.8077 N.pl3     1 RES1    0.0000
      8 C4         3.5082   10.0271    5.4700 C.ar      1 RES1    0.0000
      9 C5         1.6108   10.3383   -0.6129 C.ar      1 RES1    0.0000
     10 N3         1.0831    7.5598    0.3298 N.am      1 RES1    0.0000
     11 C6         2.0173   10.8918    1.6259 C.2       1 RES1    0.0000
     12 H1         1.6208   11.7186    1.4674 H         1 RES1    0.0000
     13 C7         2.4305   11.5161    3.9808 C.ar      1 RES1    0.0000
     14 H2         2.0118   12.3307    3.8171 H         1 RES1    0.0000
     15 C8         2.9232   11.2465    5.2406 C.ar      1 RES1    0.0000
     16 H3         2.8605   11.8781    5.9200 H         1 RES1    0.0000
     17 C9         0.5760    9.6256   -2.6528 C.ar      1 RES1    0.0000
     18 H4         0.1440    8.9711   -3.1536 H         1 RES1    0.0000
     19 C10        3.6334    9.0809    4.4772 C.ar      1 RES1    0.0000
     20 H5         4.0326    8.2597    4.6546 H         1 RES1    0.0000
     21 C11        3.1644    9.3669    3.2281 C.ar      1 RES1    0.0000
     22 H6         3.2537    8.7381    2.5490 H         1 RES1    0.0000
     23 O3         4.4898    8.6105    7.0065 O.2       1 RES1    0.0000
     24 C12        0.8071   10.8601   -3.2219 C.ar      1 RES1    0.0000
     25 H7         0.5332   11.0318   -4.0935 H         1 RES1    0.0000
     26 C13        1.4449   11.8353   -2.4927 C.ar      1 RES1    0.0000
     27 H8         1.6061   12.6692   -2.8716 H         1 RES1    0.0000
     28 C14        1.8436   11.5777   -1.2020 C.ar      1 RES1    0.0000
     29 H9         2.2751   12.2424   -0.7154 H         1 RES1    0.0000
     30 H10        1.5671    8.1174    0.8038 H         1 RES1    0.0000
     31 H11        0.8120    6.7559    0.6425 H         1 RES1    0.0000
@<TRIPOS>BOND
     1    1    9 1
     2    2    7 2
     3    3    6 2
     4    4   11 1
     5    5    6 1
     6    6   10 1
     7    7    8 1
     8    8   15 ar
     9    9    5 ar
    10   10   30 1
    11   11    1 2
    12   12   11 1
    13   13    4 ar
    14   14   13 1
    15   15   13 ar
    16   16   15 1
    17   17    5 ar
    18   18   17 1
    19   19    8 ar
    20   20   19 1
    21   21    4 ar
    22   22   21 1
    23   23    7 2
    24   24   17 ar
    25   25   24 1
    26   26   24 ar
    27   27   26 1
    28   28    9 ar
    29   29   28 1
    30   31   10 1
    31   19   21 ar
    32   26   28 ar
@<TRIPOS>SUBSTRUCTURE
     1 RES1 1

@<TRIPOS>CRYSIN
   7.3863   12.2657   14.1414  90.0000  97.2480  90.0000  14 1

