# MOL2 file generated by ConQuest
# Please check atom types

@<TRIPOS>MOLECULE
POWXUV
    42    42     2
SMALL
NO_CHARGES
****
Generated from CSD

@<TRIPOS>ATOM
      1 O1         2.3540   -6.3415   -3.5747 O.3       1 RES1    0.0000
      2 H1         2.3777   -5.6227   -3.9695 H         1 RES1    0.0000
      3 O2         1.6847   -2.7126    1.9205 O.2       1 RES1    0.0000
      4 O3         2.7952   -2.2793    0.1665 O.2       1 RES1    0.0000
      5 O4         9.6272    0.3744    2.5266 O.3       2 RES2    0.0000
      6 H2        10.0169   -0.3390    2.6299 H         2 RES2    0.0000
      7 O5         4.5790   -3.3316    3.4315 O.2       2 RES2    0.0000
      8 O6         5.3727   -3.8421    1.5338 O.2       2 RES2    0.0000
      9 N1         2.1251   -3.0249    0.8417 N.pl3     1 RES1    0.0000
     10 N2         5.2034   -3.0611    2.4326 N.pl3     2 RES2    0.0000
     11 C1         1.1782   -6.4045   -2.7748 C.3       1 RES1    0.0000
     12 H3         0.8334   -7.3113   -2.7887 H         1 RES1    0.0000
     13 H4         0.5014   -5.8240   -3.1571 H         1 RES1    0.0000
     14 C2         1.4299   -5.9947   -1.3489 C.ar      1 RES1    0.0000
     15 C3         1.4800   -6.9794   -0.3761 C.ar      1 RES1    0.0000
     16 H5         1.3590   -7.8658   -0.6320 H         1 RES1    0.0000
     17 C4         1.7026   -6.7033    0.9465 C.ar      1 RES1    0.0000
     18 H6         1.7256   -7.3868    1.5770 H         1 RES1    0.0000
     19 C5         1.8913   -5.3922    1.3242 C.ar      1 RES1    0.0000
     20 H7         2.0269   -5.1720    2.2183 H         1 RES1    0.0000
     21 C6         1.8750   -4.4115    0.3546 C.ar      1 RES1    0.0000
     22 C7         1.6470   -4.6427   -0.9966 C.ar      1 RES1    0.0000
     23 C8         1.5904   -3.5503   -2.0348 C.3       1 RES1    0.0000
     24 H8         1.7568   -2.7024   -1.6171 H         1 RES1    0.0000
     25 H9         0.7217   -3.5408   -2.4418 H         1 RES1    0.0000
     26 H10        2.2576   -3.7123   -2.7070 H         1 RES1    0.0000
     27 C9         8.7774    0.2926    1.3828 C.3       2 RES2    0.0000
     28 H11        9.1500   -0.3500    0.7584 H         2 RES2    0.0000
     29 H12        8.7563    1.1562    0.9419 H         2 RES2    0.0000
     30 C10        7.3875   -0.1117    1.7236 C.ar      2 RES2    0.0000
     31 C11        6.4460    0.8935    1.9007 C.ar      2 RES2    0.0000
     32 H13        6.6955    1.7759    1.7466 H         2 RES2    0.0000
     33 C12        5.1595    0.6268    2.2969 C.ar      2 RES2    0.0000
     34 H14        4.5545    1.3190    2.4341 H         2 RES2    0.0000
     35 C13        4.7806   -0.6787    2.4850 C.ar      2 RES2    0.0000
     36 H15        3.9137   -0.8840    2.7532 H         2 RES2    0.0000
     37 C14        5.6938   -1.6737    2.2736 C.ar      2 RES2    0.0000
     38 C15        7.0153   -1.4558    1.9138 C.ar      2 RES2    0.0000
     39 C16        8.0242   -2.5711    1.7759 C.3       2 RES2    0.0000
     40 H16        7.5937   -3.4142    1.9346 H         2 RES2    0.0000
     41 H17        8.7281   -2.4468    2.4171 H         2 RES2    0.0000
     42 H18        8.3942   -2.5616    0.8910 H         2 RES2    0.0000
@<TRIPOS>BOND
     1    1    2 1
     2    3    9 2
     3    4    9 2
     4    5    6 1
     5    7   10 2
     6    8   10 2
     7    9   21 1
     8   10   37 1
     9   11    1 1
    10   12   11 1
    11   13   11 1
    12   14   11 1
    13   15   14 ar
    14   16   15 1
    15   17   15 ar
    16   18   17 1
    17   19   17 ar
    18   20   19 1
    19   21   19 ar
    20   22   14 ar
    21   23   22 1
    22   24   23 1
    23   25   23 1
    24   26   23 1
    25   27    5 1
    26   28   27 1
    27   29   27 1
    28   30   27 1
    29   31   30 ar
    30   32   31 1
    31   33   31 ar
    32   34   33 1
    33   35   33 ar
    34   36   35 1
    35   37   35 ar
    36   38   30 ar
    37   39   38 1
    38   40   39 1
    39   41   39 1
    40   42   39 1
    41   21   22 ar
    42   37   38 ar
@<TRIPOS>SUBSTRUCTURE
     1 RES1 1
     2 RES2 5

@<TRIPOS>CRYSIN
  13.6010    7.8650   15.4330  90.0000  92.7300  90.0000 231 1

