# MOL2 file generated by ConQuest
# Please check atom types

@<TRIPOS>MOLECULE
POXXIJ
    44    47     1
SMALL
NO_CHARGES
****
Generated from CSD

@<TRIPOS>ATOM
      1 C1         8.6639    1.7282    2.1375 C.3       1 RES1    0.0000
      2 O1         9.2001    2.1986    0.8893 O.3       1 RES1    0.0000
      3 N1         8.0818    2.4355    0.0026 N.3       1 RES1    0.0000
      4 C2         7.1438    1.3493    0.3084 C.3       1 RES1    0.0000
      5 C3         7.3437    0.1284   -0.5919 C.3       1 RES1    0.0000
      6 N2         8.2261   -0.7372    0.2012 N.3       1 RES1    0.0000
      7 C4         7.7659   -0.6473    1.5862 C.3       1 RES1    0.0000
      8 C5         8.7906   -1.1609    2.5845 C.3       1 RES1    0.0000
      9 C6        10.0718   -0.3421    2.5244 C.3       1 RES1    0.0000
     10 C7         9.7949    1.0872    2.9048 C.3       1 RES1    0.0000
     11 C8         7.4695    0.8536    1.7418 C.3       1 RES1    0.0000
     12 C9         7.5221    3.7458    0.3308 C.3       1 RES1    0.0000
     13 C10        5.9953   -0.4915   -0.9562 C.3       1 RES1    0.0000
     14 C11        8.4191   -2.0850   -0.3112 C.3       1 RES1    0.0000
     15 C12        9.1943   -2.1082   -1.6054 C.ar      1 RES1    0.0000
     16 C13       10.2414   -1.2451   -1.8177 C.ar      1 RES1    0.0000
     17 C14       10.9746   -1.2946   -2.9875 C.ar      1 RES1    0.0000
     18 C15       10.6723   -2.2071   -3.9662 C.ar      1 RES1    0.0000
     19 C16        9.6525   -3.0880   -3.7603 C.ar      1 RES1    0.0000
     20 C17        8.9105   -3.0344   -2.5890 C.ar      1 RES1    0.0000
     21 H1         8.3314    2.5060    2.6528 H         1 RES1    0.0000
     22 H2         6.2088    1.6714    0.2554 H         1 RES1    0.0000
     23 H3         7.8117    0.4052   -1.4195 H         1 RES1    0.0000
     24 H4         6.9245   -1.1599    1.6862 H         1 RES1    0.0000
     25 H5         8.9944   -2.0997    2.3891 H         1 RES1    0.0000
     26 H6         8.4162   -1.1146    3.4896 H         1 RES1    0.0000
     27 H7        10.7348   -0.7231    3.1378 H         1 RES1    0.0000
     28 H8        10.4413   -0.3747    1.6178 H         1 RES1    0.0000
     29 H9        10.6100    1.6124    2.7619 H         1 RES1    0.0000
     30 H10        9.5843    1.1209    3.8625 H         1 RES1    0.0000
     31 H11        6.7031    1.0020    2.3512 H         1 RES1    0.0000
     32 H12        8.1871    4.4321    0.1669 H         1 RES1    0.0000
     33 H13        7.2637    3.7627    1.2659 H         1 RES1    0.0000
     34 H14        6.7431    3.9121   -0.2225 H         1 RES1    0.0000
     35 H15        5.4649    0.1547   -1.4479 H         1 RES1    0.0000
     36 H16        5.5263   -0.7441   -0.1458 H         1 RES1    0.0000
     37 H17        6.1386   -1.2777   -1.5050 H         1 RES1    0.0000
     38 H18        7.5436   -2.5007   -0.4541 H         1 RES1    0.0000
     39 H19        8.8979   -2.6165    0.3593 H         1 RES1    0.0000
     40 H20       10.4618   -0.6126   -1.1577 H         1 RES1    0.0000
     41 H21       11.6893   -0.6968   -3.1137 H         1 RES1    0.0000
     42 H22       11.1608   -2.2250   -4.7691 H         1 RES1    0.0000
     43 H23        9.4517   -3.7332   -4.4128 H         1 RES1    0.0000
     44 H24        8.2017   -3.6385   -2.4627 H         1 RES1    0.0000
@<TRIPOS>BOND
     1    1    2 1
     2    2    3 1
     3    3    4 1
     4    4    5 1
     5    5    6 1
     6    6    7 1
     7    7    8 1
     8    8    9 1
     9    9   10 1
    10   10    1 1
    11   11    1 1
    12   12    3 1
    13   13    5 1
    14   14    6 1
    15   15   14 1
    16   16   15 ar
    17   17   16 ar
    18   18   17 ar
    19   19   18 ar
    20   20   15 ar
    21   21    1 1
    22   22    4 1
    23   23    5 1
    24   24    7 1
    25   25    8 1
    26   26    8 1
    27   27    9 1
    28   28    9 1
    29   29   10 1
    30   30   10 1
    31   31   11 1
    32   32   12 1
    33   33   12 1
    34   34   12 1
    35   35   13 1
    36   36   13 1
    37   37   13 1
    38   38   14 1
    39   39   14 1
    40   40   16 1
    41   41   17 1
    42   42   18 1
    43   43   19 1
    44   44   20 1
    45    4   11 1
    46    7   11 1
    47   19   20 ar
@<TRIPOS>SUBSTRUCTURE
     1 RES1 1

@<TRIPOS>CRYSIN
   9.7500   10.5250   15.0350  90.0000  90.0000  90.0000  19 1

