# MOL2 file generated by ConQuest
# Please check atom types

@<TRIPOS>MOLECULE
POXYUW
    43    45     1
SMALL
NO_CHARGES
****
Generated from CSD

@<TRIPOS>ATOM
      1 O1         6.1051    3.3553    1.6634 O.2       1 RES1    0.0000
      2 N1         5.5990    2.7491    2.6649 N.3       1 RES1    0.0000
      3 C1         5.0626    1.3791    2.4926 C.3       1 RES1    0.0000
      4 C2         5.2044    0.6941    3.8437 C.3       1 RES1    0.0000
      5 C3         4.4656    1.3919    4.9695 C.3       1 RES1    0.0000
      6 C4         4.3889    2.8864    4.7385 C.3       1 RES1    0.0000
      7 C5         5.5885    3.4359    3.9768 C.3       1 RES1    0.0000
      8 C6         3.6193    1.4359    1.9845 C.ar      1 RES1    0.0000
      9 C7         3.1895    2.4725    1.1827 C.ar      1 RES1    0.0000
     10 C8         1.9208    2.4908    0.6520 C.ar      1 RES1    0.0000
     11 C9         1.0496    1.4707    0.9125 C.ar      1 RES1    0.0000
     12 C10        1.4493    0.4341    1.7006 C.ar      1 RES1    0.0000
     13 C11        2.7291    0.4194    2.2302 C.ar      1 RES1    0.0000
     14 C12        5.9081    0.6538    1.4480 C.3       1 RES1    0.0000
     15 C13        6.9307    3.2143    4.6866 C.ar      1 RES1    0.0000
     16 C14        7.0376    3.3791    6.0523 C.ar      1 RES1    0.0000
     17 C15        8.2796    3.2564    6.6819 C.ar      1 RES1    0.0000
     18 C16        9.3931    2.9762    5.9427 C.ar      1 RES1    0.0000
     19 C17        9.2911    2.8095    4.6073 C.ar      1 RES1    0.0000
     20 C18        8.0739    2.9286    3.9758 C.ar      1 RES1    0.0000
     21 C19        5.4071    4.9359    3.7467 C.3       1 RES1    0.0000
     22 H1         3.7982    3.1850    0.9927 H         1 RES1    0.0000
     23 H2         1.6508    3.2216    0.0930 H         1 RES1    0.0000
     24 H3         0.1678    1.4744    0.5483 H         1 RES1    0.0000
     25 H4         0.8574   -0.2875    1.8885 H         1 RES1    0.0000
     26 H5         3.0003   -0.3095    2.7667 H         1 RES1    0.0000
     27 H6         6.2746    3.5879    6.5565 H         1 RES1    0.0000
     28 H7         8.3207    3.3736    7.6012 H         1 RES1    0.0000
     29 H8        10.2379    2.9103    6.3754 H         1 RES1    0.0000
     30 H9        10.0780    2.5952    4.0855 H         1 RES1    0.0000
     31 H10        8.0159    2.8260    3.0115 H         1 RES1    0.0000
     32 H11        6.1472    0.6777    4.0600 H         1 RES1    0.0000
     33 H12        4.8946   -0.1996    3.7614 H         1 RES1    0.0000
     34 H13        3.5731    1.0348    5.0390 H         1 RES1    0.0000
     35 H14        4.9225    1.2106    5.8017 H         1 RES1    0.0000
     36 H15        4.3263    3.3352    5.5834 H         1 RES1    0.0000
     37 H16        3.5987    3.0861    4.2235 H         1 RES1    0.0000
     38 H17        6.8330    0.6300    1.7260 H         1 RES1    0.0000
     39 H18        5.5740   -0.2418    1.3511 H         1 RES1    0.0000
     40 H19        5.8699    1.1282    0.6011 H         1 RES1    0.0000
     41 H20        6.1497    5.2766    3.2308 H         1 RES1    0.0000
     42 H21        5.3547    5.3828    4.6024 H         1 RES1    0.0000
     43 H22        4.5891    5.0879    3.2778 H         1 RES1    0.0000
@<TRIPOS>BOND
     1    1    2 1
     2    2    3 1
     3    3    4 1
     4    4    5 1
     5    5    6 1
     6    6    7 1
     7    7    2 1
     8    8    3 1
     9    9    8 ar
    10   10    9 ar
    11   11   10 ar
    12   12   11 ar
    13   13    8 ar
    14   14    3 1
    15   15    7 1
    16   16   15 ar
    17   17   16 ar
    18   18   17 ar
    19   19   18 ar
    20   20   15 ar
    21   21    7 1
    22   22    9 1
    23   23   10 1
    24   24   11 1
    25   25   12 1
    26   26   13 1
    27   27   16 1
    28   28   17 1
    29   29   18 1
    30   30   19 1
    31   31   20 1
    32   32    4 1
    33   33    4 1
    34   34    5 1
    35   35    5 1
    36   36    6 1
    37   37    6 1
    38   38   14 1
    39   39   14 1
    40   40   14 1
    41   41   21 1
    42   42   21 1
    43   43   21 1
    44   12   13 ar
    45   19   20 ar
@<TRIPOS>SUBSTRUCTURE
     1 RES1 1

@<TRIPOS>CRYSIN
   8.8430   18.3150   10.7310  90.0000 114.1700  90.0000  14 1

