# MOL2 file generated by ConQuest
# Please check atom types

@<TRIPOS>MOLECULE
POXYAC
    32    33     1
SMALL
NO_CHARGES
****
Generated from CSD

@<TRIPOS>ATOM
      1 O1         4.3492    2.1983    5.3011 O.3       1 RES1    0.0000
      2 C1         5.6736    1.6886    5.2908 C.3       1 RES1    0.0000
      3 O2         6.5029    2.5445    4.4908 O.3       1 RES1    0.0000
      4 N1         6.0238    2.8691    3.2009 N.2       1 RES1    0.0000
      5 C2         4.7780    2.7199    2.9932 C.2       1 RES1    0.0000
      6 C3         3.7888    2.2433    3.9957 C.3       1 RES1    0.0000
      7 C4         5.7393    0.2796    4.7647 C.3       1 RES1    0.0000
      8 C5         6.2097    1.8281    6.6881 C.3       1 RES1    0.0000
      9 O3         2.0747    3.7092    1.2516 O.3       1 RES1    0.0000
     10 C6         2.3897    2.5969    0.4424 C.3       1 RES1    0.0000
     11 O4         3.5753    2.0502    1.0398 O.3       1 RES1    0.0000
     12 C7         4.3002    3.1277    1.6309 C.3       1 RES1    0.0000
     13 C8         3.3011    4.2957    1.6278 C.3       1 RES1    0.0000
     14 C9         1.3017    1.5900    0.5343 C.3       1 RES1    0.0000
     15 C10        2.6884    3.0320   -0.9829 C.3       1 RES1    0.0000
     16 H1         3.3927    1.4186    3.7570 H         1 RES1    0.0000
     17 H2         3.0305    2.9375    4.0205 H         1 RES1    0.0000
     18 H3         6.6459   -0.2221    4.8463 H         1 RES1    0.0000
     19 H4         5.0755   -0.3132    5.2494 H         1 RES1    0.0000
     20 H5         5.5084    0.2324    3.8469 H         1 RES1    0.0000
     21 H6         7.0836    1.5029    6.7181 H         1 RES1    0.0000
     22 H7         6.0688    2.7165    6.9372 H         1 RES1    0.0000
     23 H8         5.7357    1.2871    7.2514 H         1 RES1    0.0000
     24 H9         5.0601    3.3549    1.0925 H         1 RES1    0.0000
     25 H10        3.5591    4.9603    1.0336 H         1 RES1    0.0000
     26 H11        3.1869    4.6819    2.4464 H         1 RES1    0.0000
     27 H12        1.6360    0.8258    0.0558 H         1 RES1    0.0000
     28 H13        1.0957    1.4750    1.5534 H         1 RES1    0.0000
     29 H14        0.5284    1.9989    0.1323 H         1 RES1    0.0000
     30 H15        3.4716    3.7018   -1.0036 H         1 RES1    0.0000
     31 H16        2.8122    2.2438   -1.5183 H         1 RES1    0.0000
     32 H17        1.9296    3.6049   -1.2899 H         1 RES1    0.0000
@<TRIPOS>BOND
     1    1    2 1
     2    2    3 1
     3    3    4 1
     4    4    5 2
     5    5    6 1
     6    6    1 1
     7    7    2 1
     8    8    2 1
     9    9   10 1
    10   10   11 1
    11   11   12 1
    12   12    5 1
    13   13    9 1
    14   14   10 1
    15   15   10 1
    16   16    6 1
    17   17    6 1
    18   18    7 1
    19   19    7 1
    20   20    7 1
    21   21    8 1
    22   22    8 1
    23   23    8 1
    24   24   12 1
    25   25   13 1
    26   26   13 1
    27   27   14 1
    28   28   14 1
    29   29   14 1
    30   30   15 1
    31   31   15 1
    32   32   15 1
    33   12   13 1
@<TRIPOS>SUBSTRUCTURE
     1 RES1 1

@<TRIPOS>CRYSIN
   9.7680    5.6950   11.0200  90.0000 110.3000  90.0000   4 1

