# MOL2 file generated by ConQuest
# Please check atom types

@<TRIPOS>MOLECULE
POYHES
    48    51     1
SMALL
USER_CHARGES
****
Generated from CSD

@<TRIPOS>ATOM
      1 N1         4.8170    7.7241    7.0048 N.3       1 RES1    0.0000
      2 C1         4.4775    9.0007    7.2936 C.2       1 RES1    0.0000
      3 N2         5.1852    9.3781    8.3746 N.pl3     1 RES1    1.0000
      4 C2         5.7627    7.2986    7.9105 C.2       1 RES1    0.0000
      5 H1         6.1694    6.4626    7.9277 H         1 RES1    0.0000
      6 C3         5.9925    8.3153    8.7677 C.2       1 RES1    0.0000
      7 H2         6.5814    8.3067    9.4877 H         1 RES1    0.0000
      8 N3         5.0269   10.6690    8.8733 N.2       1 RES1   -1.0000
      9 C4         5.8916   11.0291    9.8260 C.2       1 RES1    0.0000
     10 O1         6.8209   10.3673   10.3420 O.2       1 RES1    0.0000
     11 C5         5.6834   12.4584   10.2545 C.ar      1 RES1    0.0000
     12 C6         4.5046   13.1587   10.0008 C.ar      1 RES1    0.0000
     13 H3         3.7958   12.7302    9.5786 H         1 RES1    0.0000
     14 C7         4.3798   14.4872   10.3728 C.ar      1 RES1    0.0000
     15 H4         3.5876   14.9445   10.2038 H         1 RES1    0.0000
     16 C8         5.4361   15.1402   10.9983 C.ar      1 RES1    0.0000
     17 H5         5.3588   16.0368   11.2315 H         1 RES1    0.0000
     18 C9         6.6030   14.4477   11.2720 C.ar      1 RES1    0.0000
     19 H6         7.3074   14.8773   11.7018 H         1 RES1    0.0000
     20 C10        6.7242   13.1135   10.9064 C.ar      1 RES1    0.0000
     21 H7         7.5086   12.6533   11.0999 H         1 RES1    0.0000
     22 C11        3.5049    9.8337    6.5647 C.ar      1 RES1    0.0000
     23 C12        2.4246   10.4010    7.2472 C.ar      1 RES1    0.0000
     24 H8         2.3227   10.2540    8.1599 H         1 RES1    0.0000
     25 C13        1.5062   11.1806    6.5653 C.ar      1 RES1    0.0000
     26 H9         0.7663   11.5379    7.0006 H         1 RES1    0.0000
     27 C14        1.7172   11.4145    5.2171 C.ar      1 RES1    0.0000
     28 C15        2.7772   10.8804    4.5131 C.ar      1 RES1    0.0000
     29 H10        2.8905   11.0597    3.6077 H         1 RES1    0.0000
     30 C16        3.6702   10.0661    5.2014 C.ar      1 RES1    0.0000
     31 H11        4.3824    9.6742    4.7477 H         1 RES1    0.0000
     32 C17        4.2902    6.9139    5.9072 C.3       1 RES1    0.0000
     33 H12        3.4012    7.2290    5.6806 H         1 RES1    0.0000
     34 H13        4.2109    5.9942    6.2051 H         1 RES1    0.0000
     35 C18        5.1588    6.9577    4.6658 C.ar      1 RES1    0.0000
     36 C19        4.7383    6.2580    3.5344 C.ar      1 RES1    0.0000
     37 H14        3.9274    5.8025    3.5477 H         1 RES1    0.0000
     38 C20        5.5234    6.2387    2.3903 C.ar      1 RES1    0.0000
     39 H15        5.2346    5.7682    1.6413 H         1 RES1    0.0000
     40 C21        6.7345    6.9138    2.3518 C.ar      1 RES1    0.0000
     41 H16        7.2622    6.8917    1.5871 H         1 RES1    0.0000
     42 C22        7.1487    7.6219    3.4724 C.ar      1 RES1    0.0000
     43 H17        7.9545    8.0856    3.4529 H         1 RES1    0.0000
     44 C23        6.3715    7.6432    4.6196 C.ar      1 RES1    0.0000
     45 H18        6.6613    8.1183    5.3651 H         1 RES1    0.0000
     46 N4         0.7917   12.3113    4.5011 N.pl3     1 RES1    0.0000
     47 O2        -0.2593   12.6158    5.0458 O.2       1 RES1    0.0000
     48 O3         1.1384   12.7230    3.3950 O.2       1 RES1    0.0000
@<TRIPOS>BOND
     1    1    2 1
     2    2    3 2
     3    3    6 1
     4    4    1 1
     5    5    4 1
     6    6    4 2
     7    7    6 1
     8    8    3 1
     9    9    8 1
    10   10    9 2
    11   11    9 1
    12   12   11 ar
    13   13   12 1
    14   14   12 ar
    15   15   14 1
    16   16   14 ar
    17   17   16 1
    18   18   16 ar
    19   19   18 1
    20   20   11 ar
    21   21   20 1
    22   22    2 1
    23   23   22 ar
    24   24   23 1
    25   25   23 ar
    26   26   25 1
    27   27   25 ar
    28   28   27 ar
    29   29   28 1
    30   30   22 ar
    31   31   30 1
    32   32    1 1
    33   33   32 1
    34   34   32 1
    35   35   32 1
    36   36   35 ar
    37   37   36 1
    38   38   36 ar
    39   39   38 1
    40   40   38 ar
    41   41   40 1
    42   42   40 ar
    43   43   42 1
    44   44   35 ar
    45   45   44 1
    46   46   27 1
    47   47   46 2
    48   48   46 2
    49   18   20 ar
    50   28   30 ar
    51   42   44 ar
@<TRIPOS>SUBSTRUCTURE
     1 RES1 1

@<TRIPOS>CRYSIN
   5.8732   16.3775   19.4994  90.0000  96.9849  90.0000 231 1

