# MOL2 file generated by ConQuest
# Please check atom types

@<TRIPOS>MOLECULE
POYXIL
    98   102     2
SMALL
USER_CHARGES
****
Generated from CSD

@<TRIPOS>ATOM
      1 N1        -0.1826   12.5067   -1.4501 N.4       1 RES1    1.0000
      2 C1        -0.1030   13.8515   -2.1881 C.3       1 RES1    0.0000
      3 C2        -0.4754   15.0266   -1.2766 C.3       1 RES1    0.0000
      4 C3        -0.6180   16.2836   -2.1212 C.3       1 RES1    0.0000
      5 C4         0.6701   16.5965   -2.8682 C.3       1 RES1    0.0000
      6 C5         1.1242   15.3978   -3.6969 C.3       1 RES1    0.0000
      7 C6         1.2507   14.1436   -2.8339 C.3       1 RES1    0.0000
      8 O1        -0.9174   17.4082   -1.3096 O.3       1 RES1    0.0000
      9 O2        -1.6881   14.8088   -0.5659 O.3       1 RES1    0.0000
     10 C7         0.1239   11.3430   -2.3811 C.3       1 RES1    0.0000
     11 C8        -0.8188   11.2259   -3.5502 C.ar      1 RES1    0.0000
     12 C9        -0.5643   11.8368   -4.7750 C.ar      1 RES1    0.0000
     13 C10       -1.4346   11.6831   -5.8439 C.ar      1 RES1    0.0000
     14 C11       -2.5538   10.8855   -5.7123 C.ar      1 RES1    0.0000
     15 C12       -2.8123   10.2542   -4.5159 C.ar      1 RES1    0.0000
     16 C13       -1.9536   10.4268   -3.4424 C.ar      1 RES1    0.0000
     17 C14        0.8005   12.4733   -0.2828 C.3       1 RES1    0.0000
     18 C15        0.7056   11.2277    0.5483 C.ar      1 RES1    0.0000
     19 C16       -0.3369   11.0364    1.4433 C.ar      1 RES1    0.0000
     20 C17       -0.3707    9.9080    2.2561 C.ar      1 RES1    0.0000
     21 C18        0.6340    8.9639    2.1701 C.ar      1 RES1    0.0000
     22 C19        1.6753    9.1516    1.2968 C.ar      1 RES1    0.0000
     23 C20        1.7218   10.2798    0.4899 C.ar      1 RES1    0.0000
     24 O3        -1.4907   12.3350   -0.9814 O.2       1 RES1   -1.0000
     25 H1        -0.7860   13.8075   -2.9304 H         1 RES1    0.0000
     26 H2         0.2633   15.1577   -0.6066 H         1 RES1    0.0000
     27 H3        -1.3609   16.1238   -2.8063 H         1 RES1    0.0000
     28 H4         0.5183   17.3835   -3.4556 H         1 RES1    0.0000
     29 H5         1.3791   16.7931   -2.1706 H         1 RES1    0.0000
     30 H6         0.4715   15.2231   -4.4363 H         1 RES1    0.0000
     31 H7         2.0220   15.6041   -4.0816 H         1 RES1    0.0000
     32 H8         1.5355   13.3662   -3.3858 H         1 RES1    0.0000
     33 H9         1.9122   14.3172   -2.1164 H         1 RES1    0.0000
     34 H10        0.0549   10.5100   -1.8276 H         1 RES1    0.0000
     35 H11        1.0404   11.4521   -2.7269 H         1 RES1    0.0000
     36 H12        0.2378   12.3759   -4.8685 H         1 RES1    0.0000
     37 H13       -1.2533   12.1409   -6.6825 H         1 RES1    0.0000
     38 H14       -3.1352   10.7655   -6.4538 H         1 RES1    0.0000
     39 H15       -3.5952    9.7049   -4.4343 H         1 RES1    0.0000
     40 H16       -2.1388    9.9872   -2.5873 H         1 RES1    0.0000
     41 H17        1.7168   12.5451   -0.6493 H         1 RES1    0.0000
     42 H18        0.5904   13.2568    0.2791 H         1 RES1    0.0000
     43 H19       -1.0494   11.6946    1.4884 H         1 RES1    0.0000
     44 H20       -1.1023    9.7955    2.8819 H         1 RES1    0.0000
     45 H21        0.5987    8.1790    2.7230 H         1 RES1    0.0000
     46 H22        2.3832    8.4910    1.2384 H         1 RES1    0.0000
     47 H23        2.4620   10.4162   -0.1066 H         1 RES1    0.0000
     48 H24       -1.7191   13.9320   -0.5368 H         1 RES1    0.0000
     49 H25       -1.6456   17.2135   -0.8760 H         1 RES1    0.0000
     50 N2         0.9563   11.9127    8.2417 N.4       2 RES2    1.0000
     51 C21        0.8752   10.5658    7.5048 C.3       2 RES2    0.0000
     52 C22        1.2477    9.3954    8.4157 C.3       2 RES2    0.0000
     53 C23        1.3869    8.1344    7.5661 C.3       2 RES2    0.0000
     54 C24        0.1019    7.8235    6.8222 C.3       2 RES2    0.0000
     55 C25       -0.3538    9.0196    5.9912 C.3       2 RES2    0.0000
     56 C26       -0.4787   10.2755    6.8546 C.3       2 RES2    0.0000
     57 O4         1.6907    7.0128    8.3797 O.3       2 RES2    0.0000
     58 O5         2.4606    9.6114    9.1239 O.3       2 RES2    0.0000
     59 C27        0.6483   13.0771    7.3087 C.3       2 RES2    0.0000
     60 C28        1.5893   13.1956    6.1404 C.ar      2 RES2    0.0000
     61 C29        1.3334   12.5766    4.9169 C.ar      2 RES2    0.0000
     62 C30        2.2044   12.7335    3.8411 C.ar      2 RES2    0.0000
     63 C31        3.3243   13.5328    3.9713 C.ar      2 RES2    0.0000
     64 C32        3.5800   14.1633    5.1749 C.ar      2 RES2    0.0000
     65 C33        2.7219   13.9905    6.2490 C.ar      2 RES2    0.0000
     66 C34       -0.0300   11.9462    9.4059 C.3       2 RES2    0.0000
     67 C35        0.0710   13.1976   10.2373 C.ar      2 RES2    0.0000
     68 C36        1.1122   13.3868   11.1370 C.ar      2 RES2    0.0000
     69 C37        1.1503   14.5146   11.9459 C.ar      2 RES2    0.0000
     70 C38        0.1483   15.4556   11.8616 C.ar      2 RES2    0.0000
     71 C39       -0.9011   15.2725   10.9876 C.ar      2 RES2    0.0000
     72 C40       -0.9448   14.1440   10.1798 C.ar      2 RES2    0.0000
     73 O6         2.2625   12.0851    8.7090 O.2       2 RES2   -1.0000
     74 H26        1.5552   10.6124    6.7639 H         2 RES2    0.0000
     75 H27        0.5100    9.2524    9.0741 H         2 RES2    0.0000
     76 H28        2.1443    8.2880    6.9054 H         2 RES2    0.0000
     77 H29       -0.6088    7.6159    7.5042 H         2 RES2    0.0000
     78 H30        0.2532    7.0327    6.2367 H         2 RES2    0.0000
     79 H31       -1.2509    8.8263    5.5933 H         2 RES2    0.0000
     80 H32        0.3245    9.1729    5.2677 H         2 RES2    0.0000
     81 H33       -1.1421   10.1032    7.5779 H         2 RES2    0.0000
     82 H34       -0.7606   11.0501    6.3046 H         2 RES2    0.0000
     83 H35        0.7109   13.9107    7.8609 H         2 RES2    0.0000
     84 H36       -0.2762   12.9662    6.9713 H         2 RES2    0.0000
     85 H37        0.5334   12.0344    4.8278 H         2 RES2    0.0000
     86 H38        2.0279   12.2811    2.9943 H         2 RES2    0.0000
     87 H39        3.9149   13.6583    3.2405 H         2 RES2    0.0000
     88 H40        4.3756   14.7074    5.2677 H         2 RES2    0.0000
     89 H41        2.9187   14.4167    7.1011 H         2 RES2    0.0000
     90 H42        0.1520   11.1475    9.9675 H         2 RES2    0.0000
     91 H43       -0.9372   11.8731    9.0082 H         2 RES2    0.0000
     92 H44        1.8149   12.7187   11.1963 H         2 RES2    0.0000
     93 H45        1.8812   14.6286   12.5646 H         2 RES2    0.0000
     94 H46        0.1911   16.2417   12.4153 H         2 RES2    0.0000
     95 H47       -1.6050   15.9368   10.9346 H         2 RES2    0.0000
     96 H48       -1.6863   14.0090    9.5857 H         2 RES2    0.0000
     97 H49        2.5394   10.4830    9.1032 H         2 RES2    0.0000
     98 H50        2.3999    7.1981    8.8338 H         2 RES2    0.0000
@<TRIPOS>BOND
     1    1    2 1
     2    2    3 1
     3    3    4 1
     4    4    5 1
     5    5    6 1
     6    6    7 1
     7    7    2 1
     8    8    4 1
     9    9    3 1
    10   10    1 1
    11   11   10 1
    12   12   11 ar
    13   13   12 ar
    14   14   13 ar
    15   15   14 ar
    16   16   11 ar
    17   17    1 1
    18   18   17 1
    19   19   18 ar
    20   20   19 ar
    21   21   20 ar
    22   22   21 ar
    23   23   18 ar
    24   24    1 1
    25   25    2 1
    26   26    3 1
    27   27    4 1
    28   28    5 1
    29   29    5 1
    30   30    6 1
    31   31    6 1
    32   32    7 1
    33   33    7 1
    34   34   10 1
    35   35   10 1
    36   36   12 1
    37   37   13 1
    38   38   14 1
    39   39   15 1
    40   40   16 1
    41   41   17 1
    42   42   17 1
    43   43   19 1
    44   44   20 1
    45   45   21 1
    46   46   22 1
    47   47   23 1
    48   48    9 1
    49   49    8 1
    50   50   51 1
    51   51   52 1
    52   52   53 1
    53   53   54 1
    54   54   55 1
    55   55   56 1
    56   56   51 1
    57   57   53 1
    58   58   52 1
    59   59   50 1
    60   60   59 1
    61   61   60 ar
    62   62   61 ar
    63   63   62 ar
    64   64   63 ar
    65   65   60 ar
    66   66   50 1
    67   67   66 1
    68   68   67 ar
    69   69   68 ar
    70   70   69 ar
    71   71   70 ar
    72   72   67 ar
    73   73   50 1
    74   74   51 1
    75   75   52 1
    76   76   53 1
    77   77   54 1
    78   78   54 1
    79   79   55 1
    80   80   55 1
    81   81   56 1
    82   82   56 1
    83   83   59 1
    84   84   59 1
    85   85   61 1
    86   86   62 1
    87   87   63 1
    88   88   64 1
    89   89   65 1
    90   90   66 1
    91   91   66 1
    92   92   68 1
    93   93   69 1
    94   94   70 1
    95   95   71 1
    96   96   72 1
    97   97   58 1
    98   98   57 1
    99   15   16 ar
   100   22   23 ar
   101   64   65 ar
   102   71   72 ar
@<TRIPOS>SUBSTRUCTURE
     1 RES1 1
     2 RES2 50

@<TRIPOS>CRYSIN
   5.5677   16.2860   19.3808  89.9786  89.9851  88.1904   2 1

