# MOL2 file generated by ConQuest
# Please check atom types

@<TRIPOS>MOLECULE
POYYEI
   103   100     2
SMALL
NO_CHARGES
****
Generated from CSD

@<TRIPOS>ATOM
      1 O1         0.7670    9.5050    3.3757 O.2       1 RES1    0.0000
      2 O2        -0.1061    8.5581    1.6520 O.2       1 RES1    0.0000
      3 O3        -0.8332    6.1649    2.9373 O.3       1 RES1    0.0000
      4 O4        -4.3585    5.0602    4.8862 O.2       1 RES1    0.0000
      5 O5        -0.3058    2.8396    3.3489 O.3       1 RES1    0.0000
      6 O6        -0.7540   -1.2667    2.5466 O.2       1 RES1    0.0000
      7 O7         2.2432    2.3252    1.2113 O.3       1 RES1    0.0000
      8 O8         5.3424    1.1910   -1.3433 O.2       1 RES1    0.0000
      9 O9         4.7341    4.5602    2.1413 O.3       1 RES1    0.0000
     10 O10        7.4763    7.7890    1.8772 O.2       1 RES1    0.0000
     11 O11        3.8009    6.5023    4.7700 O.3       1 RES1    0.0000
     12 O12        3.2577    9.0953    7.9728 O.3       1 RES1    0.0000
     13 O13        2.0627    7.6590    6.7793 O.2       1 RES1    0.0000
     14 N1        -0.0996    8.8480    2.8366 N.pl3     1 RES1    0.0000
     15 N2        -2.3213    4.2848    4.2696 N.am      1 RES1    0.0000
     16 H1        -1.4949    4.5397    4.1770 H         1 RES1    0.0000
     17 N3         0.3870    0.6070    1.9799 N.am      1 RES1    0.0000
     18 H2         0.3926    1.4697    2.0873 H         1 RES1    0.0000
     19 N4         4.8119    2.6016    0.3517 N.am      1 RES1    0.0000
     20 H3         4.2610    2.6917    1.0181 H         1 RES1    0.0000
     21 N5         5.6083    7.0205    2.9074 N.am      1 RES1    0.0000
     22 H4         5.0421    6.3601    2.9056 H         1 RES1    0.0000
     23 C1        -1.5954    7.0626    3.6503 C.ar      1 RES1    0.0000
     24 C2        -1.2303    8.4058    3.6666 C.ar      1 RES1    0.0000
     25 C3        -1.8768    9.3447    4.4306 C.ar      1 RES1    0.0000
     26 H5        -1.5779   10.2352    4.4510 H         1 RES1    0.0000
     27 C4        -2.9691    8.9537    5.1653 C.ar      1 RES1    0.0000
     28 H6        -3.4423    9.5865    5.6748 H         1 RES1    0.0000
     29 C5        -3.3725    7.6406    5.1562 C.ar      1 RES1    0.0000
     30 H7        -4.1309    7.3909    5.6517 H         1 RES1    0.0000
     31 C6        -2.6848    6.6692    4.4299 C.ar      1 RES1    0.0000
     32 C7        -1.3976    5.7829    1.6580 C.3       1 RES1    0.0000
     33 H8        -2.2706    5.3840    1.7962 H         1 RES1    0.0000
     34 H9        -0.8123    5.1408    1.2251 H         1 RES1    0.0000
     35 H10       -1.4859    6.5698    1.0960 H         1 RES1    0.0000
     36 C8        -3.2087    5.2632    4.5469 C.2       1 RES1    0.0000
     37 C9        -1.4978    2.1554    3.5973 C.ar      1 RES1    0.0000
     38 C10       -2.5556    2.9092    4.1104 C.ar      1 RES1    0.0000
     39 C11       -3.7653    2.2707    4.3859 C.ar      1 RES1    0.0000
     40 H11       -4.4836    2.7541    4.7542 H         1 RES1    0.0000
     41 C12       -3.8983    0.9328    4.1153 C.ar      1 RES1    0.0000
     42 H12       -4.7141    0.5052    4.3085 H         1 RES1    0.0000
     43 C13       -2.8748    0.2019    3.5720 C.ar      1 RES1    0.0000
     44 H13       -3.0009   -0.7107    3.3866 H         1 RES1    0.0000
     45 C14       -1.6382    0.8035    3.2885 C.ar      1 RES1    0.0000
     46 C15        0.6540    2.7304    4.4193 C.3       1 RES1    0.0000
     47 H14        0.2856    3.1240    5.2255 H         1 RES1    0.0000
     48 H15        1.4663    3.2002    4.1733 H         1 RES1    0.0000
     49 H16        0.8563    1.7953    4.5776 H         1 RES1    0.0000
     50 C16       -0.6265   -0.0477    2.5934 C.2       1 RES1    0.0000
     51 C17        2.3990    1.0152    0.7685 C.ar      1 RES1    0.0000
     52 C18        1.4282    0.0923    1.1961 C.ar      1 RES1    0.0000
     53 C19        1.5538   -1.2360    0.8236 C.ar      1 RES1    0.0000
     54 H17        0.9171   -1.8673    1.1045 H         1 RES1    0.0000
     55 C20        2.6135   -1.6281    0.0413 C.ar      1 RES1    0.0000
     56 H18        2.6838   -2.5273   -0.2216 H         1 RES1    0.0000
     57 C21        3.5758   -0.7314   -0.3663 C.ar      1 RES1    0.0000
     58 H19        4.2943   -1.0241   -0.8963 H         1 RES1    0.0000
     59 C22        3.4851    0.6151    0.0063 C.ar      1 RES1    0.0000
     60 C23        4.6271    1.4972   -0.4194 C.2       1 RES1    0.0000
     61 C24        5.7278    4.6450    1.1711 C.ar      1 RES1    0.0000
     62 C25        5.7765    3.6199    0.2159 C.ar      1 RES1    0.0000
     63 C26        6.7346    3.6527   -0.7855 C.ar      1 RES1    0.0000
     64 H20        6.7897    2.9567   -1.4151 H         1 RES1    0.0000
     65 C27        7.6045    4.7184   -0.8467 C.ar      1 RES1    0.0000
     66 H21        8.2629    4.7392   -1.5173 H         1 RES1    0.0000
     67 C28        7.5261    5.7524    0.0537 C.ar      1 RES1    0.0000
     68 H22        8.1137    6.4813   -0.0292 H         1 RES1    0.0000
     69 C29        6.5901    5.7421    1.0898 C.ar      1 RES1    0.0000
     70 C30        6.6032    6.9436    1.9934 C.2       1 RES1    0.0000
     71 C31        4.3888    7.7481    4.8226 C.ar      1 RES1    0.0000
     72 C32        5.3692    8.0235    3.8571 C.ar      1 RES1    0.0000
     73 C33        6.0190    9.2495    3.8798 C.ar      1 RES1    0.0000
     74 H23        6.6636    9.4553    3.2271 H         1 RES1    0.0000
     75 C34        5.7132   10.1616    4.8626 C.ar      1 RES1    0.0000
     76 H24        6.1484   10.9951    4.8662 H         1 RES1    0.0000
     77 C35        4.7928    9.8882    5.8319 C.ar      1 RES1    0.0000
     78 H25        4.6197   10.5198    6.5066 H         1 RES1    0.0000
     79 C36        4.1017    8.6629    5.8253 C.ar      1 RES1    0.0000
     80 C37        3.0112    8.3885    6.8877 C.2       1 RES1    0.0000
     81 C38        2.2259    9.0375    8.9799 C.3       1 RES1    0.0000
     82 H26        1.4065    9.4153    8.6243 H         1 RES1    0.0000
     83 H27        2.5054    9.5437    9.7580 H         1 RES1    0.0000
     84 H28        2.0732    8.1136    9.2332 H         1 RES1    0.0000
     85 C39        2.4742    6.4366    4.2391 C.3       1 RES1    0.0000
     86 H29        1.9751    7.2216    4.5155 H         1 RES1    0.0000
     87 H30        2.0316    5.6402    4.5703 H         1 RES1    0.0000
     88 H31        2.5142    6.4042    3.2697 H         1 RES1    0.0000
     89 C40        5.0890    3.7231    3.2696 C.3       1 RES1    0.0000
     90 H32        5.4590    2.8870    2.9470 H         1 RES1    0.0000
     91 H33        4.2973    3.5439    3.8007 H         1 RES1    0.0000
     92 H34        5.7484    4.1794    3.8153 H         1 RES1    0.0000
     93 C41        1.6867    3.2286    0.2375 C.3       1 RES1    0.0000
     94 H35        2.1859    3.1590   -0.5906 H         1 RES1    0.0000
     95 H36        1.7394    4.1371    0.5724 H         1 RES1    0.0000
     96 H37        0.7577    2.9973    0.0755 H         1 RES1    0.0000
     97 C42        3.3795    8.3810    6.9182 Du        2 SUP2    0.0000
     98 C43        2.2337    9.3440    8.8094 Du        2 SUP2    0.0000
     99 H38        1.6201    8.5957    8.7643 Du        2 SUP2    0.0000
    100 H39        1.7519   10.1574    8.9933 Du        2 SUP2    0.0000
    101 H40        2.8855    9.1828    9.5157 Du        2 SUP2    0.0000
    102 O14        2.9292    9.4675    7.5490 Du        2 SUP2    0.0000
    103 O15        3.1113    7.2996    7.3700 Du        2 SUP2    0.0000
@<TRIPOS>BOND
     1    1   14 2
     2    2   14 2
     3    3   23 1
     4    4   36 2
     5    5   37 1
     6    6   50 2
     7    7   51 1
     8    8   60 2
     9    9   61 1
    10   10   70 2
    11   11   71 1
    12   12   80 1
    13   13   80 2
    14   14   24 1
    15   15   16 1
    16   17   18 1
    17   19   20 1
    18   21   22 1
    19   23   24 ar
    20   24   25 ar
    21   25   26 1
    22   27   25 ar
    23   28   27 1
    24   29   27 ar
    25   30   29 1
    26   31   23 ar
    27   32    3 1
    28   33   32 1
    29   34   32 1
    30   35   32 1
    31   36   15 1
    32   37   38 ar
    33   38   15 1
    34   39   38 ar
    35   40   39 1
    36   41   39 ar
    37   42   41 1
    38   43   41 ar
    39   44   43 1
    40   45   37 ar
    41   46    5 1
    42   47   46 1
    43   48   46 1
    44   49   46 1
    45   50   17 1
    46   51   52 ar
    47   52   17 1
    48   53   52 ar
    49   54   53 1
    50   55   53 ar
    51   56   55 1
    52   57   55 ar
    53   58   57 1
    54   59   51 ar
    55   60   19 1
    56   61   62 ar
    57   62   19 1
    58   63   62 ar
    59   64   63 1
    60   65   63 ar
    61   66   65 1
    62   67   65 ar
    63   68   67 1
    64   69   61 ar
    65   70   21 1
    66   71   72 ar
    67   72   21 1
    68   73   72 ar
    69   74   73 1
    70   75   73 ar
    71   76   75 1
    72   77   75 ar
    73   78   77 1
    74   79   71 ar
    75   80   79 1
    76   81   12 1
    77   82   81 1
    78   83   81 1
    79   84   81 1
    80   85   11 1
    81   86   85 1
    82   87   85 1
    83   88   85 1
    84   89    9 1
    85   90   89 1
    86   91   89 1
    87   92   89 1
    88   93    7 1
    89   94   93 1
    90   95   93 1
    91   96   93 1
    92   29   31 ar
    93   31   36 1
    94   43   45 ar
    95   45   50 1
    96   57   59 ar
    97   59   60 1
    98   67   69 ar
    99   69   70 1
   100   77   79 ar
@<TRIPOS>SUBSTRUCTURE
     1 RES1 1
     2 SUP2 97

@<TRIPOS>CRYSIN
  12.1198   13.1343   13.7022 107.8780 108.1580  95.1260   2 1

