# MOL2 file generated by ConQuest
# Please check atom types

@<TRIPOS>MOLECULE
POYYIM
   114   119     1
SMALL
NO_CHARGES
****
Generated from CSD

@<TRIPOS>ATOM
      1 O1        -0.1072    5.6501    2.7932 O.2       1 RES1    0.0000
      2 O2         0.3421    7.4037    1.6884 O.2       1 RES1    0.0000
      3 O3         2.3500    4.4013    3.2669 O.3       1 RES1    0.0000
      4 O4         4.9096    2.2219    0.8345 O.2       1 RES1    0.0000
      5 O5         4.1422    2.3861    5.6254 O.3       1 RES1    0.0000
      6 O6         7.2044    0.4609    7.8282 O.2       1 RES1    0.0000
      7 O7         2.9603    2.5875    8.8424 O.3       1 RES1    0.0000
      8 O8         2.2022    3.0503   12.9043 O.2       1 RES1    0.0000
      9 O9        -0.4431    2.7834    8.8772 O.3       1 RES1    0.0000
     10 O10       -4.3029    4.4553    9.4486 O.2       1 RES1    0.0000
     11 O11       -1.5387    3.1147    5.7063 O.3       1 RES1    0.0000
     12 O12       -3.0551    4.2860    1.9611 O.2       1 RES1    0.0000
     13 O13        0.2511    1.1811    3.5959 O.3       1 RES1    0.0000
     14 O14        2.7597   -0.3250    0.5714 O.3       1 RES1    0.0000
     15 O15        2.4602   -0.2088    2.7101 O.2       1 RES1    0.0000
     16 N1         0.5354    6.2446    1.9690 N.pl3     1 RES1    0.0000
     17 H1         3.8437    3.1390    3.4660 H         1 RES1    0.0000
     18 N2         4.3703    2.6209    2.9613 N.am      1 RES1    0.0000
     19 H2         4.7138    2.0631    7.4436 H         1 RES1    0.0000
     20 N3         5.3135    1.6765    7.9699 N.am      1 RES1    0.0000
     21 H3         1.3953    2.4260   10.0777 H         1 RES1    0.0000
     22 N4         1.1971    2.5207   10.9495 N.am      1 RES1    0.0000
     23 H4        -1.9710    3.4384    7.8892 H         1 RES1    0.0000
     24 N5        -2.7451    3.8574    7.9254 N.am      1 RES1    0.0000
     25 H5        -1.4573    2.4304    3.7631 H         1 RES1    0.0000
     26 N6        -1.6423    2.8724    3.0020 N.am      1 RES1    0.0000
     27 C1         2.4110    4.6173    1.9106 C.ar      1 RES1    0.0000
     28 C2         1.5928    5.5308    1.2544 C.ar      1 RES1    0.0000
     29 C3         1.6803    5.7798   -0.0957 C.ar      1 RES1    0.0000
     30 H6         1.1433    6.4382   -0.5001 H         1 RES1    0.0000
     31 C4         2.5723    5.0420   -0.8417 C.ar      1 RES1    0.0000
     32 H7         2.6442    5.1874   -1.7676 H         1 RES1    0.0000
     33 C5         3.3530    4.0967   -0.2377 C.ar      1 RES1    0.0000
     34 H8         3.9341    3.5804   -0.7658 H         1 RES1    0.0000
     35 C6         3.3130    3.8741    1.1438 C.ar      1 RES1    0.0000
     36 C7         2.5565    5.5502    4.1163 C.3       1 RES1    0.0000
     37 H9         3.1614    6.1703    3.6805 H         1 RES1    0.0000
     38 H10        2.9409    5.2636    4.9596 H         1 RES1    0.0000
     39 H11        1.7074    5.9880    4.2813 H         1 RES1    0.0000
     40 C8         4.2687    2.8464    1.6422 C.2       1 RES1    0.0000
     41 C9         5.2211    1.7544    5.0273 C.ar      1 RES1    0.0000
     42 C10        5.3145    1.8162    3.6277 C.ar      1 RES1    0.0000
     43 C11        6.3446    1.1523    2.9923 C.ar      1 RES1    0.0000
     44 H12        6.3998    1.1569    2.0532 H         1 RES1    0.0000
     45 C12        7.2911    0.4829    3.7383 C.ar      1 RES1    0.0000
     46 H13        7.9803    0.0162    3.3009 H         1 RES1    0.0000
     47 C13        7.2439    0.4871    5.1115 C.ar      1 RES1    0.0000
     48 H14        7.9232    0.0601    5.6017 H         1 RES1    0.0000
     49 C14        6.2016    1.1166    5.7882 C.ar      1 RES1    0.0000
     50 C15        2.9253    1.6055    5.5819 C.3       1 RES1    0.0000
     51 H15        2.8197    1.2193    4.6989 H         1 RES1    0.0000
     52 H16        2.1664    2.1777    5.7766 H         1 RES1    0.0000
     53 H17        2.9725    0.8959    6.2404 H         1 RES1    0.0000
     54 C16        6.2902    1.0483    7.2917 C.2       1 RES1    0.0000
     55 C17        3.8902    2.2096    9.8071 C.ar      1 RES1    0.0000
     56 C18        5.1269    1.7444    9.3581 C.ar      1 RES1    0.0000
     57 C19        6.0906    1.3958   10.2956 C.ar      1 RES1    0.0000
     58 H18        6.9288    1.0777   10.0101 H         1 RES1    0.0000
     59 C20        5.8211    1.5158   11.6440 C.ar      1 RES1    0.0000
     60 H19        6.4838    1.2948   12.2729 H         1 RES1    0.0000
     61 C21        4.5960    1.9531   12.0731 C.ar      1 RES1    0.0000
     62 H20        4.4258    2.0237   12.9958 H         1 RES1    0.0000
     63 C22        3.6033    2.2949   11.1654 C.ar      1 RES1    0.0000
     64 C23        2.9986    3.9885    8.5610 C.3       1 RES1    0.0000
     65 H21        2.7995    4.4861    9.3697 H         1 RES1    0.0000
     66 H22        2.3399    4.1992    7.8810 H         1 RES1    0.0000
     67 H23        3.8818    4.2303    8.2408 H         1 RES1    0.0000
     68 C24        2.2846    2.6696   11.7513 C.2       1 RES1    0.0000
     69 C25       -0.9776    3.0782   10.1314 C.ar      1 RES1    0.0000
     70 C26       -0.1242    2.9028   11.2331 C.ar      1 RES1    0.0000
     71 C27       -0.6085    3.1210   12.5122 C.ar      1 RES1    0.0000
     72 H24       -0.0679    2.9604   13.2648 H         1 RES1    0.0000
     73 C28       -1.9099    3.5819   12.6574 C.ar      1 RES1    0.0000
     74 H25       -2.2505    3.7302   13.5206 H         1 RES1    0.0000
     75 C29       -2.7057    3.8278   11.5797 C.ar      1 RES1    0.0000
     76 H26       -3.5710    4.1692   11.7150 H         1 RES1    0.0000
     77 C30       -2.2659    3.5841   10.2824 C.ar      1 RES1    0.0000
     78 C31       -0.5839    1.3985    8.5164 C.3       1 RES1    0.0000
     79 H27       -0.1528    0.8440    9.1865 H         1 RES1    0.0000
     80 H28       -0.1672    1.2443    7.6532 H         1 RES1    0.0000
     81 H29       -1.5253    1.1710    8.4652 H         1 RES1    0.0000
     82 C32       -3.2032    3.9916    9.1947 C.2       1 RES1    0.0000
     83 C33       -2.7308    3.8217    5.5472 C.ar      1 RES1    0.0000
     84 C34       -3.3842    4.1945    6.7306 C.ar      1 RES1    0.0000
     85 C35       -4.5856    4.8783    6.6349 C.ar      1 RES1    0.0000
     86 H30       -5.0405    5.1453    7.4139 H         1 RES1    0.0000
     87 C36       -5.1091    5.1665    5.4053 C.ar      1 RES1    0.0000
     88 H31       -5.9247    5.6309    5.3492 H         1 RES1    0.0000
     89 C37       -4.4691    4.7916    4.2532 C.ar      1 RES1    0.0000
     90 H32       -4.8521    5.0031    3.4214 H         1 RES1    0.0000
     91 C38       -3.2556    4.1010    4.2962 C.ar      1 RES1    0.0000
     92 C39       -0.3578    3.9578    5.6825 C.3       1 RES1    0.0000
     93 H33       -0.2798    4.3804    4.8128 H         1 RES1    0.0000
     94 H34        0.4295    3.4166    5.8509 H         1 RES1    0.0000
     95 H35       -0.4345    4.6404    6.3691 H         1 RES1    0.0000
     96 C40       -2.6461    3.7691    2.9725 C.2       1 RES1    0.0000
     97 C41        0.1713    1.5267    2.2712 C.ar      1 RES1    0.0000
     98 C42       -0.8272    2.4476    1.9376 C.ar      1 RES1    0.0000
     99 C43       -0.9331    2.9191    0.6470 C.ar      1 RES1    0.0000
    100 H36       -1.5842    3.5580    0.4209 H         1 RES1    0.0000
    101 C44       -0.0533    2.4272   -0.3169 C.ar      1 RES1    0.0000
    102 H37       -0.1376    2.7234   -1.2048 H         1 RES1    0.0000
    103 C45        0.9162    1.5379   -0.0083 C.ar      1 RES1    0.0000
    104 H38        1.4997    1.2358   -0.6783 H         1 RES1    0.0000
    105 C46        1.0598    1.0636    1.2989 C.ar      1 RES1    0.0000
    106 C47       -0.1477   -0.1388    3.9413 C.3       1 RES1    0.0000
    107 H39       -0.6355   -0.5339    3.2019 H         1 RES1    0.0000
    108 H40       -0.7184   -0.1092    4.7253 H         1 RES1    0.0000
    109 H41        0.6379   -0.6735    4.1344 H         1 RES1    0.0000
    110 C48        2.1508    0.1305    1.6439 C.2       1 RES1    0.0000
    111 C49        3.8587   -1.2302    0.8153 C.3       1 RES1    0.0000
    112 H42        4.6109   -0.7364    1.1768 H         1 RES1    0.0000
    113 H43        4.1198   -1.6535   -0.0182 H         1 RES1    0.0000
    114 H44        3.5822   -1.9106    1.4491 H         1 RES1    0.0000
@<TRIPOS>BOND
     1    1   16 2
     2    2   16 2
     3    3   27 1
     4    4   40 2
     5    5   41 1
     6    6   54 2
     7    7   55 1
     8    8   68 2
     9    9   69 1
    10   10   82 2
    11   11   83 1
    12   12   96 2
    13   13   97 1
    14   14  110 1
    15   15  110 2
    16   16   28 1
    17   17   18 1
    18   18   40 1
    19   19   20 1
    20   20   54 1
    21   21   22 1
    22   22   68 1
    23   23   24 1
    24   24   82 1
    25   25   26 1
    26   26   96 1
    27   27   28 ar
    28   28   29 ar
    29   29   30 1
    30   31   29 ar
    31   32   31 1
    32   33   31 ar
    33   34   33 1
    34   35   27 ar
    35   36    3 1
    36   37   36 1
    37   38   36 1
    38   39   36 1
    39   40   35 1
    40   41   42 ar
    41   42   18 1
    42   43   42 ar
    43   44   43 1
    44   45   43 ar
    45   46   45 1
    46   47   45 ar
    47   48   47 1
    48   49   41 ar
    49   50    5 1
    50   51   50 1
    51   52   50 1
    52   53   50 1
    53   54   49 1
    54   55   56 ar
    55   56   20 1
    56   57   56 ar
    57   58   57 1
    58   59   57 ar
    59   60   59 1
    60   61   59 ar
    61   62   61 1
    62   63   55 ar
    63   64    7 1
    64   65   64 1
    65   66   64 1
    66   67   64 1
    67   68   63 1
    68   69   70 ar
    69   70   22 1
    70   71   70 ar
    71   72   71 1
    72   73   71 ar
    73   74   73 1
    74   75   73 ar
    75   76   75 1
    76   77   69 ar
    77   78    9 1
    78   79   78 1
    79   80   78 1
    80   81   78 1
    81   82   77 1
    82   83   84 ar
    83   84   24 1
    84   85   84 ar
    85   86   85 1
    86   87   85 ar
    87   88   87 1
    88   89   87 ar
    89   90   89 1
    90   91   83 ar
    91   92   11 1
    92   93   92 1
    93   94   92 1
    94   95   92 1
    95   96   91 1
    96   97   98 ar
    97   98   26 1
    98   99   98 ar
    99  100   99 1
   100  101   99 ar
   101  102  101 1
   102  103  101 ar
   103  104  103 1
   104  105   97 ar
   105  106   13 1
   106  107  106 1
   107  108  106 1
   108  109  106 1
   109  110  105 1
   110  111   14 1
   111  112  111 1
   112  113  111 1
   113  114  111 1
   114   33   35 ar
   115   47   49 ar
   116   61   63 ar
   117   75   77 ar
   118   89   91 ar
   119  103  105 ar
@<TRIPOS>SUBSTRUCTURE
     1 RES1 1

@<TRIPOS>CRYSIN
  11.2760   12.3010   16.5640  90.3880  94.5620 105.3000   2 1

