# MOL2 file generated by ConQuest
# Please check atom types

@<TRIPOS>MOLECULE
POZFUG
    30    31     1
SMALL
NO_CHARGES
****
Generated from CSD

@<TRIPOS>ATOM
      1 O1        -0.6852   -0.5212    4.8249 O.2       1 RES1    0.0000
      2 O2         1.0642   -1.7663    4.8301 O.2       1 RES1    0.0000
      3 O3         4.9096    7.8720    6.7454 O.3       1 RES1    0.0000
      4 N1         3.6654    3.9687    5.2847 N.pl3     1 RES1    0.0000
      5 N2         4.9719    3.9011    5.6441 N.2       1 RES1    0.0000
      6 N3         5.4146    5.1353    5.6743 N.2       1 RES1    0.0000
      7 N4         0.5304   -0.6721    4.8806 N.pl3     1 RES1    0.0000
      8 C1         3.2884    5.2594    5.1030 C.2       1 RES1    0.0000
      9 C2         4.3993    6.0023    5.3450 C.2       1 RES1    0.0000
     10 C3         4.6148    7.5100    5.3798 C.3       1 RES1    0.0000
     11 C4         5.7417    7.8962    4.4372 C.3       1 RES1    0.0000
     12 C5         3.3290    8.2400    5.0308 C.3       1 RES1    0.0000
     13 C6         2.8866    2.7797    5.1968 C.ar      1 RES1    0.0000
     14 C7         1.5013    2.8892    5.2014 C.ar      1 RES1    0.0000
     15 C8         0.7249    1.7510    5.0997 C.ar      1 RES1    0.0000
     16 C9         1.3640    0.5240    5.0033 C.ar      1 RES1    0.0000
     17 C10        2.7377    0.3991    5.0059 C.ar      1 RES1    0.0000
     18 C11        3.5083    1.5373    5.1102 C.ar      1 RES1    0.0000
     19 H1         2.3982    5.5362    4.8537 H         1 RES1    0.0000
     20 H2         5.7355    7.7508    6.8674 H         1 RES1    0.0000
     21 H3         5.3816    7.7250    3.4960 H         1 RES1    0.0000
     22 H4         6.5276    7.3903    4.6110 H         1 RES1    0.0000
     23 H5         5.9035    8.8323    4.5520 H         1 RES1    0.0000
     24 H6         3.5293    9.1799    5.0636 H         1 RES1    0.0000
     25 H7         2.6009    7.9954    5.6539 H         1 RES1    0.0000
     26 H8         3.0185    7.9825    4.0535 H         1 RES1    0.0000
     27 H9         1.1203    3.7080    5.2276 H         1 RES1    0.0000
     28 H10       -0.2426    1.8025    5.1620 H         1 RES1    0.0000
     29 H11        3.1327   -0.4377    4.9324 H         1 RES1    0.0000
     30 H12        4.4471    1.4935    5.1095 H         1 RES1    0.0000
@<TRIPOS>BOND
     1    1    7 2
     2    2    7 2
     3    3   10 1
     4    4    5 1
     5    5    6 2
     6    6    9 1
     7    7   16 1
     8    8    4 1
     9    9    8 2
    10   10    9 1
    11   11   10 1
    12   12   10 1
    13   13    4 1
    14   14   13 ar
    15   15   14 ar
    16   16   15 ar
    17   17   16 ar
    18   18   13 ar
    19   19    8 1
    20   20    3 1
    21   21   11 1
    22   22   11 1
    23   23   11 1
    24   24   12 1
    25   25   12 1
    26   26   12 1
    27   27   14 1
    28   28   15 1
    29   29   17 1
    30   30   18 1
    31   17   18 ar
@<TRIPOS>SUBSTRUCTURE
     1 RES1 1

@<TRIPOS>CRYSIN
  13.9480   12.8750    6.5711  90.0000  93.4630  90.0000  14 1

