# MOL2 file generated by ConQuest
# Please check atom types

@<TRIPOS>MOLECULE
POZPAW
    33    34     1
SMALL
NO_CHARGES
****
Generated from CSD

@<TRIPOS>ATOM
      1 O1         3.3958    3.2030   28.3161 O.2       1 RES1    0.0000
      2 O2         6.5986    3.7701   27.1130 O.3       1 RES1    0.0000
      3 N1         5.5171    3.8675   27.9996 N.am      1 RES1    0.0000
      4 C1         5.5303    5.0183   28.8455 C.ar      1 RES1    0.0000
      5 C2         6.4841    6.0017   28.6388 C.ar      1 RES1    0.0000
      6 C3         6.5089    7.1258   29.4439 C.ar      1 RES1    0.0000
      7 C4         5.5985    7.2793   30.4590 C.ar      1 RES1    0.0000
      8 C5         4.6666    6.2966   30.6846 C.ar      1 RES1    0.0000
      9 C6         4.6231    5.1531   29.8982 C.ar      1 RES1    0.0000
     10 C7         4.4608    3.0636   27.7208 C.2       1 RES1    0.0000
     11 C8         4.6413    2.0148   26.6399 C.3       1 RES1    0.0000
     12 C9         4.4267    2.6339   25.2551 C.3       1 RES1    0.0000
     13 C10        4.5896    1.5818   24.1648 C.3       1 RES1    0.0000
     14 C11        3.6621    0.4043   24.3873 C.3       1 RES1    0.0000
     15 C12        3.8568   -0.2015   25.7721 C.3       1 RES1    0.0000
     16 C13        3.6813    0.8486   26.8561 C.3       1 RES1    0.0000
     17 H1         7.2769    3.5332   27.5297 H         1 RES1    0.0000
     18 H2         7.1168    5.9049   27.9526 H         1 RES1    0.0000
     19 H3         7.1553    7.7910   29.2936 H         1 RES1    0.0000
     20 H4         5.6128    8.0512   30.9948 H         1 RES1    0.0000
     21 H5         4.0477    6.3993   31.3833 H         1 RES1    0.0000
     22 H6         3.9916    4.4792   30.0705 H         1 RES1    0.0000
     23 H7         5.5682    1.6705   26.6869 H         1 RES1    0.0000
     24 H8         3.5279    3.0209   25.2050 H         1 RES1    0.0000
     25 H9         5.0759    3.3544   25.1141 H         1 RES1    0.0000
     26 H10        4.3987    1.9861   23.2939 H         1 RES1    0.0000
     27 H11        5.5176    1.2663   24.1554 H         1 RES1    0.0000
     28 H12        3.8359   -0.2782   23.7074 H         1 RES1    0.0000
     29 H13        2.7329    0.6998   24.2901 H         1 RES1    0.0000
     30 H14        3.2060   -0.9220   25.9068 H         1 RES1    0.0000
     31 H15        4.7552   -0.5884   25.8347 H         1 RES1    0.0000
     32 H16        3.8502    0.4450   27.7333 H         1 RES1    0.0000
     33 H17        2.7583    1.1775   26.8467 H         1 RES1    0.0000
@<TRIPOS>BOND
     1    1   10 2
     2    2    3 1
     3    3    4 1
     4    4    5 ar
     5    5    6 ar
     6    6    7 ar
     7    7    8 ar
     8    8    9 ar
     9    9    4 ar
    10   10    3 1
    11   11   10 1
    12   12   11 1
    13   13   12 1
    14   14   13 1
    15   15   14 1
    16   16   11 1
    17   17    2 1
    18   18    5 1
    19   19    6 1
    20   20    7 1
    21   21    8 1
    22   22    9 1
    23   23   11 1
    24   24   12 1
    25   25   12 1
    26   26   13 1
    27   27   13 1
    28   28   14 1
    29   29   14 1
    30   30   15 1
    31   31   15 1
    32   32   16 1
    33   33   16 1
    34   15   16 1
@<TRIPOS>SUBSTRUCTURE
     1 RES1 1

@<TRIPOS>CRYSIN
   5.5011    6.6715   31.3300  90.0000  90.0000  90.0000  19 1

