# MOL2 file generated by ConQuest
# Please check atom types

@<TRIPOS>MOLECULE
PPRDOX01
    21    21     1
SMALL
NO_CHARGES
****
Generated from CSD

@<TRIPOS>ATOM
      1 C1         5.8707    8.4558    2.4722 C.ar      1 RES1    0.0000
      2 H1         5.8777    8.2174    3.3712 H         1 RES1    0.0000
      3 C2         4.7013    8.3875    1.7603 C.ar      1 RES1    0.0000
      4 H2         3.9257    8.0842    2.1738 H         1 RES1    0.0000
      5 C3         4.6673    8.7650    0.4396 C.ar      1 RES1    0.0000
      6 H3         3.8677    8.7288   -0.0346 H         1 RES1    0.0000
      7 C4         5.8181    9.1968   -0.1811 C.ar      1 RES1    0.0000
      8 H4         5.7922    9.4627   -1.0723 H         1 RES1    0.0000
      9 C5         7.0122    9.2369    0.5147 C.ar      1 RES1    0.0000
     10 H5         7.7916    9.5024    0.0840 H         1 RES1    0.0000
     11 C6         7.0492    8.8803    1.8592 C.ar      1 RES1    0.0000
     12 C7         8.2584    9.0485    2.7052 C.2       1 RES1    0.0000
     13 C8         9.6348    8.8399    2.1517 C.2       1 RES1    0.0000
     14 C9        10.7904    9.4588    2.8571 C.3       1 RES1    0.0000
     15 H6        11.0023    8.9428    3.6386 H         1 RES1    0.0000
     16 H7        10.5638   10.3553    3.1174 H         1 RES1    0.0000
     17 H8        11.5497    9.4783    2.2709 H         1 RES1    0.0000
     18 N1         9.7088    8.0614    1.1444 N.2       1 RES1    0.0000
     19 O1         8.1576    9.3582    3.8777 O.2       1 RES1    0.0000
     20 O2        11.0193    7.8268    0.7309 O.3       1 RES1    0.0000
     21 H9        10.8769    7.3021    0.0298 H         1 RES1    0.0000
@<TRIPOS>BOND
     1    1    2 1
     2    3    1 ar
     3    4    3 1
     4    5    3 ar
     5    6    5 1
     6    7    5 ar
     7    8    7 1
     8    9    7 ar
     9   10    9 1
    10   11    1 ar
    11   12   11 1
    12   13   12 1
    13   14   13 1
    14   15   14 1
    15   16   14 1
    16   17   14 1
    17   18   13 2
    18   19   12 2
    19   20   18 1
    20   21   20 1
    21    9   11 ar
@<TRIPOS>SUBSTRUCTURE
     1 RES1 1

@<TRIPOS>CRYSIN
   9.7456   14.1679    6.2215  90.0000 106.7610  90.0000  14 1

