# MOL2 file generated by ConQuest
# Please check atom types

@<TRIPOS>MOLECULE
PQUAZX
    18    20     1
SMALL
USER_CHARGES
****
Generated from CSD

@<TRIPOS>ATOM
      1 O1        10.3227    4.4385    4.6515 O.2       1 RES1   -1.0000
      2 O2        12.2658    0.8427    2.5838 O.2       1 RES1   -1.0000
      3 N1        11.3277    3.6485    4.4953 N.pl3     1 RES1    1.0000
      4 N2        12.3700    1.7751    3.4741 N.pl3     1 RES1    1.0000
      5 C1        11.2994    2.6769    3.5688 C.ar      1 RES1    0.0000
      6 C2        13.4368    1.8959    4.2522 C.ar      1 RES1    0.0000
      7 C3        14.6193    4.0948    6.9860 C.ar      1 RES1    0.0000
      8 C4        13.5603    4.9955    7.0744 C.ar      1 RES1    0.0000
      9 C5        12.4665    4.8832    6.2473 C.ar      1 RES1    0.0000
     10 C6        12.4537    3.8284    5.3239 C.ar      1 RES1    0.0000
     11 C7        10.1696    2.5829    2.6407 C.ar      1 RES1    0.0000
     12 C8         9.9778    3.6254    1.7331 C.ar      1 RES1    0.0000
     13 C9         8.9021    3.5668    0.8650 C.ar      1 RES1    0.0000
     14 C10        8.0168    2.5259    0.9123 C.ar      1 RES1    0.0000
     15 C11        8.1995    1.4899    1.8152 C.ar      1 RES1    0.0000
     16 C12        9.2958    1.5130    2.6722 C.ar      1 RES1    0.0000
     17 C13       13.5050    2.9266    5.2008 C.ar      1 RES1    0.0000
     18 C14       14.6168    3.0904    6.0737 C.ar      1 RES1    0.0000
@<TRIPOS>BOND
     1    1    3 1
     2    2    4 1
     3    3    5 ar
     4    4    5 ar
     5    5   11 1
     6    6    4 ar
     7    7    8 ar
     8    8    9 ar
     9    9   10 ar
    10   10    3 ar
    11   11   12 ar
    12   12   13 ar
    13   13   14 ar
    14   14   15 ar
    15   15   16 ar
    16   16   11 ar
    17   17    6 ar
    18   18    7 ar
    19   10   17 ar
    20   17   18 ar
@<TRIPOS>SUBSTRUCTURE
     1 RES1 1

@<TRIPOS>CRYSIN
  12.8680    5.3709   15.7840  90.0000  90.0000  90.0000  29 1

