# MOL2 file generated by ConQuest
# Please check atom types

@<TRIPOS>MOLECULE
PRDOXM
    88    92     2
SMALL
NO_CHARGES
****
Generated from CSD

@<TRIPOS>ATOM
      1 N1         6.4805    2.4745    1.6190 N.3       1 RES1    0.0000
      2 C1         7.1034    2.5233    2.9644 C.3       1 RES1    0.0000
      3 C2         6.1902    3.3578    3.8981 C.3       1 RES1    0.0000
      4 C3         4.7900    2.7913    3.8321 C.2       1 RES1    0.0000
      5 C4         4.1799    2.5224    2.4552 C.3       1 RES1    0.0000
      6 C5         5.2105    1.7502    1.6378 C.3       1 RES1    0.0000
      7 C6         4.6962    1.5406    0.2138 C.ar      1 RES1    0.0000
      8 C7         3.6644    0.6201    0.0283 C.ar      1 RES1    0.0000
      9 C8         3.1296    0.4229   -1.2449 C.ar      1 RES1    0.0000
     10 C9         3.6256    1.1454   -2.3326 C.ar      1 RES1    0.0000
     11 C10        4.6572    2.0650   -2.1439 C.ar      1 RES1    0.0000
     12 C11        5.1930    2.2631   -0.8708 C.ar      1 RES1    0.0000
     13 C12        8.4817    3.1358    2.8010 C.ar      1 RES1    0.0000
     14 C13        8.6128    4.3376    2.1062 C.ar      1 RES1    0.0000
     15 C14        9.8734    4.9137    1.9396 C.ar      1 RES1    0.0000
     16 C15       11.0014    4.2888    2.4709 C.ar      1 RES1    0.0000
     17 C16       10.8701    3.0870    3.1688 C.ar      1 RES1    0.0000
     18 C17        9.6098    2.5109    3.3322 C.ar      1 RES1    0.0000
     19 C18        6.7558    3.4238    5.3190 C.3       1 RES1    0.0000
     20 C19        3.7182    3.8611    1.8359 C.3       1 RES1    0.0000
     21 N2         4.1450    2.6764    4.9386 N.2       1 RES1    0.0000
     22 O1         2.8089    2.2363    4.7563 O.3       1 RES1    0.0000
     23 N3         0.3173    3.2439   10.6945 N.3       2 RES2    0.0000
     24 C20       -0.1756    3.4956    9.3271 C.3       2 RES2    0.0000
     25 C21        0.3364    2.3339    8.4154 C.3       2 RES2    0.0000
     26 C22        1.8835    2.3540    8.5443 C.2       2 RES2    0.0000
     27 C23        2.4540    2.3434    9.9338 C.3       2 RES2    0.0000
     28 C24        1.7800    3.4066   10.8140 C.3       2 RES2    0.0000
     29 C25        2.2176    3.2994   12.2475 C.ar      2 RES2    0.0000
     30 C26        3.3596    3.9998   12.6373 C.ar      2 RES2    0.0000
     31 C27        3.8777    3.8305   13.9199 C.ar      2 RES2    0.0000
     32 C28        3.2546    2.9616   14.8158 C.ar      2 RES2    0.0000
     33 C29        2.1126    2.2612   14.4260 C.ar      2 RES2    0.0000
     34 C30        1.5934    2.4296   13.1434 C.ar      2 RES2    0.0000
     35 C31       -1.6799    3.4917    9.3396 C.ar      2 RES2    0.0000
     36 C32       -2.4111    2.4411    9.8961 C.ar      2 RES2    0.0000
     37 C33       -3.8058    2.4745    9.8741 C.ar      2 RES2    0.0000
     38 C34       -4.4685    3.5578    9.2988 C.ar      2 RES2    0.0000
     39 C35       -3.7373    4.6075    8.7424 C.ar      2 RES2    0.0000
     40 C36       -2.3426    4.5749    8.7644 C.ar      2 RES2    0.0000
     41 C37       -0.1302    2.4678    6.9631 C.3       2 RES2    0.0000
     42 C38        2.3496    0.9674   10.4148 C.3       2 RES2    0.0000
     43 N4         2.5546    2.5176    7.4503 N.2       2 RES2    0.0000
     44 O2         3.9577    2.5616    7.7018 O.3       2 RES2    0.0000
     45 H1         7.0695    2.0956    0.9431 H         1 RES1    0.0000
     46 H2         7.2012    1.4736    3.3322 H         1 RES1    0.0000
     47 H3         6.1332    4.3922    3.4894 H         1 RES1    0.0000
     48 H4         3.3041    1.8372    2.5778 H         1 RES1    0.0000
     49 H5         5.3651    0.7464    2.0748 H         1 RES1    0.0000
     50 H6         3.2767    0.0574    0.8488 H         1 RES1    0.0000
     51 H7         2.3265   -0.2871   -1.3832 H         1 RES1    0.0000
     52 H8         3.1995    0.9856   -3.3008 H         1 RES1    0.0000
     53 H9         5.0316    2.6219   -2.9550 H         1 RES1    0.0000
     54 H10        5.9818    2.9664   -0.7230 H         1 RES1    0.0000
     55 H11        7.7359    4.8132    1.6661 H         1 RES1    0.0000
     56 H12        9.9715    5.8371    1.3832 H         1 RES1    0.0000
     57 H13       11.9698    4.7271    2.3263 H         1 RES1    0.0000
     58 H14       11.7437    2.6028    3.5523 H         1 RES1    0.0000
     59 H15        9.5055    1.5789    3.8666 H         1 RES1    0.0000
     60 H16        6.7884    2.4210    5.7214 H         1 RES1    0.0000
     61 H17        6.1349    4.0381    5.9414 H         1 RES1    0.0000
     62 H18        7.7437    3.8276    5.2813 H         1 RES1    0.0000
     63 H19        3.4938    4.9185    1.7919 H         1 RES1    0.0000
     64 H20        2.8173    3.2917    1.6032 H         1 RES1    0.0000
     65 H21        4.4812    3.6171    1.1003 H         1 RES1    0.0000
     66 H22        2.5139    1.5215    5.6899 H         1 RES1    0.0000
     67 H23       -0.1273    4.1147   11.1598 H         2 RES2    0.0000
     68 H24        0.1906    4.4879    8.9593 H         2 RES2    0.0000
     69 H25        0.0107    1.3301    8.8021 H         2 RES2    0.0000
     70 H26        3.5188    2.6410    9.8709 H         2 RES2    0.0000
     71 H27        2.0338    4.4209   10.4053 H         2 RES2    0.0000
     72 H28        3.8379    4.6697   11.9143 H         2 RES2    0.0000
     73 H29        4.7602    4.3730   14.2091 H         2 RES2    0.0000
     74 H30        3.6548    2.8229   15.7809 H         2 RES2    0.0000
     75 H31        1.6218    1.5885   15.1207 H         2 RES2    0.0000
     76 H32        0.7108    1.8851   12.8259 H         2 RES2    0.0000
     77 H33       -1.8977    1.5980   10.3425 H         2 RES2    0.0000
     78 H34       -4.3657    1.6554   10.2796 H         2 RES2    0.0000
     79 H35       -5.5419    3.5788    9.2736 H         2 RES2    0.0000
     80 H36       -4.2450    5.4448    8.2677 H         2 RES2    0.0000
     81 H37       -1.7769    5.3873    8.3305 H         2 RES2    0.0000
     82 H38        0.1836    3.4257    6.5701 H         2 RES2    0.0000
     83 H39       -1.2063    2.4018    6.9159 H         2 RES2    0.0000
     84 H40        0.3039    1.6841    6.3501 H         2 RES2    0.0000
     85 H41        1.3052    0.6985   10.4368 H         2 RES2    0.0000
     86 H42        2.7816    0.8803   11.3798 H         2 RES2    0.0000
     87 H43        2.8624    0.2966    9.7137 H         2 RES2    0.0000
     88 H44        4.5236    2.5741    6.6330 H         2 RES2    0.0000
@<TRIPOS>BOND
     1    1    2 1
     2    2    3 1
     3    3    4 1
     4    4    5 1
     5    5    6 1
     6    6    1 1
     7    7    6 1
     8    8    7 ar
     9    9    8 ar
    10   10    9 ar
    11   11   10 ar
    12   12    7 ar
    13   13    2 1
    14   14   13 ar
    15   15   14 ar
    16   16   15 ar
    17   17   16 ar
    18   18   13 ar
    19   19    3 1
    20   20    5 1
    21   21    4 2
    22   22   21 1
    23   23   24 1
    24   24   25 1
    25   25   26 1
    26   26   27 1
    27   27   28 1
    28   28   23 1
    29   29   28 1
    30   30   29 ar
    31   31   30 ar
    32   32   31 ar
    33   33   32 ar
    34   34   29 ar
    35   35   24 1
    36   36   35 ar
    37   37   36 ar
    38   38   37 ar
    39   39   38 ar
    40   40   35 ar
    41   41   25 1
    42   42   27 1
    43   43   26 2
    44   44   43 1
    45   45    1 1
    46   46    2 1
    47   47    3 1
    48   48    5 1
    49   49    6 1
    50   50    8 1
    51   51    9 1
    52   52   10 1
    53   53   11 1
    54   54   12 1
    55   55   14 1
    56   56   15 1
    57   57   16 1
    58   58   17 1
    59   59   18 1
    60   60   19 1
    61   61   19 1
    62   62   19 1
    63   63   20 1
    64   64   20 1
    65   65   20 1
    66   66   22 1
    67   67   23 1
    68   68   24 1
    69   69   25 1
    70   70   27 1
    71   71   28 1
    72   72   30 1
    73   73   31 1
    74   74   32 1
    75   75   33 1
    76   76   34 1
    77   77   36 1
    78   78   37 1
    79   79   38 1
    80   80   39 1
    81   81   40 1
    82   82   41 1
    83   83   41 1
    84   84   41 1
    85   85   42 1
    86   86   42 1
    87   87   42 1
    88   88   44 1
    89   11   12 ar
    90   17   18 ar
    91   33   34 ar
    92   39   40 ar
@<TRIPOS>SUBSTRUCTURE
     1 RES1 1
     2 RES2 23

@<TRIPOS>CRYSIN
  11.3450    9.5690   31.5430  90.0000  94.7200  90.0000 231 1

