# MOL2 file generated by ConQuest
# Please check atom types

@<TRIPOS>MOLECULE
PRGOXZ
    32    36     1
SMALL
NO_CHARGES
****
Generated from CSD

@<TRIPOS>ATOM
      1 C1        10.5657    1.1055    0.1381 C.3       1 RES1    0.0000
      2 C2         9.5225    2.1703   -0.1551 C.3       1 RES1    0.0000
      3 C3        10.1372    3.4592   -0.5775 C.2       1 RES1    0.0000
      4 C4        11.4404    3.3963   -1.2285 C.2       1 RES1    0.0000
      5 C5        12.0632    2.2123   -1.4935 C.2       1 RES1    0.0000
      6 C6        13.3327    2.2371   -2.3257 C.3       1 RES1    0.0000
      7 C7        14.4322    1.4342   -1.6498 C.3       1 RES1    0.0000
      8 C8        13.9731   -0.0223   -1.4063 C.3       1 RES1    0.0000
      9 C9        12.7004   -0.0406   -0.5514 C.3       1 RES1    0.0000
     10 C10       11.5400    0.8946   -1.0542 C.3       1 RES1    0.0000
     11 C11       12.2510   -1.4971   -0.3793 C.3       1 RES1    0.0000
     12 C12       13.2958   -2.3498    0.3589 C.3       1 RES1    0.0000
     13 C13       14.6328   -2.2804   -0.4042 C.3       1 RES1    0.0000
     14 C14       15.0116   -0.8134   -0.6103 C.3       1 RES1    0.0000
     15 C15       16.4898   -0.8841   -1.0519 C.3       1 RES1    0.0000
     16 C16       17.0756   -1.8717   -0.0306 C.3       1 RES1    0.0000
     17 C17       15.8895   -2.7532    0.4507 C.3       1 RES1    0.0000
     18 C18       14.5590   -3.0662   -1.7154 C.3       1 RES1    0.0000
     19 C19       10.7583    0.2253   -2.2159 C.3       1 RES1    0.0000
     20 C20       16.1014   -4.2529    0.3431 C.2       1 RES1    0.0000
     21 C21       15.3005   -5.1580    1.2240 C.3       1 RES1    0.0000
     22 O1        16.8814   -4.7022   -0.5027 O.2       1 RES1    0.0000
     23 O2        15.6744   -2.3838    1.8309 O.3       1 RES1    0.0000
     24 N1        16.9039   -1.9451    2.3903 N.3       1 RES1    0.0000
     25 C22       17.4752   -1.1631    1.2410 C.3       1 RES1    0.0000
     26 O3        17.7770   -3.1121    2.4571 O.3       1 RES1    0.0000
     27 C23       17.8219   -3.5207    3.8328 C.3       1 RES1    0.0000
     28 C24       18.9679   -0.9797    1.4561 C.2       1 RES1    0.0000
     29 O4        19.2054   -0.4859    2.7130 O.3       1 RES1    0.0000
     30 C25       20.5809   -0.2698    3.0674 C.3       1 RES1    0.0000
     31 O5        19.8218   -1.1474    0.6613 O.2       1 RES1    0.0000
     32 O6         9.5578    4.5110   -0.4246 O.2       1 RES1    0.0000
@<TRIPOS>BOND
     1    1    2 1
     2    2    3 1
     3    3    4 1
     4    4    5 2
     5    5    6 1
     6    6    7 1
     7    7    8 1
     8    8    9 1
     9    9   10 1
    10   10    1 1
    11   11    9 1
    12   12   11 1
    13   13   12 1
    14   14    8 1
    15   15   14 1
    16   16   15 1
    17   17   13 1
    18   18   13 1
    19   19   10 1
    20   20   17 1
    21   21   20 1
    22   22   20 2
    23   23   17 1
    24   24   23 1
    25   25   16 1
    26   26   24 1
    27   27   26 1
    28   28   25 1
    29   29   28 1
    30   30   29 1
    31   31   28 2
    32   32    3 2
    33    5   10 1
    34   13   14 1
    35   16   17 1
    36   24   25 1
@<TRIPOS>SUBSTRUCTURE
     1 RES1 1

@<TRIPOS>CRYSIN
  16.0500   13.0980   11.3230  90.0000  90.0000  90.0000  19 1

