# MOL2 file generated by ConQuest
# Please check atom types

@<TRIPOS>MOLECULE
PROPNB10
    41    44     1
SMALL
NO_CHARGES
****
Generated from CSD

@<TRIPOS>ATOM
      1 C1         4.0618    1.5190    0.4994 C.ar      1 RES1    0.0000
      2 C2         4.7960   -1.3685    8.5492 C.3       1 RES1    0.0000
      3 C3         6.2485   -1.8501    8.6419 C.3       1 RES1    0.0000
      4 C4         6.6057   -2.6449    7.4141 C.3       1 RES1    0.0000
      5 C5         5.8641   -2.3531    6.0501 C.3       1 RES1    0.0000
      6 C6         7.1624   -1.7880    5.4856 C.3       1 RES1    0.0000
      7 C7         7.9325   -2.3110    6.7015 C.3       1 RES1    0.0000
      8 C8         6.2080   -4.1262    7.3214 C.3       1 RES1    0.0000
      9 C9         5.6963   -3.8936    5.8843 C.3       1 RES1    0.0000
     10 C10        4.3717    1.9964    1.7588 C.ar      1 RES1    0.0000
     11 C11        4.4177    1.1131    2.8030 C.ar      1 RES1    0.0000
     12 C12        4.1304   -0.2362    2.6155 C.ar      1 RES1    0.0000
     13 C13        3.8030   -0.6750    1.3443 C.ar      1 RES1    0.0000
     14 C14        3.7847    0.1812    0.2724 C.ar      1 RES1    0.0000
     15 C15        4.1757   -1.2172    3.7406 C.2       1 RES1    0.0000
     16 C16        4.6149   -1.5091    6.0620 C.3       1 RES1    0.0000
     17 C17        4.5828   -0.5794    7.2661 C.3       1 RES1    0.0000
     18 H1         4.1072   -2.2261    8.4880 H         1 RES1    0.0000
     19 H2         6.8718   -0.9418    8.6656 H         1 RES1    0.0000
     20 H3         7.2470   -0.8562    5.4678 H         1 RES1    0.0000
     21 H4         8.4415   -1.6553    7.1852 H         1 RES1    0.0000
     22 H5         6.9581   -4.8019    7.4023 H         1 RES1    0.0000
     23 H6         4.7435   -4.2382    5.6060 H         1 RES1    0.0000
     24 H7         5.4453    0.0714    7.1457 H         1 RES1    0.0000
     25 H8         4.5960    2.8825    1.8555 H         1 RES1    0.0000
     26 H9         4.7045   -0.8491    9.3368 H         1 RES1    0.0000
     27 H10        6.4811   -2.3974    9.5342 H         1 RES1    0.0000
     28 H11        7.4504   -2.1191    4.6980 H         1 RES1    0.0000
     29 H12        4.6377    1.3842    3.6123 H         1 RES1    0.0000
     30 H13        8.4240   -3.0609    6.5930 H         1 RES1    0.0000
     31 H14        5.1877   -4.2168    7.8366 H         1 RES1    0.0000
     32 H15        6.2399   -4.1954    5.1125 H         1 RES1    0.0000
     33 H16        3.7003   -1.5198    1.2831 H         1 RES1    0.0000
     34 H17        3.5064   -0.0999   -0.6711 H         1 RES1    0.0000
     35 H18        3.7521   -2.0477    6.0797 H         1 RES1    0.0000
     36 H19        3.7430   -0.2783    7.2839 H         1 RES1    0.0000
     37 N1         3.9989    2.4644   -0.6277 N.pl3     1 RES1    0.0000
     38 O1         3.9586    3.6538   -0.3810 O.2       1 RES1    0.0000
     39 O2         3.9996    2.0156   -1.7509 O.2       1 RES1    0.0000
     40 O3         3.9265   -2.3881    3.6084 O.2       1 RES1    0.0000
     41 O4         4.5272   -0.6557    4.8776 O.3       1 RES1    0.0000
@<TRIPOS>BOND
     1    1   10 ar
     2    2    3 1
     3    3    4 1
     4    4    5 1
     5    5    6 1
     6    6    7 1
     7    7    4 1
     8    8    4 1
     9    9    5 1
    10   10   11 ar
    11   11   12 ar
    12   12   13 ar
    13   13   14 ar
    14   14    1 ar
    15   15   12 1
    16   16    5 1
    17   17    2 1
    18   18    2 1
    19   19    3 1
    20   20    6 1
    21   21    7 1
    22   22    8 1
    23   23    9 1
    24   24   17 1
    25   25   10 1
    26   26    2 1
    27   27    3 1
    28   28    6 1
    29   29   11 1
    30   30    7 1
    31   31    8 1
    32   32    9 1
    33   33   13 1
    34   34   14 1
    35   35   16 1
    36   36   17 1
    37   37    1 1
    38   38   37 2
    39   39   37 2
    40   40   15 2
    41   41   15 1
    42    8    9 1
    43   16   17 1
    44   16   41 1
@<TRIPOS>SUBSTRUCTURE
     1 RES1 1

@<TRIPOS>CRYSIN
  10.9760    7.1350   19.7400  90.0000  90.4300  90.0000 231 1

