# MOL2 file generated by ConQuest
# Please check atom types

@<TRIPOS>MOLECULE
PUBLUT01
    30    33     1
SMALL
NO_CHARGES
****
Generated from CSD

@<TRIPOS>ATOM
      1 O1         9.0082   -4.2043    5.7863 O.2       1 RES1    0.0000
      2 O2         8.1850   -5.1904    4.0418 O.2       1 RES1    0.0000
      3 O3         6.9276   -0.5869    4.9591 O.2       1 RES1    0.0000
      4 O4         6.0866   -1.2091    3.0508 O.2       1 RES1    0.0000
      5 O5         9.4406   -0.2511   -0.6196 O.2       1 RES1    0.0000
      6 O6         8.8602    1.4193    3.9649 O.2       1 RES1    0.0000
      7 O7        12.3522   -3.5581    0.3944 O.2       1 RES1    0.0000
      8 O8        12.9142   -3.3818    4.8635 O.2       1 RES1    0.0000
      9 N1         9.7846   -3.6710    3.7561 N.3       1 RES1    0.0000
     10 N2         8.2117   -1.7071    3.5320 N.3       1 RES1    0.0000
     11 N3         9.1436   -1.3615    1.3095 N.am      1 RES1    0.0000
     12 N4        10.2009   -0.2949    3.4617 N.am      1 RES1    0.0000
     13 N5        10.4962   -3.1462    1.5666 N.am      1 RES1    0.0000
     14 N6        11.5604   -2.0584    3.6704 N.am      1 RES1    0.0000
     15 N7         8.9154   -4.3849    4.5845 N.pl3     1 RES1    0.0000
     16 N8         6.9976   -1.1047    3.8572 N.pl3     1 RES1    0.0000
     17 C1        10.3718   -2.4732    4.3757 C.3       1 RES1    0.0000
     18 C2         9.3477   -3.5003    2.3576 C.3       1 RES1    0.0000
     19 C3         8.3997   -2.2545    2.1928 C.3       1 RES1    0.0000
     20 C4         9.4138   -1.2472    4.2263 C.3       1 RES1    0.0000
     21 C5        10.5574   -1.7015    1.4216 C.3       1 RES1    0.0000
     22 C6        11.2025   -1.0341    2.7070 C.3       1 RES1    0.0000
     23 C7         8.6675   -0.7703    0.1582 C.2       1 RES1    0.0000
     24 C8         9.8245    1.0130    3.3376 C.2       1 RES1    0.0000
     25 C9        11.4062   -3.9912    1.0151 C.2       1 RES1    0.0000
     26 C10       12.8005   -2.5254    4.0022 C.2       1 RES1    0.0000
     27 C11        7.2091   -0.7689   -0.0868 C.3       1 RES1    0.0000
     28 C12       10.6469    1.8919    2.4543 C.3       1 RES1    0.0000
     29 C13       11.1606   -5.4529    1.2667 C.3       1 RES1    0.0000
     30 C14       13.9669   -1.9498    3.2585 C.3       1 RES1    0.0000
@<TRIPOS>BOND
     1    1   15 2
     2    2   15 2
     3    3   16 2
     4    4   16 2
     5    5   23 2
     6    6   24 2
     7    7   25 2
     8    8   26 2
     9    9   15 1
    10   10   16 1
    11   11   19 1
    12   12   20 1
    13   13   18 1
    14   14   17 1
    15   17    9 1
    16   18    9 1
    17   19   10 1
    18   20   10 1
    19   21   11 1
    20   22   12 1
    21   23   11 1
    22   24   12 1
    23   25   13 1
    24   26   14 1
    25   27   23 1
    26   28   24 1
    27   29   25 1
    28   30   26 1
    29   13   21 1
    30   14   22 1
    31   17   20 1
    32   18   19 1
    33   21   22 1
@<TRIPOS>SUBSTRUCTURE
     1 RES1 1

@<TRIPOS>CRYSIN
  11.2231   14.1083   11.2331  90.0000 102.0390  90.0000 231 1

