# MOL2 file generated by ConQuest
# Please check atom types

@<TRIPOS>MOLECULE
PUBLUT
    51    51     2
SMALL
NO_CHARGES
****
Generated from CSD

@<TRIPOS>ATOM
      1 C1        -2.3180    8.1757    8.5564 C.3       1 RES1    0.0000
      2 H1        -3.0829    7.5983    8.7608 H         1 RES1    0.0000
      3 N1        -1.2866    7.4504    7.8243 N.am      1 RES1    0.0000
      4 C2        -0.5024    8.4146    7.0866 C.3       1 RES1    0.0000
      5 H2        -0.2431    8.0534    6.2141 H         1 RES1    0.0000
      6 N2         0.6650    8.8867    7.8131 N.pl3     1 RES1    0.0000
      7 C3         0.4310    9.4285    9.1437 C.3       1 RES1    0.0000
      8 H3         1.2747    9.6973    9.5648 H         1 RES1    0.0000
      9 N3        -0.3227    8.5340   10.0151 N.am      1 RES1    0.0000
     10 C4        -1.7362    8.8455    9.8624 C.3       1 RES1    0.0000
     11 H4        -2.2471    8.5824   10.6563 H         1 RES1    0.0000
     12 N4        -1.6877   10.2974    9.7220 N.am      1 RES1    0.0000
     13 C5        -0.5229   10.6700    8.9551 C.3       1 RES1    0.0000
     14 H5        -0.1154   11.4906    9.3043 H         1 RES1    0.0000
     15 N5        -0.9264   10.8307    7.5481 N.3       1 RES1    0.0000
     16 C6        -1.4630    9.6290    6.9137 C.3       1 RES1    0.0000
     17 H6        -1.6422    9.7926    5.9637 H         1 RES1    0.0000
     18 N6        -2.6658    9.1882    7.5863 N.am      1 RES1    0.0000
     19 C7        -1.0908    6.1179    7.7356 C.2       1 RES1    0.0000
     20 O1        -0.1999    5.6941    7.0136 O.2       1 RES1    0.0000
     21 C8        -1.9652    5.2120    8.5261 C.3       1 RES1    0.0000
     22 H7        -2.8805    5.3443    8.2690 H         1 RES1    0.0000
     23 H8        -1.8649    5.4054    9.4615 H         1 RES1    0.0000
     24 H9        -1.7144    4.3004    8.3599 H         1 RES1    0.0000
     25 N7         1.9048    8.2880    7.5290 N.pl3     1 RES1    0.0000
     26 O2         2.0065    7.7192    6.4712 O.2       1 RES1    0.0000
     27 O3         2.7868    8.4771    8.3431 O.2       1 RES1    0.0000
     28 C9         0.1296    7.9126   11.1515 C.2       1 RES1    0.0000
     29 O4        -0.6784    7.3807   11.8847 O.2       1 RES1    0.0000
     30 C10        1.5687    7.8969   11.4142 C.3       1 RES1    0.0000
     31 H10        2.0432    7.7561   10.5911 H         1 RES1    0.0000
     32 H11        1.7751    7.1859   12.0262 H         1 RES1    0.0000
     33 H12        1.8337    8.7360   11.7982 H         1 RES1    0.0000
     34 C11       -2.6461   11.1080   10.2318 C.2       1 RES1    0.0000
     35 O5        -3.5887   10.6473   10.8348 O.2       1 RES1    0.0000
     36 C12       -2.4736   12.5600    9.9556 C.3       1 RES1    0.0000
     37 H13       -1.6160   12.8473   10.2767 H         1 RES1    0.0000
     38 H14       -3.1663   13.0549   10.4014 H         1 RES1    0.0000
     39 H15       -2.5287   12.7136    9.0090 H         1 RES1    0.0000
     40 N8        -0.0492   11.5802    6.7441 N.pl3     1 RES1    0.0000
     41 O6         0.6186   12.4206    7.3179 O.2       1 RES1    0.0000
     42 O7        -0.0925   11.3967    5.5415 O.2       1 RES1    0.0000
     43 C13       -3.9055    9.6305    7.2022 C.2       1 RES1    0.0000
     44 O8        -3.9951   10.4809    6.3320 O.2       1 RES1    0.0000
     45 C14       -5.0771    9.0474    7.9175 C.3       1 RES1    0.0000
     46 H16       -5.8799    9.4883    7.6289 H         1 RES1    0.0000
     47 H17       -4.9667    9.1683    8.8630 H         1 RES1    0.0000
     48 H18       -5.1373    8.1088    7.7188 H         1 RES1    0.0000
     49 H19        1.7244    8.0292   12.3530 Du        2 SUP2    0.0000
     50 H20        1.9926    8.5994   10.9168 Du        2 SUP2    0.0000
     51 H21        1.9339    7.0493   11.1458 Du        2 SUP2    0.0000
@<TRIPOS>BOND
     1    1    2 1
     2    3    1 1
     3    4    3 1
     4    5    4 1
     5    6    4 1
     6    7    6 1
     7    8    7 1
     8    9    7 1
     9   10    1 1
    10   11   10 1
    11   12   10 1
    12   13    7 1
    13   14   13 1
    14   15   13 1
    15   16    4 1
    16   17   16 1
    17   18    1 1
    18   19    3 1
    19   20   19 2
    20   21   19 1
    21   22   21 1
    22   23   21 1
    23   24   21 1
    24   25    6 1
    25   26   25 2
    26   27   25 2
    27   28    9 1
    28   29   28 2
    29   30   28 1
    30   31   30 1
    31   32   30 1
    32   33   30 1
    33   34   12 1
    34   35   34 2
    35   36   34 1
    36   37   36 1
    37   38   36 1
    38   39   36 1
    39   40   15 1
    40   41   40 2
    41   42   40 2
    42   43   18 1
    43   44   43 2
    44   45   43 1
    45   46   45 1
    46   47   45 1
    47   48   45 1
    48    9   10 1
    49   12   13 1
    50   15   16 1
    51   16   18 1
@<TRIPOS>SUBSTRUCTURE
     1 RES1 1
     2 SUP2 49

@<TRIPOS>CRYSIN
  11.2410   14.2210   11.4910  90.0000 102.2600  90.0000 231 1

