# MOL2 file generated by ConQuest
# Please check atom types

@<TRIPOS>MOLECULE
PUBLON
    51    49     2
SMALL
NO_CHARGES
****
Generated from CSD

@<TRIPOS>ATOM
      1 C1         2.7420   21.2019    0.3520 C.3       1 RES1    0.0000
      2 H1         2.4071   21.7383    1.1008 H         1 RES1    0.0000
      3 N1         3.5773   21.9989   -0.5460 N.am      1 RES1    0.0000
      4 C2         4.4570   21.0979   -1.2806 C.3       1 RES1    0.0000
      5 H2         5.3360   21.5074   -1.4212 H         1 RES1    0.0000
      6 C3         2.5840   20.0156   -2.4936 C.3       1 RES1    0.0000
      7 H3         2.2905   19.7539   -3.3917 H         1 RES1    0.0000
      8 N2         1.5791   20.8431   -1.8368 N.am      1 RES1    0.0000
      9 C4         1.5531   20.4847   -0.4294 C.3       1 RES1    0.0000
     10 H4         0.6853   20.6971   -0.0251 H         1 RES1    0.0000
     11 N3         1.7592   19.0455   -0.5061 N.am      1 RES1    0.0000
     12 C5         2.7087   18.7714   -1.5618 C.3       1 RES1    0.0000
     13 H5         2.4736   17.9491   -2.0402 H         1 RES1    0.0000
     14 N4         4.0595   18.6974   -1.0343 N.3       1 RES1    0.0000
     15 C6         4.5655   19.8656   -0.3368 C.3       1 RES1    0.0000
     16 H6         5.4934   19.7260   -0.0534 H         1 RES1    0.0000
     17 N5         3.7317   20.2281    0.7942 N.am      1 RES1    0.0000
     18 C7         3.3930   23.2806   -0.9733 C.2       1 RES1    0.0000
     19 O1         4.0852   23.6927   -1.8931 O.2       1 RES1    0.0000
     20 C8         2.3865   24.1225   -0.2790 C.3       1 RES1    0.0000
     21 H7         2.4224   25.0165   -0.6278 H         1 RES1    0.0000
     22 H8         2.5770   24.1388    0.6616 H         1 RES1    0.0000
     23 H9         1.5105   23.7571   -0.4218 H         1 RES1    0.0000
     24 N6         3.8715   20.6916   -2.5405 N.3       1 RES1    0.0000
     25 N7         4.5203   21.1152   -3.6500 N.2       1 RES1    0.0000
     26 O2         3.9603   20.8152   -4.6908 O.2       1 RES1    0.0000
     27 C9         0.5851   21.5683   -2.4228 C.2       1 RES1    0.0000
     28 O3        -0.2852   22.0690   -1.7376 O.2       1 RES1    0.0000
     29 C10        0.6466   21.7448   -3.8952 C.3       1 RES1    0.0000
     30 H10        0.0159   22.4176   -4.1633 H         1 RES1    0.0000
     31 H11        0.4317   20.9147   -4.3268 H         1 RES1    0.0000
     32 H12        1.5318   22.0181   -4.1481 H         1 RES1    0.0000
     33 C11        1.1235   18.1583    0.3019 C.2       1 RES1    0.0000
     34 O4         0.3714   18.5571    1.1716 O.2       1 RES1    0.0000
     35 C12        1.4171   16.7074    0.0785 C.3       1 RES1    0.0000
     36 H13        0.7386   16.1757    0.5003 H         1 RES1    0.0000
     37 H14        2.2735   16.4920    0.4556 H         1 RES1    0.0000
     38 H15        1.4278   16.5247   -0.8643 H         1 RES1    0.0000
     39 N8         4.8001   17.6284   -1.3493 N.2       1 RES1    0.0000
     40 O5         5.9598   17.6768   -0.9678 O.2       1 RES1    0.0000
     41 C13        3.7664   19.5482    1.9781 C.2       1 RES1    0.0000
     42 O6         4.5377   18.6059    2.0980 O.2       1 RES1    0.0000
     43 C14        2.8673   20.0191    3.0658 C.3       1 RES1    0.0000
     44 H16        2.9973   19.4741    3.8462 H         1 RES1    0.0000
     45 H17        1.9543   19.9523    2.7781 H         1 RES1    0.0000
     46 H18        3.0712   20.9325    3.2762 H         1 RES1    0.0000
     47 H19        1.9178   23.5923    0.3695 Du        2 SUP2    0.0000
     48 H20        1.7621   24.4700   -0.9199 Du        2 SUP2    0.0000
     49 H21        2.8287   24.8502    0.1635 Du        2 SUP2    0.0000
     50 N9         4.3862   20.9414   -3.7677 Du        2 SUP2    0.0000
     51 O7         5.4283   21.5755   -3.7383 Du        2 SUP2    0.0000
@<TRIPOS>BOND
     1    1    2 1
     2    3    1 1
     3    4    3 1
     4    5    4 1
     5    6    7 1
     6    8    6 1
     7    9    1 1
     8   10    9 1
     9   11    9 1
    10   12    6 1
    11   13   12 1
    12   14   12 1
    13   15    4 1
    14   16   15 1
    15   17    1 1
    16   18    3 1
    17   19   18 2
    18   20   18 1
    19   21   20 1
    20   22   20 1
    21   23   20 1
    22   24    4 1
    23   25   24 1
    24   26   25 2
    25   27    8 1
    26   28   27 2
    27   29   27 1
    28   30   29 1
    29   31   29 1
    30   32   29 1
    31   33   11 1
    32   34   33 2
    33   35   33 1
    34   36   35 1
    35   37   35 1
    36   38   35 1
    37   39   14 1
    38   40   39 2
    39   41   17 1
    40   42   41 2
    41   43   41 1
    42   44   43 1
    43   45   43 1
    44   46   43 1
    45    6   24 1
    46    8    9 1
    47   11   12 1
    48   14   15 1
    49   15   17 1
@<TRIPOS>SUBSTRUCTURE
     1 RES1 1
     2 SUP2 47

@<TRIPOS>CRYSIN
  10.8620   14.8510   11.0580  90.0000  99.7360  90.0000 231 1

