# MOL2 file generated by ConQuest
# Please check atom types

@<TRIPOS>MOLECULE
PUBMUU20
    72    78     2
SMALL
NO_CHARGES
****
Generated from CSD

@<TRIPOS>ATOM
      1 O1        -0.4741    3.7976    6.1182 O.2       1 RES1    0.0000
      2 O2        -0.9431    3.2214    8.1631 O.2       1 RES1    0.0000
      3 O3         1.9257   -0.7005    9.3712 O.2       1 RES1    0.0000
      4 N1         1.7617    0.3942    7.4497 N.3       1 RES1    0.0000
      5 C1         0.9107    1.5780    5.6400 C.3       1 RES1    0.0000
      6 N2        -0.3432    3.1184    7.0415 N.pl3     1 RES1    0.0000
      7 O4         1.4718   -3.0217    5.0398 O.2       1 RES1    0.0000
      8 O5         2.9559   -1.4663    7.6557 O.2       1 RES1    0.0000
      9 O6         3.1013   -1.6270    4.6875 O.2       1 RES1    0.0000
     10 C2        -0.7015    0.1004    7.8528 C.3       1 RES1    0.0000
     11 C3        -1.0442    0.1331    5.4862 C.3       1 RES1    0.0000
     12 O7        -0.8496   -3.3820    7.2895 O.2       1 RES1    0.0000
     13 N3         0.5562    2.1053    6.9664 N.3       1 RES1    0.0000
     14 O8        -1.3774   -2.1819    9.0355 O.2       1 RES1    0.0000
     15 N4        -0.9085   -2.3476    7.9062 N.pl3     1 RES1    0.0000
     16 N5        -0.2513   -1.1876    7.3301 N.3       1 RES1    0.0000
     17 O9        -3.6797    0.3741    6.0584 O.2       1 RES1    0.0000
     18 N6        -0.2422    1.1437    4.9164 N.pl3     1 RES1    0.0000
     19 C4         0.5616    1.0520    7.9189 C.3       1 RES1    0.0000
     20 N7         1.1594   -0.8248    5.4378 N.3       1 RES1    0.0000
     21 N8        -2.9929    0.4946    6.9931 N.pl3     1 RES1    0.0000
     22 N9        -1.5895    0.6177    6.7655 N.3       1 RES1    0.0000
     23 C5         1.7833    0.3088    5.9796 C.3       1 RES1    0.0000
     24 N10        2.0065   -1.9157    5.0512 N.pl3     1 RES1    0.0000
     25 N11        2.2298   -0.6792    8.2025 N.pl3     1 RES1    0.0000
     26 O10       -3.3422    0.6189    8.1975 O.2       1 RES1    0.0000
     27 O11        0.1042    2.5974    3.2785 O.2       1 RES1    0.0000
     28 O12       -1.4448    1.1311    3.1004 O.2       1 RES1    0.0000
     29 N12       -0.5417    1.6910    3.6485 N.pl3     1 RES1    0.0000
     30 C6        -0.1729   -1.1349    5.8766 C.3       1 RES1    0.0000
     31 H1         0.5602    1.4060    8.8765 H         1 RES1    0.0000
     32 H2         1.3686    2.2723    5.0741 H         1 RES1    0.0000
     33 H3         2.7265    0.1255    5.4048 H         1 RES1    0.0000
     34 H4        -1.2978    0.0126    8.8257 H         1 RES1    0.0000
     35 H5        -1.6186    0.0251    4.6672 H         1 RES1    0.0000
     36 H6        -0.6282   -2.2346    5.4811 H         1 RES1    0.0000
     37 O13        2.3907    1.0169    3.0267 O.2       2 RES2    0.0000
     38 O14        3.9592    2.5058    3.3039 O.2       2 RES2    0.0000
     39 N13        2.7682    2.5108    1.4498 N.3       2 RES2    0.0000
     40 N14        3.0691    2.0112    2.6604 N.pl3     2 RES2    0.0000
     41 N15        0.7144    3.2402   -1.1318 N.3       2 RES2    0.0000
     42 O15        0.5517    4.2910   -3.0140 O.2       2 RES2    0.0000
     43 O16        3.4073    0.4030   -1.7155 O.2       2 RES2    0.0000
     44 N16        2.8562    0.5135   -0.7172 N.pl3     2 RES2    0.0000
     45 O17        2.9642   -0.2385    0.3052 O.2       2 RES2    0.0000
     46 N17        1.9207    1.5504   -0.5608 N.3       2 RES2    0.0000
     47 O18       -0.4988    5.0743   -1.2781 O.2       2 RES2    0.0000
     48 C7         1.9409    2.5962   -1.6036 C.3       2 RES2    0.0000
     49 N18        0.2146    4.2847   -1.8529 N.pl3     2 RES2    0.0000
     50 O19        1.0454    6.6574    1.2386 O.2       2 RES2    0.0000
     51 O20        3.3524    6.9449   -0.8877 O.2       2 RES2    0.0000
     52 N19        3.4038    5.9581   -1.5642 N.pl3     2 RES2    0.0000
     53 C8         2.6918    4.7617    0.4400 C.3       2 RES2    0.0000
     54 N20        2.7645    4.8371   -1.0237 N.3       2 RES2    0.0000
     55 O21        3.8982    5.8238   -2.6057 O.2       2 RES2    0.0000
     56 N21        1.3548    4.5144    0.8622 N.3       2 RES2    0.0000
     57 O22       -0.5763    5.2890    1.6672 O.2       2 RES2    0.0000
     58 N22        0.5520    5.5564    1.3035 N.pl3     2 RES2    0.0000
     59 O23        6.2095    3.2741    0.3243 O.2       2 RES2    0.0000
     60 N23        4.0873    3.0494   -0.4349 N.3       2 RES2    0.0000
     61 N24        5.4916    3.1473   -0.6829 N.pl3     2 RES2    0.0000
     62 O24        5.8300    3.0017   -1.7435 O.2       2 RES2    0.0000
     63 C9         0.6930    3.2879    0.3345 C.3       2 RES2    0.0000
     64 C10        3.6140    3.5415    0.8228 C.3       2 RES2    0.0000
     65 C11        3.2231    3.5402   -1.4548 C.3       2 RES2    0.0000
     66 C12        1.6003    2.0664    0.7376 C.3       2 RES2    0.0000
     67 H7         3.5623    3.4524   -2.2764 H         2 RES2    0.0000
     68 H8         4.2837    4.0173    1.3480 H         2 RES2    0.0000
     69 H9         2.8942    5.4610    0.8012 H         2 RES2    0.0000
     70 H10        1.5621    2.5234   -2.6452 H         2 RES2    0.0000
     71 H11        1.1216    1.2680    1.2844 H         2 RES2    0.0000
     72 H12       -0.2542    3.1762    0.5468 H         2 RES2    0.0000
@<TRIPOS>BOND
     1    1    6 2
     2    2    6 2
     3    3   25 2
     4    4   19 1
     5    5   13 1
     6    6   13 1
     7    7   24 2
     8    8   25 2
     9    9   24 2
    10   10   16 1
    11   11   18 1
    12   12   15 2
    13   13   19 1
    14   14   15 2
    15   15   16 1
    16   16   30 1
    17   17   21 2
    18   18    5 1
    19   19   10 1
    20   20   23 1
    21   21   22 1
    22   22   10 1
    23   23    4 1
    24   24   20 1
    25   25    4 1
    26   26   21 2
    27   27   29 2
    28   28   29 2
    29   29   18 1
    30   30   11 1
    31   31   19 1
    32   32    5 1
    33   33   23 1
    34   34   10 1
    35   35   11 1
    36   36   30 1
    37   37   40 2
    38   38   40 2
    39   39   40 1
    40   41   48 1
    41   42   49 2
    42   43   44 2
    43   44   45 2
    44   46   44 1
    45   47   49 2
    46   48   46 1
    47   49   41 1
    48   50   58 2
    49   51   52 2
    50   52   54 1
    51   53   54 1
    52   54   65 1
    53   55   52 2
    54   56   53 1
    55   57   58 2
    56   58   56 1
    57   59   61 2
    58   60   61 1
    59   61   62 2
    60   63   41 1
    61   64   39 1
    62   65   48 1
    63   66   39 1
    64   67   65 1
    65   68   64 1
    66   69   53 1
    67   70   48 1
    68   71   66 1
    69   72   63 1
    70    5   23 1
    71   11   22 1
    72   20   30 1
    73   46   66 1
    74   53   64 1
    75   56   63 1
    76   60   64 1
    77   60   65 1
    78   63   66 1
@<TRIPOS>SUBSTRUCTURE
     1 RES1 1
     2 RES2 37

@<TRIPOS>CRYSIN
   8.8370   12.5540   13.2890  90.0000 106.8700  90.0000   4 1

