# MOL2 file generated by ConQuest
# Please check atom types

@<TRIPOS>MOLECULE
PUBMUU01
    36    39     1
SMALL
NO_CHARGES
****
Generated from CSD

@<TRIPOS>ATOM
      1 C1         3.6033    7.4719    2.5896 C.3       1 RES1    0.0000
      2 H1         2.8699    8.1288    2.4882 H         1 RES1    0.0000
      3 N1         3.0973    6.2039    3.0625 N.3       1 RES1    0.0000
      4 N2         1.6923    5.9489    2.9519 N.pl3     1 RES1    0.0000
      5 O1         1.3682    4.7927    2.9530 O.2       1 RES1    0.0000
      6 O2         0.9821    6.9270    2.9623 O.2       1 RES1    0.0000
      7 C2         4.0233    5.1426    2.6653 C.3       1 RES1    0.0000
      8 H2         3.5782    4.3609    2.4148 H         1 RES1    0.0000
      9 N3         4.9164    4.8486    3.7533 N.3       1 RES1    0.0000
     10 N4         4.6145    3.7613    4.6107 N.pl3     1 RES1    0.0000
     11 O3         3.6691    3.0772    4.2810 O.2       1 RES1    0.0000
     12 O4         5.3692    3.5884    5.5391 O.2       1 RES1    0.0000
     13 C3         5.7001    5.9242    4.2798 C.3       1 RES1    0.0000
     14 H3         6.2788    5.6134    5.0172 H         1 RES1    0.0000
     15 N5         4.9048    7.0896    4.7307 N.3       1 RES1    0.0000
     16 N6         3.8907    6.8958    5.6346 N.pl3     1 RES1    0.0000
     17 O5         4.0117    5.9385    6.3871 O.2       1 RES1    0.0000
     18 O6         2.9783    7.6943    5.6346 O.2       1 RES1    0.0000
     19 C4         4.6919    8.0052    3.6182 C.3       1 RES1    0.0000
     20 H4         4.5371    8.8857    3.8838 H         1 RES1    0.0000
     21 N7         6.0001    7.9324    2.9880 N.3       1 RES1    0.0000
     22 N8         6.9203    8.9910    3.2233 N.pl3     1 RES1    0.0000
     23 O7         6.4626   10.0367    3.6100 O.2       1 RES1    0.0000
     24 O8         8.0649    8.7465    2.9216 O.2       1 RES1    0.0000
     25 C5         6.5187    6.5641    3.1103 C.3       1 RES1    0.0000
     26 H5         7.3586    6.5511    3.2524 H         1 RES1    0.0000
     27 N9         6.2439    5.8241    1.9186 N.3       1 RES1    0.0000
     28 O9         8.3833    5.8475    1.3781 O.2       1 RES1    0.0000
     29 O10        4.4335    9.1614    0.7059 O.2       1 RES1    0.0000
     30 N10        7.2725    5.5315    1.0274 N.pl3     1 RES1    0.0000
     31 N11        4.2149    7.0454    1.3198 N.3       1 RES1    0.0000
     32 O11        5.7127    7.6527   -0.2108 O.2       1 RES1    0.0000
     33 O12        6.9716    4.9540    0.0058 O.2       1 RES1    0.0000
     34 C6         4.8690    5.7408    1.4899 C.3       1 RES1    0.0000
     35 H6         4.8225    5.2570    0.7351 H         1 RES1    0.0000
     36 N12        4.8380    8.0260    0.5498 N.pl3     1 RES1    0.0000
@<TRIPOS>BOND
     1    1    2 1
     2    3    1 1
     3    4    3 1
     4    5    4 2
     5    6    4 2
     6    7    3 1
     7    8    7 1
     8    9    7 1
     9   10    9 1
    10   11   10 2
    11   12   10 2
    12   13    9 1
    13   14   13 1
    14   15   13 1
    15   16   15 1
    16   17   16 2
    17   18   16 2
    18   19    1 1
    19   20   19 1
    20   21   19 1
    21   22   21 1
    22   23   22 2
    23   24   22 2
    24   25   13 1
    25   26   25 1
    26   27   25 1
    27   28   30 2
    28   29   36 2
    29   30   27 1
    30   31    1 1
    31   32   36 2
    32   33   30 2
    33   34    7 1
    34   35   34 1
    35   36   31 1
    36   15   19 1
    37   21   25 1
    38   27   34 1
    39   31   34 1
@<TRIPOS>SUBSTRUCTURE
     1 RES1 1

@<TRIPOS>CRYSIN
   9.6760   13.0060   11.6490  90.0000  90.0000  90.0000  29 4

