# MOL2 file generated by ConQuest
# Please check atom types

@<TRIPOS>MOLECULE
PUBMUU05
    36    39     1
SMALL
NO_CHARGES
****
Generated from CSD

@<TRIPOS>ATOM
      1 O1         2.2386    7.6950    4.9877 O.2       1 RES1    0.0000
      2 O2         2.7013    8.3004    2.9405 O.2       1 RES1    0.0000
      3 O3         5.0887    3.7851    6.2592 O.2       1 RES1    0.0000
      4 O4         6.1504    3.0158    4.5133 O.2       1 RES1    0.0000
      5 O5         6.2648    2.8315    1.5343 O.2       1 RES1    0.0000
      6 O6         4.6404    1.4473    1.9103 O.2       1 RES1    0.0000
      7 O7         2.3098    1.1158    4.1279 O.2       1 RES1    0.0000
      8 O8         1.7702    2.2782    5.8829 O.2       1 RES1    0.0000
      9 O9         1.7255    5.5968   -0.1041 O.2       1 RES1    0.0000
     10 O10        3.2876    7.0719    0.1296 O.2       1 RES1    0.0000
     11 O11       -0.1780    5.0845    5.0275 O.2       1 RES1    0.0000
     12 O12       -0.5238    4.8378    2.8911 O.2       1 RES1    0.0000
     13 N1         3.7294    6.5622    3.8079 N.3       1 RES1    0.0000
     14 N2         4.9399    4.8592    4.3327 N.3       1 RES1    0.0000
     15 N3         4.3294    3.6175    2.3078 N.3       1 RES1    0.0000
     16 N4         2.9024    3.2670    4.2178 N.3       1 RES1    0.0000
     17 N5         2.9184    5.5992    1.7582 N.3       1 RES1    0.0000
     18 N6         1.5818    5.0662    3.6397 N.3       1 RES1    0.0000
     19 N7         2.8202    7.5818    3.9152 N.pl3     1 RES1    0.0000
     20 N8         5.4222    3.8044    5.0818 N.pl3     1 RES1    0.0000
     21 N9         5.1522    2.5444    1.8967 N.pl3     1 RES1    0.0000
     22 N10        2.2522    2.1325    4.7795 N.pl3     1 RES1    0.0000
     23 N11        2.6170    6.1283    0.5040 N.pl3     1 RES1    0.0000
     24 N12        0.1740    4.9589    3.8696 N.pl3     1 RES1    0.0000
     25 C1         4.0804    6.0390    2.4798 C.3       1 RES1    0.0000
     26 C2         4.9673    4.7929    2.8533 C.3       1 RES1    0.0000
     27 C3         3.7275    5.5065    4.8050 C.3       1 RES1    0.0000
     28 C4         2.4502    4.5675    4.6989 C.3       1 RES1    0.0000
     29 C5         2.1001    4.5737    2.3551 C.3       1 RES1    0.0000
     30 C6         2.9908    3.3377    2.7451 C.3       1 RES1    0.0000
     31 H1         4.5360    6.6553    1.9567 H         1 RES1    0.0000
     32 H2         5.8707    4.8412    2.4924 H         1 RES1    0.0000
     33 H3         3.8457    5.8401    5.6915 H         1 RES1    0.0000
     34 H4         1.9559    4.5115    5.4666 H         1 RES1    0.0000
     35 H5         1.3878    4.3480    1.7331 H         1 RES1    0.0000
     36 H6         2.7314    2.5414    2.3562 H         1 RES1    0.0000
@<TRIPOS>BOND
     1    1   19 2
     2    2   19 2
     3    3   20 2
     4    4   20 2
     5    5   21 2
     6    6   21 2
     7    7   22 2
     8    8   22 2
     9    9   23 2
    10   10   23 2
    11   11   24 2
    12   12   24 2
    13   13   19 1
    14   14   20 1
    15   15   21 1
    16   16   22 1
    17   17   23 1
    18   18   24 1
    19   25   13 1
    20   26   14 1
    21   27   13 1
    22   28   16 1
    23   29   17 1
    24   30   15 1
    25   31   25 1
    26   32   26 1
    27   33   27 1
    28   34   28 1
    29   35   29 1
    30   36   30 1
    31   14   27 1
    32   15   26 1
    33   16   30 1
    34   17   25 1
    35   18   28 1
    36   18   29 1
    37   25   26 1
    38   27   28 1
    39   29   30 1
@<TRIPOS>SUBSTRUCTURE
     1 RES1 1

@<TRIPOS>CRYSIN
   8.8596   12.5810   13.4260  90.0000 106.8800  90.0000 231 1

