# MOL2 file generated by ConQuest
# Please check atom types

@<TRIPOS>MOLECULE
PUBMUU03
    36    39     1
SMALL
NO_CHARGES
****
Generated from CSD

@<TRIPOS>ATOM
      1 O1        -0.3964    5.1151    5.3116 O.2       1 RES1    0.0000
      2 O2         0.8743    6.0335    3.7944 O.2       1 RES1    0.0000
      3 O3        -3.8539    2.8695    3.0877 O.2       1 RES1    0.0000
      4 O4        -3.4623    2.8672    0.9431 O.2       1 RES1    0.0000
      5 O5        -1.1661    1.5378   -0.7755 O.2       1 RES1    0.0000
      6 O6         0.5341    0.2840   -0.2481 O.2       1 RES1    0.0000
      7 O7        -1.8649    0.2014    3.8502 O.2       1 RES1    0.0000
      8 O8        -0.8336   -0.5588    2.0849 O.2       1 RES1    0.0000
      9 O9         3.5399    4.4375    2.0083 O.2       1 RES1    0.0000
     10 O10        2.1431    5.8077    1.1003 O.2       1 RES1    0.0000
     11 O11        3.2181    2.9009    4.8998 O.2       1 RES1    0.0000
     12 O12        1.6110    2.2258    6.1845 O.2       1 RES1    0.0000
     13 N1        -0.6281    4.5016    3.1903 N.3       1 RES1    0.0000
     14 N2        -1.7389    2.7519    2.3564 N.3       1 RES1    0.0000
     15 N3         0.0766    2.0744    0.9989 N.3       1 RES1    0.0000
     16 N4         0.0649    1.0966    3.2358 N.3       1 RES1    0.0000
     17 N5         1.4065    3.8974    1.9823 N.3       1 RES1    0.0000
     18 N6         1.1564    2.8357    4.0893 N.3       1 RES1    0.0000
     19 N7        -0.0010    5.2664    4.1763 N.pl3     1 RES1    0.0000
     20 N8        -3.1415    2.8718    2.1044 N.pl3     1 RES1    0.0000
     21 N9        -0.2336    1.2258   -0.0935 N.pl3     1 RES1    0.0000
     22 N10       -0.9519    0.1897    3.0371 N.pl3     1 RES1    0.0000
     23 N11        2.4271    4.7961    1.6887 N.pl3     1 RES1    0.0000
     24 N12        2.0801    2.5971    5.1336 N.pl3     1 RES1    0.0000
     25 C1         0.0320    4.3246    1.8900 C.3       1 RES1    0.0000
     26 C2        -0.8132    3.1535    1.2899 C.3       1 RES1    0.0000
     27 C3        -1.2252    3.2397    3.6060 C.3       1 RES1    0.0000
     28 C4        -0.1502    2.2164    4.1672 C.3       1 RES1    0.0000
     29 C5         1.6788    2.7065    2.7188 C.3       1 RES1    0.0000
     30 C6         0.8578    1.5448    2.0680 C.3       1 RES1    0.0000
     31 H1         0.0194    5.0406    1.3510 H         1 RES1    0.0000
     32 H2        -1.3182    3.4341    0.4027 H         1 RES1    0.0000
     33 H3        -1.9483    3.3759    4.2477 H         1 RES1    0.0000
     34 H4        -0.3586    1.9091    5.0531 H         1 RES1    0.0000
     35 H5         2.4717    2.5494    2.7409 H         1 RES1    0.0000
     36 H6         1.3764    0.7799    1.8056 H         1 RES1    0.0000
@<TRIPOS>BOND
     1    1   19 2
     2    2   19 2
     3    3   20 2
     4    4   20 2
     5    5   21 2
     6    6   21 2
     7    7   22 2
     8    8   22 2
     9    9   23 2
    10   10   23 2
    11   11   24 2
    12   12   24 2
    13   13   19 1
    14   14   20 1
    15   15   21 1
    16   16   22 1
    17   17   23 1
    18   18   24 1
    19   25   13 1
    20   26   14 1
    21   27   13 1
    22   28   16 1
    23   29   17 1
    24   30   15 1
    25   31   25 1
    26   32   26 1
    27   33   27 1
    28   34   28 1
    29   35   29 1
    30   36   30 1
    31   14   27 1
    32   15   26 1
    33   16   30 1
    34   17   25 1
    35   18   28 1
    36   18   29 1
    37   25   26 1
    38   27   28 1
    39   29   30 1
@<TRIPOS>SUBSTRUCTURE
     1 RES1 1

@<TRIPOS>CRYSIN
   9.6930   11.6410   12.9900  90.0000  90.0000  90.0000  29 1

