# MOL2 file generated by ConQuest
# Please check atom types

@<TRIPOS>MOLECULE
PUBMUU18
    36    39     1
SMALL
NO_CHARGES
****
Generated from CSD

@<TRIPOS>ATOM
      1 O1        -0.2087    8.3068    3.4753 O.2       1 RES1    0.0000
      2 N1        -2.4611    4.8659    2.0892 N.3       1 RES1    0.0000
      3 O2        -0.7950    7.0748    6.2861 O.2       1 RES1    0.0000
      4 N2         0.9080    5.0747    2.7754 N.3       1 RES1    0.0000
      5 O3        -3.6687    3.0176    1.9124 O.2       1 RES1    0.0000
      6 N3        -1.2473    6.5712    2.6102 N.3       1 RES1    0.0000
      7 O4         0.1604    1.1147    2.2822 O.2       1 RES1    0.0000
      8 N4        -0.4202    3.2726    2.1963 N.3       1 RES1    0.0000
      9 N5        -0.3362    7.5878    2.5033 N.pl3     1 RES1    0.0000
     10 O5         0.2433    7.7026    1.4311 O.2       1 RES1    0.0000
     11 N6        -1.8456    3.6183    4.1090 N.3       1 RES1    0.0000
     12 O6        -3.7819    2.8299    4.8830 O.2       1 RES1    0.0000
     13 O7         0.6980    2.2795    0.5338 O.2       1 RES1    0.0000
     14 O8        -2.1555    1.4434    4.5116 O.2       1 RES1    0.0000
     15 O9         3.0194    4.8405    3.5199 O.2       1 RES1    0.0000
     16 C1        -1.2473    5.5164    1.6119 C.3       1 RES1    0.0000
     17 N7        -0.1233    6.1372    5.9055 N.pl3     1 RES1    0.0000
     18 N8        -0.4277    5.6007    4.6552 N.3       1 RES1    0.0000
     19 C2         0.3919    4.5758    4.0589 C.3       1 RES1    0.0000
     20 N9         0.2206    2.1355    1.6316 N.pl3     1 RES1    0.0000
     21 O10       -2.6130    3.7852    0.1670 O.2       1 RES1    0.0000
     22 C3         0.0297    4.5686    1.7176 C.3       1 RES1    0.0000
     23 N10       -2.6623    2.5423    4.5208 N.pl3     1 RES1    0.0000
     24 N11        2.3104    4.9603    2.5378 N.pl3     1 RES1    0.0000
     25 C4        -2.4815    4.7933    3.5602 C.3       1 RES1    0.0000
     26 O11        0.7528    5.6012    6.5180 O.2       1 RES1    0.0000
     27 N12       -2.9475    3.8074    1.3422 N.pl3     1 RES1    0.0000
     28 C5        -0.5039    3.3400    3.6660 C.3       1 RES1    0.0000
     29 C6        -1.5937    6.0474    3.9416 C.3       1 RES1    0.0000
     30 O12        2.6597    5.0801    1.3868 O.2       1 RES1    0.0000
     31 H1        -1.4156    5.8404    0.6665 H         1 RES1    0.0000
     32 H2        -3.3473    4.8334    3.9092 H         1 RES1    0.0000
     33 H3        -2.0935    6.7215    4.4475 H         1 RES1    0.0000
     34 H4         0.4601    4.5439    0.9356 H         1 RES1    0.0000
     35 H5        -0.1828    2.5803    4.0758 H         1 RES1    0.0000
     36 H6         1.1213    4.3551    4.6525 H         1 RES1    0.0000
@<TRIPOS>BOND
     1    1    9 2
     2    2   16 1
     3    3   17 2
     4    4   19 1
     5    5   27 2
     6    6    9 1
     7    7   20 2
     8    8   20 1
     9    9   10 2
    10   11   23 1
    11   12   23 2
    12   13   20 2
    13   14   23 2
    14   15   24 2
    15   16    6 1
    16   17   18 1
    17   18   19 1
    18   19   28 1
    19   21   27 2
    20   22    4 1
    21   24    4 1
    22   25    2 1
    23   26   17 2
    24   27    2 1
    25   28    8 1
    26   29    6 1
    27   30   24 2
    28   31   16 1
    29   32   25 1
    30   33   29 1
    31   34   22 1
    32   35   28 1
    33   36   19 1
    34    8   22 1
    35   11   25 1
    36   11   28 1
    37   16   22 1
    38   18   29 1
    39   25   29 1
@<TRIPOS>SUBSTRUCTURE
     1 RES1 1

@<TRIPOS>CRYSIN
   8.8570   12.5870   13.3940  90.0000 106.8800  90.0000 231 1

