# MOL2 file generated by ConQuest
# Please check atom types

@<TRIPOS>MOLECULE
PUBMUU09
    36    39     1
SMALL
NO_CHARGES
****
Generated from CSD

@<TRIPOS>ATOM
      1 C1        12.9741    4.1764    4.5352 C.3       1 RES1    0.0000
      2 C2        10.7157    4.8668    4.5828 C.3       1 RES1    0.0000
      3 C3        11.6459    6.1375    4.6284 C.3       1 RES1    0.0000
      4 C4        13.2070    4.0750    2.9646 C.3       1 RES1    0.0000
      5 C5        11.0795    4.7042    2.1530 C.3       1 RES1    0.0000
      6 C6        11.9745    5.9936    2.1986 C.3       1 RES1    0.0000
      7 N1        11.6208    3.7461    4.8505 N.3       1 RES1    0.0000
      8 N2        11.4258    2.9793    6.0078 N.pl3     1 RES1    0.0000
      9 N3        12.9922    5.5951    4.8907 N.3       1 RES1    0.0000
     10 N4        13.5796    5.9463    6.1376 N.pl3     1 RES1    0.0000
     11 N5        11.6175    6.7830    3.3476 N.pl3     1 RES1    0.0000
     12 N6        11.6078    8.1711    3.2583 N.pl3     1 RES1    0.0000
     13 N7        10.1438    4.7607    3.2534 N.3       1 RES1    0.0000
     14 N8         9.0496    3.8658    3.1702 N.pl3     1 RES1    0.0000
     15 N9        12.0176    3.5615    2.3030 N.3       1 RES1    0.0000
     16 N10       12.3015    2.9266    1.0386 N.pl3     1 RES1    0.0000
     17 N11       13.3013    5.3784    2.3124 N.3       1 RES1    0.0000
     18 N12       14.4152    6.1579    2.5088 N.pl3     1 RES1    0.0000
     19 O1        12.3914    2.4370    6.4937 O.2       1 RES1    0.0000
     20 O2        10.2713    2.8798    6.3932 O.2       1 RES1    0.0000
     21 O3        13.3499    7.0702    6.5233 O.2       1 RES1    0.0000
     22 O4        14.3065    5.1259    6.6577 O.2       1 RES1    0.0000
     23 O5        11.4978    8.7734    4.3125 O.2       1 RES1    0.0000
     24 O6        11.6559    8.6455    2.1462 O.2       1 RES1    0.0000
     25 O7         8.4285    3.6910    4.1941 O.2       1 RES1    0.0000
     26 O8         8.8004    3.4001    2.0792 O.2       1 RES1    0.0000
     27 O9        11.3596    2.7971    0.2923 O.2       1 RES1    0.0000
     28 O10       13.4343    2.5289    0.8607 O.2       1 RES1    0.0000
     29 O11       15.4138    5.5982    2.9310 O.2       1 RES1    0.0000
     30 O12       14.3147    7.3346    2.2096 O.2       1 RES1    0.0000
     31 H1        13.6587    3.6983    4.9927 H         1 RES1    0.0000
     32 H2        10.0258    4.9118    5.1959 H         1 RES1    0.0000
     33 H3        11.4227    6.7577    5.2996 H         1 RES1    0.0000
     34 H4        13.9660    3.5374    2.8081 H         1 RES1    0.0000
     35 H5        10.5990    4.6029    1.3676 H         1 RES1    0.0000
     36 H6        11.8827    6.5076    1.4377 H         1 RES1    0.0000
@<TRIPOS>BOND
     1    1    4 1
     2    2    3 1
     3    3    9 1
     4    4   15 1
     5    5    6 1
     6    6   11 1
     7    7    1 1
     8    8    7 1
     9    9    1 1
    10   10    9 1
    11   11    3 1
    12   12   11 1
    13   13    2 1
    14   14   13 1
    15   15    5 1
    16   16   15 1
    17   17    4 1
    18   18   17 1
    19   19    8 2
    20   20    8 2
    21   21   10 2
    22   22   10 2
    23   23   12 2
    24   24   12 2
    25   25   14 2
    26   26   14 2
    27   27   16 2
    28   28   16 2
    29   29   18 2
    30   30   18 2
    31   31    1 1
    32   32    2 1
    33   33    3 1
    34   34    4 1
    35   35    5 1
    36   36    6 1
    37    2    7 1
    38    5   13 1
    39    6   17 1
@<TRIPOS>SUBSTRUCTURE
     1 RES1 1

@<TRIPOS>CRYSIN
  13.1156    8.1713   14.8059  90.0000 108.8410  90.0000 231 1

