# MOL2 file generated by ConQuest
# Please check atom types

@<TRIPOS>MOLECULE
PUBMUU12
    36    39     1
SMALL
NO_CHARGES
****
Generated from CSD

@<TRIPOS>ATOM
      1 C1         2.9901   -2.9448    2.7118 C.3       1 RES1    0.0000
      2 H1         2.6921   -3.7468    2.3597 H         1 RES1    0.0000
      3 C2         4.9717   -1.4815    2.8179 C.3       1 RES1    0.0000
      4 H2         5.8377   -1.4403    2.4833 H         1 RES1    0.0000
      5 C3         3.7389   -0.7706    4.7743 C.3       1 RES1    0.0000
      6 H3         3.8328   -0.4206    5.6211 H         1 RES1    0.0000
      7 C4         4.0821   -0.2345    2.4481 C.3       1 RES1    0.0000
      8 H4         4.5527    0.4019    1.9560 H         1 RES1    0.0000
      9 C5         2.0925   -1.7073    2.3273 C.3       1 RES1    0.0000
     10 H5         1.3818   -1.9196    1.7103 H         1 RES1    0.0000
     11 C6         2.4586   -1.7145    4.6718 C.3       1 RES1    0.0000
     12 H6         2.0474   -1.7598    5.4759 H         1 RES1    0.0000
     13 N1         5.1483   -3.7357    1.8517 N.pl3     1 RES1    0.0000
     14 N2         4.3314   -2.6619    2.2691 N.3       1 RES1    0.0000
     15 N3         5.4235   -2.4901    5.0343 N.pl3     1 RES1    0.0000
     16 N4         4.9510   -1.4221    4.2932 N.3       1 RES1    0.0000
     17 N5         2.8109    1.2988    3.8802 N.pl3     1 RES1    0.0000
     18 N6         3.7384    0.2888    3.7779 N.3       1 RES1    0.0000
     19 N7         2.6113   -0.1409    0.4823 N.pl3     1 RES1    0.0000
     20 N8         2.9161   -0.6746    1.7297 N.3       1 RES1    0.0000
     21 N9         0.1724   -1.3358    3.8531 N.pl3     1 RES1    0.0000
     22 N10        1.5827   -1.2109    3.6165 N.3       1 RES1    0.0000
     23 N11        2.2655   -4.1548    4.7500 N.pl3     1 RES1    0.0000
     24 N12        2.9156   -3.0188    4.1864 N.3       1 RES1    0.0000
     25 O1         4.6370   -4.8428    1.8500 O.2       1 RES1    0.0000
     26 O2         6.2725   -3.4440    1.4865 O.2       1 RES1    0.0000
     27 O3         6.1369   -3.2924    4.4506 O.2       1 RES1    0.0000
     28 O4         5.1000   -2.5164    6.2167 O.2       1 RES1    0.0000
     29 O5         2.2232    1.4067    4.9571 O.2       1 RES1    0.0000
     30 O6         2.6777    2.0103    2.8992 O.2       1 RES1    0.0000
     31 O7         1.7201   -0.6823   -0.1444 O.2       1 RES1    0.0000
     32 O8         3.2798    0.8120    0.1141 O.2       1 RES1    0.0000
     33 O9        -0.5302   -1.4623    2.8732 O.2       1 RES1    0.0000
     34 O10       -0.1763   -1.2171    5.0132 O.2       1 RES1    0.0000
     35 O11        1.7896   -4.0119    5.8549 O.2       1 RES1    0.0000
     36 O12        2.3184   -5.1772    4.0896 O.2       1 RES1    0.0000
@<TRIPOS>BOND
     1    1    2 1
     2    3    4 1
     3    5    6 1
     4    7    3 1
     5    8    7 1
     6    9    1 1
     7   10    9 1
     8   11    5 1
     9   12   11 1
    10   13   14 1
    11   14    1 1
    12   15   16 1
    13   16    3 1
    14   17   18 1
    15   18    5 1
    16   19   20 1
    17   20    7 1
    18   21   22 1
    19   22    9 1
    20   23   24 1
    21   24    1 1
    22   25   13 2
    23   26   13 2
    24   27   15 2
    25   28   15 2
    26   29   17 2
    27   30   17 2
    28   31   19 2
    29   32   19 2
    30   33   21 2
    31   34   21 2
    32   35   23 2
    33   36   23 2
    34    3   14 1
    35    5   16 1
    36    7   18 1
    37    9   20 1
    38   11   22 1
    39   11   24 1
@<TRIPOS>SUBSTRUCTURE
     1 RES1 1

@<TRIPOS>CRYSIN
   8.7910   12.4810   13.2850  90.0000 106.5500  90.0000 231 1

