# MOL2 file generated by ConQuest
# Please check atom types

@<TRIPOS>MOLECULE
PUBMUU24
    30    33     1
SMALL
NO_CHARGES
****
Generated from CSD

@<TRIPOS>ATOM
      1 O1         1.8702    0.1917    6.9604 O.2       1 RES1    0.0000
      2 O2         0.8220   -0.5622    5.1985 O.2       1 RES1    0.0000
      3 O3        -1.6139    2.2152    9.3088 O.2       1 RES1    0.0000
      4 O4        -3.2162    2.9052    8.0199 O.2       1 RES1    0.0000
      5 O5        -3.5499    4.4257    5.1033 O.2       1 RES1    0.0000
      6 O6        -2.6999    5.8080    4.2145 O.2       1 RES1    0.0000
      7 O7         3.8477    2.8529    6.2045 O.2       1 RES1    0.0000
      8 O8         3.4715    2.8680    4.0595 O.2       1 RES1    0.0000
      9 O9        -0.8742    6.0206    6.9174 O.2       1 RES1    0.0000
     10 O10        0.3974    5.1017    8.4304 O.2       1 RES1    0.0000
     11 O11       -0.5309    0.2788    2.8488 O.2       1 RES1    0.0000
     12 O12        1.1701    1.5368    2.3314 O.2       1 RES1    0.0000
     13 N1        -0.0716    1.0919    6.3557 N.3       1 RES1    0.0000
     14 N2         0.9399    0.1859    6.1485 N.pl3     1 RES1    0.0000
     15 N3        -1.1585    2.8285    7.2093 N.3       1 RES1    0.0000
     16 N4        -2.0820    2.5973    8.2519 N.pl3     1 RES1    0.0000
     17 N5        -1.4099    3.8995    5.0864 N.3       1 RES1    0.0000
     18 N6        -2.4281    4.7823    4.8023 N.pl3     1 RES1    0.0000
     19 N7         1.7387    2.7414    5.4630 N.3       1 RES1    0.0000
     20 N8         3.1476    2.8668    5.2271 N.pl3     1 RES1    0.0000
     21 N9         0.6237    4.4931    6.3153 N.3       1 RES1    0.0000
     22 N10       -0.0019    5.2620    7.2849 N.pl3     1 RES1    0.0000
     23 N11       -0.0793    2.0700    4.1090 N.3       1 RES1    0.0000
     24 N12        0.2292    1.2104    3.0156 N.pl3     1 RES1    0.0000
     25 C1         0.1441    2.1989    7.2810 C.3       1 RES1    0.0000
     26 C2        -1.6826    2.7123    5.8292 C.3       1 RES1    0.0000
     27 C3         1.2339    3.2304    6.7362 C.3       1 RES1    0.0000
     28 C4         0.8190    3.1456    4.3918 C.3       1 RES1    0.0000
     29 C5        -0.0300    4.3212    4.9952 C.3       1 RES1    0.0000
     30 C6        -0.8722    1.5310    5.1880 C.3       1 RES1    0.0000
@<TRIPOS>BOND
     1    1   14 2
     2    2   14 2
     3    3   16 2
     4    4   16 2
     5    5   18 2
     6    6   18 2
     7    7   20 2
     8    8   20 2
     9    9   22 2
    10   10   22 2
    11   11   24 2
    12   12   24 2
    13   13   14 1
    14   15   16 1
    15   17   18 1
    16   19   20 1
    17   21   22 1
    18   23   24 1
    19   25   13 1
    20   26   15 1
    21   27   19 1
    22   28   19 1
    23   29   17 1
    24   30   13 1
    25   15   25 1
    26   17   26 1
    27   21   27 1
    28   21   29 1
    29   23   28 1
    30   23   30 1
    31   25   27 1
    32   26   30 1
    33   28   29 1
@<TRIPOS>SUBSTRUCTURE
     1 RES1 1

@<TRIPOS>CRYSIN
   9.6700   11.6160   13.0320  90.0000  90.0000  90.0000  29 1

