# MOL2 file generated by ConQuest
# Please check atom types

@<TRIPOS>MOLECULE
PUBMUU
    36    39     1
SMALL
NO_CHARGES
****
Generated from CSD

@<TRIPOS>ATOM
      1 C1         6.4573    3.9698    4.5426 C.3       1 RES1    0.0000
      2 H1         7.1273    4.4763    5.0205 H         1 RES1    0.0000
      3 N1         6.4463    2.5597    4.9017 N.3       1 RES1    0.0000
      4 N2         7.0289    2.2002    6.1486 N.pl3     1 RES1    0.0000
      5 O1         6.7697    1.0899    6.5440 O.2       1 RES1    0.0000
      6 O2         7.7687    3.0074    6.6636 O.2       1 RES1    0.0000
      7 C2         5.0887    2.0392    4.6317 C.3       1 RES1    0.0000
      8 H2         4.8489    1.4534    5.2453 H         1 RES1    0.0000
      9 N3         5.0566    1.3979    3.3526 N.3       1 RES1    0.0000
     10 N4         5.0289    0.0049    3.2697 N.pl3     1 RES1    0.0000
     11 O3         5.0592   -0.4673    2.1552 O.2       1 RES1    0.0000
     12 O4         4.9123   -0.5858    4.3207 O.2       1 RES1    0.0000
     13 C3         5.4358    2.1806    2.2097 C.3       1 RES1    0.0000
     14 H3         5.3472    1.7231    1.4712 H         1 RES1    0.0000
     15 N5         6.7706    2.7696    2.3302 N.3       1 RES1    0.0000
     16 N6         7.8765    1.9731    2.5116 N.pl3     1 RES1    0.0000
     17 O5         7.7654    0.8072    2.2070 O.2       1 RES1    0.0000
     18 O6         8.8766    2.5213    2.9394 O.2       1 RES1    0.0000
     19 C4         6.6948    4.0711    2.9764 C.3       1 RES1    0.0000
     20 H4         7.4794    4.6234    2.7442 H         1 RES1    0.0000
     21 N7         5.5195    4.6079    2.3097 N.3       1 RES1    0.0000
     22 N8         5.8156    5.2435    1.0524 N.pl3     1 RES1    0.0000
     23 O7         6.9418    5.6553    0.8958 O.2       1 RES1    0.0000
     24 O8         4.8871    5.3644    0.2864 O.2       1 RES1    0.0000
     25 C5         4.5620    3.4796    2.1581 C.3       1 RES1    0.0000
     26 H5         4.1208    3.5915    1.3644 H         1 RES1    0.0000
     27 N9         3.6272    3.4469    3.2514 N.3       1 RES1    0.0000
     28 N10        2.5450    4.3554    3.1608 N.pl3     1 RES1    0.0000
     29 O9         1.9354    4.5556    4.1834 O.2       1 RES1    0.0000
     30 O10        2.3039    4.8154    2.0693 O.2       1 RES1    0.0000
     31 C6         4.1863    3.3268    4.5821 C.3       1 RES1    0.0000
     32 H6         3.4830    3.2517    5.2200 H         1 RES1    0.0000
     33 N11        5.1087    4.4322    4.8549 N.3       1 RES1    0.0000
     34 N12        4.9224    5.1961    6.0196 N.pl3     1 RES1    0.0000
     35 O11        3.7747    5.3089    6.4055 O.2       1 RES1    0.0000
     36 O12        5.8935    5.7239    6.5030 O.2       1 RES1    0.0000
@<TRIPOS>BOND
     1    1    2 1
     2    3    1 1
     3    4    3 1
     4    5    4 2
     5    6    4 2
     6    7    3 1
     7    8    7 1
     8    9    7 1
     9   10    9 1
    10   11   10 2
    11   12   10 2
    12   13    9 1
    13   14   13 1
    14   15   13 1
    15   16   15 1
    16   17   16 2
    17   18   16 2
    18   19    1 1
    19   20   19 1
    20   21   19 1
    21   22   21 1
    22   23   22 2
    23   24   22 2
    24   25   13 1
    25   26   25 1
    26   27   25 1
    27   28   27 1
    28   29   28 2
    29   30   28 2
    30   31    7 1
    31   32   31 1
    32   33    1 1
    33   34   33 1
    34   35   34 2
    35   36   34 2
    36   15   19 1
    37   21   25 1
    38   27   31 1
    39   31   33 1
@<TRIPOS>SUBSTRUCTURE
     1 RES1 1

@<TRIPOS>CRYSIN
  13.2310    8.1700   14.8760  90.0000 109.1700  90.0000 231 1

