# MOL2 file generated by ConQuest
# Please check atom types

@<TRIPOS>MOLECULE
PUBMUU06
    30    33     1
SMALL
NO_CHARGES
****
Generated from CSD

@<TRIPOS>ATOM
      1 O1         6.9309    9.7287    0.8950 O.2       1 RES1    0.0000
      2 O2         4.8771    9.4390    0.2885 O.2       1 RES1    0.0000
      3 O3         8.8633    6.6080    2.9382 O.2       1 RES1    0.0000
      4 O4         7.7551    4.8901    2.2149 O.2       1 RES1    0.0000
      5 O5         5.8767    9.7981    6.5125 O.2       1 RES1    0.0000
      6 O6         3.7620    9.3811    6.4154 O.2       1 RES1    0.0000
      7 O7         6.7554    5.1724    6.5505 O.2       1 RES1    0.0000
      8 O8         7.7550    7.0854    6.6702 O.2       1 RES1    0.0000
      9 O9         1.9308    8.6384    4.1878 O.2       1 RES1    0.0000
     10 O10        2.2978    8.8922    2.0714 O.2       1 RES1    0.0000
     11 O11        4.9074    3.4954    4.3215 O.2       1 RES1    0.0000
     12 O12        5.0536    3.6137    2.1601 O.2       1 RES1    0.0000
     13 N1         5.5064    8.6841    2.3134 N.3       1 RES1    0.0000
     14 N2         6.7622    6.8503    2.3346 N.3       1 RES1    0.0000
     15 N3         5.0957    8.5111    4.8633 N.3       1 RES1    0.0000
     16 N4         6.4339    6.6431    4.9097 N.3       1 RES1    0.0000
     17 N5         3.6160    7.5220    3.2549 N.3       1 RES1    0.0000
     18 N6         5.0483    5.4760    3.3576 N.3       1 RES1    0.0000
     19 N7         5.8051    9.3223    1.0512 N.pl3     1 RES1    0.0000
     20 N8         7.8640    6.0571    2.5175 N.pl3     1 RES1    0.0000
     21 N9         4.9105    9.2733    6.0271 N.pl3     1 RES1    0.0000
     22 N10        7.0116    6.2807    6.1593 N.pl3     1 RES1    0.0000
     23 N11        2.5344    8.4287    3.1620 N.pl3     1 RES1    0.0000
     24 N12        5.0248    4.0862    3.2732 N.pl3     1 RES1    0.0000
     25 C1         6.6804    8.1545    2.9805 C.3       1 RES1    0.0000
     26 C2         6.4423    8.0541    4.5509 C.3       1 RES1    0.0000
     27 C3         5.4250    6.2579    2.2093 C.3       1 RES1    0.0000
     28 C4         4.5538    7.5571    2.1572 C.3       1 RES1    0.0000
     29 C5         4.1763    7.4045    4.5889 C.3       1 RES1    0.0000
     30 C6         5.0801    6.1199    4.6381 C.3       1 RES1    0.0000
@<TRIPOS>BOND
     1    1   19 2
     2    2   19 2
     3    3   20 2
     4    4   20 2
     5    5   21 2
     6    6   21 2
     7    7   22 2
     8    8   22 2
     9    9   23 2
    10   10   23 2
    11   11   24 2
    12   12   24 2
    13   13   19 1
    14   14   20 1
    15   15   21 1
    16   16   22 1
    17   17   23 1
    18   18   24 1
    19   25   13 1
    20   26   15 1
    21   27   14 1
    22   28   13 1
    23   29   15 1
    24   30   16 1
    25   14   25 1
    26   16   26 1
    27   17   28 1
    28   17   29 1
    29   18   27 1
    30   18   30 1
    31   25   26 1
    32   27   28 1
    33   29   30 1
@<TRIPOS>SUBSTRUCTURE
     1 RES1 1

@<TRIPOS>CRYSIN
  13.2130    8.1610   14.8980  90.0000 109.1680  90.0000 231 1

