# MOL2 file generated by ConQuest
# Please check atom types

@<TRIPOS>MOLECULE
PUBMUU19
    36    39     1
SMALL
NO_CHARGES
****
Generated from CSD

@<TRIPOS>ATOM
      1 N1        -1.4341   11.1519   10.7145 N.3       1 RES1    0.0000
      2 N2        -3.5637   13.8751   10.3124 N.pl3     1 RES1    0.0000
      3 O1        -3.0921   13.3655    6.5214 O.2       1 RES1    0.0000
      4 O2        -3.6739   14.5974    9.3352 O.2       1 RES1    0.0000
      5 N3        -3.4745    9.5588   10.6133 N.3       1 RES1    0.0000
      6 O3        -4.1377   13.9947   11.3792 O.2       1 RES1    0.0000
      7 N4        -2.6397   12.8558   10.2061 N.3       1 RES1    0.0000
      8 N5        -4.1250    8.4262   11.1653 N.pl3     1 RES1    0.0000
      9 O4        -4.5898    8.5798   12.2809 O.2       1 RES1    0.0000
     10 O5        -0.2226    9.3122   10.8977 O.2       1 RES1    0.0000
     11 O6        -1.2834   10.0773   12.6420 O.2       1 RES1    0.0000
     12 O7        -0.1113    9.1184    7.9302 O.2       1 RES1    0.0000
     13 N6        -4.7966   11.3596   10.0396 N.3       1 RES1    0.0000
     14 O8        -4.0670    7.4044   10.5173 O.2       1 RES1    0.0000
     15 O9        -4.6469   11.8868    6.2819 O.2       1 RES1    0.0000
     16 C1        -2.6418   11.8051   11.1948 C.3       1 RES1    0.0000
     17 N7        -6.2077   11.2589   10.2714 N.pl3     1 RES1    0.0000
     18 N8        -3.4597   11.8969    8.1556 N.3       1 RES1    0.0000
     19 O10       -1.7375    7.7354    8.3016 O.2       1 RES1    0.0000
     20 N9        -1.2243    8.8365    8.2914 N.pl3     1 RES1    0.0000
     21 N10       -3.7670   12.4330    6.9005 N.pl3     1 RES1    0.0000
     22 N11       -2.0502    9.9086    8.7012 N.3       1 RES1    0.0000
     23 C2        -3.9274   10.8562   11.0923 C.3       1 RES1    0.0000
     24 O11       -6.9071   11.1268    9.2891 O.2       1 RES1    0.0000
     25 O12       -6.5555   11.3785   11.4240 O.2       1 RES1    0.0000
     26 C3        -1.4138   11.0903    9.2468 C.3       1 RES1    0.0000
     27 N12       -0.9546   10.0987   11.4702 N.pl3     1 RES1    0.0000
     28 C4        -4.2846   10.8625    8.7371 C.3       1 RES1    0.0000
     29 C5        -2.2970   12.3436    8.8780 C.3       1 RES1    0.0000
     30 C6        -3.3829    9.6356    9.1469 C.3       1 RES1    0.0000
     31 H1        -2.6058   12.1436   12.1541 H         1 RES1    0.0000
     32 H2        -4.3726   10.7845   11.9363 H         1 RES1    0.0000
     33 H3        -0.5709   11.2375    8.9266 H         1 RES1    0.0000
     34 H4        -1.7909   12.9741    8.3375 H         1 RES1    0.0000
     35 H5        -4.9437   10.6838    8.2222 H         1 RES1    0.0000
     36 H6        -3.6312    8.9095    8.7986 H         1 RES1    0.0000
@<TRIPOS>BOND
     1    1   16 1
     2    2    4 2
     3    3   21 2
     4    5    8 1
     5    6    2 2
     6    7    2 1
     7    8    9 2
     8   10   27 2
     9   11   27 2
    10   12   20 2
    11   13   17 1
    12   14    8 2
    13   15   21 2
    14   16    7 1
    15   17   24 2
    16   18   21 1
    17   19   20 2
    18   20   22 1
    19   22   26 1
    20   23    5 1
    21   25   17 2
    22   26    1 1
    23   27    1 1
    24   28   13 1
    25   29    7 1
    26   30    5 1
    27   31   16 1
    28   32   23 1
    29   33   26 1
    30   34   29 1
    31   35   28 1
    32   36   30 1
    33   13   23 1
    34   16   23 1
    35   18   28 1
    36   18   29 1
    37   22   30 1
    38   26   29 1
    39   28   30 1
@<TRIPOS>SUBSTRUCTURE
     1 RES1 1

@<TRIPOS>CRYSIN
   8.8550   12.5840   13.3860  90.0000 106.9100  90.0000 231 1

