# MOL2 file generated by ConQuest
# Please check atom types

@<TRIPOS>MOLECULE
PUBMUU02
    36    39     1
SMALL
NO_CHARGES
****
Generated from CSD

@<TRIPOS>ATOM
      1 C1         0.5186    8.0019   11.0925 C.3       1 RES1    0.0000
      2 H1         0.1087    8.0584   11.9331 H         1 RES1    0.0000
      3 N1        -0.3539    7.5001   10.0401 N.3       1 RES1    0.0000
      4 N2        -1.7616    7.6077   10.2724 N.pl3     1 RES1    0.0000
      5 O1        -2.4640    7.7267    9.2986 O.2       1 RES1    0.0000
      6 O2        -2.1093    7.4922   11.4256 O.2       1 RES1    0.0000
      7 C2         0.1563    7.9919    8.7566 C.3       1 RES1    0.0000
      8 H2        -0.5580    8.2028    8.1121 H         1 RES1    0.0000
      9 N3         0.9752    6.9629    8.1561 N.3       1 RES1    0.0000
     10 N4         0.6732    6.4337    6.9120 N.pl3     1 RES1    0.0000
     11 O3         1.3432    5.4922    6.5348 O.2       1 RES1    0.0000
     12 O4        -0.2186    6.9673    6.3043 O.2       1 RES1    0.0000
     13 C3         2.1425    6.5241    8.8745 C.3       1 RES1    0.0000
     14 H3         2.6235    5.8925    8.3697 H         1 RES1    0.0000
     15 N5         1.7968    6.0004   10.2026 N.3       1 RES1    0.0000
     16 N6         0.8778    4.9836   10.3143 N.pl3     1 RES1    0.0000
     17 O5         0.7516    4.2656    9.3437 O.2       1 RES1    0.0000
     18 O6         0.3034    4.8740   11.3857 O.2       1 RES1    0.0000
     19 C4         1.7958    7.0590   11.1924 C.3       1 RES1    0.0000
     20 H4         1.9102    6.7212   12.0586 H         1 RES1    0.0000
     21 N7         3.0116    7.7047   10.7226 N.3       1 RES1    0.0000
     22 N8         3.4912    8.7628   11.4672 N.pl3     1 RES1    0.0000
     23 O7         4.2167    9.5541   10.8971 O.2       1 RES1    0.0000
     24 O8         3.1639    8.7854   12.6375 O.2       1 RES1    0.0000
     25 C5         3.0290    7.7709    9.2448 C.3       1 RES1    0.0000
     26 H5         3.9009    7.7358    8.9142 H         1 RES1    0.0000
     27 N9         2.3945    8.9473    8.7026 N.3       1 RES1    0.0000
     28 N10        3.2137   10.0235    8.2855 N.pl3     1 RES1    0.0000
     29 O9         2.7035   11.1191    8.2953 O.2       1 RES1    0.0000
     30 O10        4.3286    9.7342    7.9239 O.2       1 RES1    0.0000
     31 C6         1.0539    9.2274    9.1462 C.3       1 RES1    0.0000
     32 H6         0.7542   10.0172    8.7643 H         1 RES1    0.0000
     33 N11        0.9697    9.3027   10.6075 N.3       1 RES1    0.0000
     34 N12        0.3284   10.4357   11.1771 N.pl3     1 RES1    0.0000
     35 O11        0.3841   11.4517   10.5272 O.2       1 RES1    0.0000
     36 O12       -0.1546   10.2873   12.2741 O.2       1 RES1    0.0000
@<TRIPOS>BOND
     1    1    2 1
     2    3    1 1
     3    4    3 1
     4    5    4 2
     5    6    4 2
     6    7    3 1
     7    8    7 1
     8    9    7 1
     9   10    9 1
    10   11   10 2
    11   12   10 2
    12   13    9 1
    13   14   13 1
    14   15   13 1
    15   16   15 1
    16   17   16 2
    17   18   16 2
    18   19    1 1
    19   20   19 1
    20   21   19 1
    21   22   21 1
    22   23   22 2
    23   24   22 2
    24   25   13 1
    25   26   25 1
    26   27   25 1
    27   28   27 1
    28   29   28 2
    29   30   28 2
    30   31    7 1
    31   32   31 1
    32   33    1 1
    33   34   33 1
    34   35   34 2
    35   36   34 2
    36   15   19 1
    37   21   25 1
    38   27   31 1
    39   31   33 1
@<TRIPOS>SUBSTRUCTURE
     1 RES1 1

@<TRIPOS>CRYSIN
   8.8520   12.5560   13.3860  90.0000 106.8200  90.0000 231 1

