# MOL2 file generated by ConQuest
# Please check atom types

@<TRIPOS>MOLECULE
PUBMUU22
    36    39     1
SMALL
NO_CHARGES
****
Generated from CSD

@<TRIPOS>ATOM
      1 O1        -2.1350    7.6318    4.5186 O.2       1 RES1    0.0000
      2 O2        -3.7692    9.0297    4.8779 O.2       1 RES1    0.0000
      3 O3        -3.6335    9.1827    1.9185 O.2       1 RES1    0.0000
      4 O4        -2.5945    9.9557    0.1563 O.2       1 RES1    0.0000
      5 O5         0.2804   13.8799    1.4124 O.2       1 RES1    0.0000
      6 O6        -0.1703   14.4801    3.4654 O.2       1 RES1    0.0000
      7 O7         0.7776   11.7934    6.5066 O.2       1 RES1    0.0000
      8 O8        -0.7772   13.2874    6.2485 O.2       1 RES1    0.0000
      9 O9         3.0341   11.0076    3.4894 O.2       1 RES1    0.0000
     10 O10        2.6797   11.2544    1.3519 O.2       1 RES1    0.0000
     11 O11        0.7076    8.4620    0.5083 O.2       1 RES1    0.0000
     12 O12        0.1784    7.2982    2.2711 O.2       1 RES1    0.0000
     13 N1        -2.6474    8.7383    4.5145 N.pl3     1 RES1    0.0000
     14 N2        -1.8303    9.8111    4.0966 N.3       1 RES1    0.0000
     15 N3        -2.9197    9.9821    1.3363 N.pl3     1 RES1    0.0000
     16 N4        -2.4478   11.0487    2.0723 N.3       1 RES1    0.0000
     17 N5        -0.3069   13.7672    2.4858 N.pl3     1 RES1    0.0000
     18 N6        -1.2319   12.7633    2.5875 N.3       1 RES1    0.0000
     19 N7        -0.1088   12.3322    5.8808 N.pl3     1 RES1    0.0000
     20 N8        -0.4099   11.7977    4.6356 N.3       1 RES1    0.0000
     21 N9         2.3297   11.1380    2.5126 N.pl3     1 RES1    0.0000
     22 N10        0.9236   11.2607    2.7489 N.3       1 RES1    0.0000
     23 N11        0.2317    8.3192    1.6145 N.pl3     1 RES1    0.0000
     24 N12       -0.4105    9.4567    2.1799 N.3       1 RES1    0.0000
     25 C1        -0.4899    9.5270    3.6524 C.3       1 RES1    0.0000
     26 C2        -2.4677   10.9870    3.5501 C.3       1 RES1    0.0000
     27 C3        -1.2367   11.7042    1.5929 C.3       1 RES1    0.0000
     28 C4        -1.5778   12.2410    3.9181 C.3       1 RES1    0.0000
     29 C5         0.4096   10.7704    4.0384 C.3       1 RES1    0.0000
     30 C6         0.0432   10.7578    1.6921 C.3       1 RES1    0.0000
     31 H1        -1.3641   12.0896    0.5791 H         1 RES1    0.0000
     32 H2         0.5545   10.7043    0.7286 H         1 RES1    0.0000
     33 H3        -3.4868   11.0488    3.9375 H         1 RES1    0.0000
     34 H4        -2.1016   12.9878    4.5183 H         1 RES1    0.0000
     35 H5         1.2120   10.5090    4.7315 H         1 RES1    0.0000
     36 H6        -0.1260    8.5874    4.0733 H         1 RES1    0.0000
@<TRIPOS>BOND
     1    1   13 2
     2    2   13 2
     3    3   15 2
     4    4   15 2
     5    5   17 2
     6    6   17 2
     7    7   19 2
     8    8   19 2
     9    9   21 2
    10   10   21 2
    11   11   23 2
    12   12   23 2
    13   13   14 1
    14   14   25 1
    15   15   16 1
    16   16   26 1
    17   17   18 1
    18   18   27 1
    19   19   20 1
    20   20   28 1
    21   21   22 1
    22   22   29 1
    23   23   24 1
    24   24   25 1
    25   25   29 1
    26   26   14 1
    27   27   16 1
    28   28   18 1
    29   29   20 1
    30   30   22 1
    31   31   27 1
    32   32   30 1
    33   33   26 1
    34   34   28 1
    35   35   29 1
    36   36   25 1
    37   24   30 1
    38   26   28 1
    39   27   30 1
@<TRIPOS>SUBSTRUCTURE
     1 RES1 1

@<TRIPOS>CRYSIN
   8.7890   12.4740   13.2790  90.0000 106.5780  90.0000 231 1

