# MOL2 file generated by ConQuest
# Please check atom types

@<TRIPOS>MOLECULE
PUBWAK
    88    92     2
SMALL
NO_CHARGES
****
Generated from CSD

@<TRIPOS>ATOM
      1 O1         6.7934    6.7902    4.3335 O.2       1 RES1    0.0000
      2 O2         7.7091    5.8751    2.6042 O.2       1 RES1    0.0000
      3 O3         2.1378    6.7054   -0.5715 O.2       1 RES1    0.0000
      4 O4         3.6120    5.1552   -0.7475 O.2       1 RES1    0.0000
      5 O5         7.2018   -3.1618    1.4099 O.2       1 RES1    0.0000
      6 O6         7.1446   -1.1263    0.7158 O.2       1 RES1    0.0000
      7 O7         8.8750    1.6084    6.1606 O.2       1 RES1    0.0000
      8 O8         9.0871    2.2590    4.1259 O.2       1 RES1    0.0000
      9 O9        15.1903   12.8415   12.5644 O.2       2 RES2    0.0000
     10 O10       14.6182   11.4334   11.0487 O.2       2 RES2    0.0000
     11 O11       10.7580   15.0161    7.8256 O.2       2 RES2    0.0000
     12 O12       11.9664   13.7068    7.0485 O.2       2 RES2    0.0000
     13 O13        8.3703    8.9688    7.6298 O.2       2 RES2    0.0000
     14 O14       10.0773    9.6379    6.4849 O.2       2 RES2    0.0000
     15 O15       12.9082    3.9195    6.4503 O.2       2 RES2    0.0000
     16 O16       13.7179    5.9044    6.2446 O.2       2 RES2    0.0000
     17 N1         6.8320    6.5223    3.1441 N.pl3     1 RES1    0.0000
     18 N2         3.2269    6.2203   -0.2956 N.pl3     1 RES1    0.0000
     19 N3         5.2603    4.8869    1.3140 N.3       1 RES1    0.0000
     20 N4         7.2603    0.7496    2.5410 N.3       1 RES1    0.0000
     21 N5         7.4099   -1.9687    1.5770 N.pl3     1 RES1    0.0000
     22 N6         8.8613    1.3965    4.9613 N.pl3     1 RES1    0.0000
     23 N7        14.5615   12.5214   11.5619 N.pl3     2 RES2    0.0000
     24 N8        11.6664   14.3964    7.9531 N.pl3     2 RES2    0.0000
     25 N9        13.2352   12.2193    8.8835 N.3       2 RES2    0.0000
     26 N10       12.1886    7.8483    7.2492 N.3       2 RES2    0.0000
     27 N11        9.4108    8.7601    7.0040 N.pl3     2 RES2    0.0000
     28 N12       12.7681    5.1287    6.3662 N.pl3     2 RES2    0.0000
     29 C1         5.0524    6.2346    1.4188 C.ar      1 RES1    0.0000
     30 C2         5.7565    7.0687    2.3086 C.ar      1 RES1    0.0000
     31 C3         5.5541    8.4281    2.4164 C.ar      1 RES1    0.0000
     32 C4         4.6342    9.0568    1.6106 C.ar      1 RES1    0.0000
     33 C5         3.8837    8.2976    0.7168 C.ar      1 RES1    0.0000
     34 C6         4.1017    6.9365    0.6288 C.ar      1 RES1    0.0000
     35 C7         5.5462    3.9793    2.3571 C.ar      1 RES1    0.0000
     36 C8         6.3392    2.8849    2.0516 C.ar      1 RES1    0.0000
     37 C9         6.5446    1.8836    2.9888 C.ar      1 RES1    0.0000
     38 C10        6.0016    1.9890    4.2633 C.ar      1 RES1    0.0000
     39 C11        5.2604    3.1312    4.5678 C.ar      1 RES1    0.0000
     40 C12        5.0098    4.1144    3.6315 C.ar      1 RES1    0.0000
     41 C13        7.9241   -0.2051    3.2894 C.ar      1 RES1    0.0000
     42 C14        8.0033   -1.5526    2.8445 C.ar      1 RES1    0.0000
     43 C15        8.6603   -2.5402    3.5593 C.ar      1 RES1    0.0000
     44 C16        9.2655   -2.2447    4.7566 C.ar      1 RES1    0.0000
     45 C17        9.2394   -0.9335    5.2243 C.ar      1 RES1    0.0000
     46 C18        8.6074    0.0361    4.4936 C.ar      1 RES1    0.0000
     47 C19       13.1153   13.3532    9.6715 C.ar      2 RES2    0.0000
     48 C20       13.7257   13.5545   10.9222 C.ar      2 RES2    0.0000
     49 C21       13.6625   14.7694   11.6034 C.ar      2 RES2    0.0000
     50 C22       12.9832   15.8405   11.0398 C.ar      2 RES2    0.0000
     51 C23       12.3546   15.6870    9.8386 C.ar      2 RES2    0.0000
     52 C24       12.4287   14.4921    9.1850 C.ar      2 RES2    0.0000
     53 C25       12.6180   10.9798    9.1415 C.ar      2 RES2    0.0000
     54 C26       12.7413    9.9979    8.1687 C.ar      2 RES2    0.0000
     55 C27       12.0416    8.8207    8.2784 C.ar      2 RES2    0.0000
     56 C28       11.2331    8.5750    9.3897 C.ar      2 RES2    0.0000
     57 C29       11.1336    9.5552   10.3646 C.ar      2 RES2    0.0000
     58 C30       11.8188   10.7583   10.2667 C.ar      2 RES2    0.0000
     59 C31       11.2002    6.9992    6.8329 C.ar      2 RES2    0.0000
     60 C32        9.8304    7.3465    6.8349 C.ar      2 RES2    0.0000
     61 C33        8.8215    6.4726    6.5314 C.ar      2 RES2    0.0000
     62 C34        9.1122    5.1984    6.1171 C.ar      2 RES2    0.0000
     63 C35       10.4217    4.7993    6.0439 C.ar      2 RES2    0.0000
     64 C36       11.4350    5.6784    6.4068 C.ar      2 RES2    0.0000
     65 H1         5.1955    4.4855    0.3540 H         1 RES1    0.0000
     66 H2         7.2823    0.6132    1.5177 H         1 RES1    0.0000
     67 H3        13.8388   12.2884    8.0322 H         2 RES2    0.0000
     68 H4        13.1141    7.7795    6.7775 H         2 RES2    0.0000
     69 H5         6.1042    8.9677    3.1114 H         1 RES1    0.0000
     70 H6         4.4896   10.0939    1.6867 H         1 RES1    0.0000
     71 H7         3.1706    8.7462    0.1117 H         1 RES1    0.0000
     72 H8         6.7958    2.8156    1.1123 H         1 RES1    0.0000
     73 H9         6.1466    1.2309    4.9633 H         1 RES1    0.0000
     74 H10        4.9016    3.2446    5.5476 H         1 RES1    0.0000
     75 H11        4.4369    4.9612    3.8698 H         1 RES1    0.0000
     76 H12        8.7010   -3.5115    3.1767 H         1 RES1    0.0000
     77 H13        9.7278   -2.9919    5.3331 H         1 RES1    0.0000
     78 H14        9.7107   -0.6811    6.1339 H         1 RES1    0.0000
     79 H15       14.1370   14.8702   12.5397 H         2 RES2    0.0000
     80 H16       12.9655   16.7606   11.5461 H         2 RES2    0.0000
     81 H17       11.8151   16.4771    9.4016 H         2 RES2    0.0000
     82 H18       13.3634   10.1534    7.3530 H         2 RES2    0.0000
     83 H19       10.7286    7.6616    9.4836 H         2 RES2    0.0000
     84 H20       10.5167    9.3946   11.1881 H         2 RES2    0.0000
     85 H21       11.7503   11.4919   11.0102 H         2 RES2    0.0000
     86 H22        7.8123    6.7801    6.6124 H         2 RES2    0.0000
     87 H23        8.3432    4.5452    5.8482 H         2 RES2    0.0000
     88 H24       10.6575    3.8272    5.7206 H         2 RES2    0.0000
@<TRIPOS>BOND
     1    1   17 2
     2    2   17 2
     3    3   18 2
     4    4   18 2
     5    5   21 2
     6    6   21 2
     7    7   22 2
     8    8   22 2
     9    9   23 2
    10   10   23 2
    11   11   24 2
    12   12   24 2
    13   13   27 2
    14   14   27 2
    15   15   28 2
    16   16   28 2
    17   17   30 1
    18   18   34 1
    19   19   29 1
    20   20   37 1
    21   21   42 1
    22   22   46 1
    23   23   48 1
    24   24   52 1
    25   25   47 1
    26   26   55 1
    27   27   60 1
    28   28   64 1
    29   29   30 ar
    30   30   31 ar
    31   31   32 ar
    32   32   33 ar
    33   33   34 ar
    34   34   29 ar
    35   35   19 1
    36   36   35 ar
    37   37   36 ar
    38   38   37 ar
    39   39   38 ar
    40   40   35 ar
    41   41   20 1
    42   42   41 ar
    43   43   42 ar
    44   44   43 ar
    45   45   44 ar
    46   46   41 ar
    47   47   48 ar
    48   48   49 ar
    49   49   50 ar
    50   50   51 ar
    51   51   52 ar
    52   52   47 ar
    53   53   25 1
    54   54   53 ar
    55   55   54 ar
    56   56   55 ar
    57   57   56 ar
    58   58   53 ar
    59   59   26 1
    60   60   59 ar
    61   61   60 ar
    62   62   61 ar
    63   63   62 ar
    64   64   59 ar
    65   65   19 1
    66   66   20 1
    67   67   25 1
    68   68   26 1
    69   69   31 1
    70   70   32 1
    71   71   33 1
    72   72   36 1
    73   73   38 1
    74   74   39 1
    75   75   40 1
    76   76   43 1
    77   77   44 1
    78   78   45 1
    79   79   49 1
    80   80   50 1
    81   81   51 1
    82   82   54 1
    83   83   56 1
    84   84   57 1
    85   85   58 1
    86   86   61 1
    87   87   62 1
    88   88   63 1
    89   39   40 ar
    90   45   46 ar
    91   57   58 ar
    92   63   64 ar
@<TRIPOS>SUBSTRUCTURE
     1 RES1 1
     2 RES2 9

@<TRIPOS>CRYSIN
  12.6940   14.9210   10.0749  94.6090  99.8830  92.0500   2 1

