# MOL2 file generated by ConQuest
# Please check atom types

@<TRIPOS>MOLECULE
PUFFOL01
    16    16     1
SMALL
NO_CHARGES
****
Generated from CSD

@<TRIPOS>ATOM
      1 O1         2.0166    0.9651    3.5794 O.2       1 RES1    0.0000
      2 O2         0.4082    3.5097    0.0990 O.2       1 RES1    0.0000
      3 O3        -1.1343    1.2783    0.2259 O.2       1 RES1    0.0000
      4 N1         0.7116    2.7095    0.9877 N.pl3     1 RES1    0.0000
      5 N2        -0.2336    1.3472    1.0610 N.pl3     1 RES1    0.0000
      6 C1         1.3786    1.3397    2.6430 C.2       1 RES1    0.0000
      7 C2         1.5948    2.6106    1.9153 C.2       1 RES1    0.0000
      8 C3         0.2404    0.6369    2.0338 C.2       1 RES1    0.0000
      9 C4         2.6206    3.6431    2.1893 C.3       1 RES1    0.0000
     10 C5        -0.2957   -0.6729    2.4124 C.3       1 RES1    0.0000
     11 H1         2.7049    3.8064    3.0575 H         1 RES1    0.0000
     12 H2         3.3642    3.2520    1.7318 H         1 RES1    0.0000
     13 H3         2.4238    4.4958    1.8952 H         1 RES1    0.0000
     14 H4         0.2918   -1.3787    2.2061 H         1 RES1    0.0000
     15 H5        -0.4770   -0.6954    3.3661 H         1 RES1    0.0000
     16 H6        -1.1440   -0.8422    1.9727 H         1 RES1    0.0000
@<TRIPOS>BOND
     1    1    6 2
     2    2    4 1
     3    3    5 1
     4    4    5 1
     5    5    8 2
     6    6    7 1
     7    7    4 2
     8    8    6 1
     9    9    7 1
    10   10    8 1
    11   11    9 1
    12   12    9 1
    13   13    9 1
    14   14   10 1
    15   15   10 1
    16   16   10 1
@<TRIPOS>SUBSTRUCTURE
     1 RES1 1

@<TRIPOS>CRYSIN
   9.6950   14.9860    4.6680  90.0000  90.0000  90.0000  19 1

