# MOL2 file generated by ConQuest
# Please check atom types

@<TRIPOS>MOLECULE
PUGQOY
    40    40     2
SMALL
NO_CHARGES
****
Generated from CSD

@<TRIPOS>ATOM
      1 O1         0.1480   -1.0518    7.7820 O.2       1 RES1    0.0000
      2 O2         0.5412   -0.7019    5.6775 O.2       1 RES1    0.0000
      3 O3         6.4957    6.0619    6.3463 O.2       1 RES1    0.0000
      4 O4         6.2115    5.8919    8.4868 O.2       1 RES1    0.0000
      5 N1         0.6822   -0.4234    6.8685 N.pl3     1 RES1    0.0000
      6 N2         5.9795    5.5455    7.3304 N.pl3     1 RES1    0.0000
      7 C1         3.1922    2.4291    6.6691 C.ar      1 RES1    0.0000
      8 C2         3.8364    3.0385    5.5964 C.ar      1 RES1    0.0000
      9 H1         3.6432    2.7525    4.7118 H         1 RES1    0.0000
     10 C3         4.7520    4.0533    5.7987 C.ar      1 RES1    0.0000
     11 H2         5.1867    4.4682    5.0623 H         1 RES1    0.0000
     12 C4         5.0221    4.4537    7.0964 C.ar      1 RES1    0.0000
     13 C5         4.4001    3.8768    8.1923 C.ar      1 RES1    0.0000
     14 H3         4.5972    4.1732    9.0731 H         1 RES1    0.0000
     15 C6         3.4795    2.8540    7.9783 C.ar      1 RES1    0.0000
     16 H4         3.0458    2.4431    8.7165 H         1 RES1    0.0000
     17 C7         2.2393    1.3408    6.3787 C.2       1 RES1    0.0000
     18 H5         2.1314    1.0888    5.4701 H         1 RES1    0.0000
     19 C8         1.5280    0.6899    7.2716 C.2       1 RES1    0.0000
     20 H6         1.5657    0.9478    8.1857 H         1 RES1    0.0000
     21 O5        11.0240    1.7972    3.2538 O.2       2 RES2    0.0000
     22 O6        11.4594    1.4492    1.1625 O.2       2 RES2    0.0000
     23 O7         5.3401    8.3025    0.3818 O.2       2 RES2    0.0000
     24 O8         5.0644    8.5545    2.5156 O.2       2 RES2    0.0000
     25 N3        10.9042    2.0751    2.0684 N.pl3     2 RES2    0.0000
     26 N4         5.5761    7.9986    1.5468 N.pl3     2 RES2    0.0000
     27 C9         8.3717    4.9056    2.2600 C.ar      2 RES2    0.0000
     28 C10        8.0969    5.3280    0.9551 C.ar      2 RES2    0.0000
     29 H7         8.5510    4.9246    0.2254 H         2 RES2    0.0000
     30 C11        7.1692    6.3279    0.7179 C.ar      2 RES2    0.0000
     31 H8         6.9695    6.6068   -0.1681 H         2 RES2    0.0000
     32 C12        6.5408    6.9098    1.8042 C.ar      2 RES2    0.0000
     33 C13        6.7889    6.5363    3.1081 C.ar      2 RES2    0.0000
     34 H9         6.3451    6.9627    3.8326 H         2 RES2    0.0000
     35 C14        7.7083    5.5175    3.3333 C.ar      2 RES2    0.0000
     36 H10        7.8886    5.2341    4.2220 H         2 RES2    0.0000
     37 C15        9.3218    3.8238    2.5557 C.2       2 RES2    0.0000
     38 H11        9.4226    3.5669    3.4657 H         2 RES2    0.0000
     39 C16       10.0503    3.1774    1.6550 C.2       2 RES2    0.0000
     40 H12       10.0153    3.4349    0.7419 H         2 RES2    0.0000
@<TRIPOS>BOND
     1    1    5 2
     2    2    5 2
     3    3    6 2
     4    4    6 2
     5    5   19 1
     6    6   12 1
     7    7    8 ar
     8    8    9 1
     9   10    8 ar
    10   11   10 1
    11   12   10 ar
    12   13   12 ar
    13   14   13 1
    14   15    7 ar
    15   16   15 1
    16   17    7 1
    17   18   17 1
    18   19   17 2
    19   20   19 1
    20   21   25 2
    21   22   25 2
    22   23   26 2
    23   24   26 2
    24   25   39 1
    25   26   32 1
    26   27   28 ar
    27   28   29 1
    28   30   28 ar
    29   31   30 1
    30   32   30 ar
    31   33   32 ar
    32   34   33 1
    33   35   27 ar
    34   36   35 1
    35   37   27 1
    36   38   37 1
    37   39   37 2
    38   40   39 1
    39   13   15 ar
    40   33   35 ar
@<TRIPOS>SUBSTRUCTURE
     1 RES1 1
     2 RES2 21

@<TRIPOS>CRYSIN
  15.8470    4.9991   20.4950  90.0000  90.0000  90.0000  33 1

