# MOL2 file generated by ConQuest
# Please check atom types

@<TRIPOS>MOLECULE
PUGTIV
    27    28     1
SMALL
NO_CHARGES
****
Generated from CSD

@<TRIPOS>ATOM
      1 O1         4.5388    7.2781    3.4835 O.3       1 RES1    0.0000
      2 C1         5.2651    5.6567    5.0248 C.ar      1 RES1    0.0000
      3 O2         4.5479    7.7985    5.7326 O.3       1 RES1    0.0000
      4 N1         6.6014    5.1372    2.9844 N.pl3     1 RES1    0.0000
      5 C2         5.8489    3.3662    4.4489 C.ar      1 RES1    0.0000
      6 H1         6.2576    2.7690    3.8639 H         1 RES1    0.0000
      7 C3         5.2218    7.1283    4.7127 C.3       1 RES1    0.0000
      8 H2         6.1335    7.4784    4.6309 H         1 RES1    0.0000
      9 C4         5.8767    4.7209    4.1908 C.ar      1 RES1    0.0000
     10 C5         4.6285    5.1503    6.1437 C.ar      1 RES1    0.0000
     11 H3         4.1998    5.7360    6.7247 H         1 RES1    0.0000
     12 C6         5.2149    2.9070    5.5721 C.ar      1 RES1    0.0000
     13 H4         5.1948    1.9958    5.7581 H         1 RES1    0.0000
     14 O3         7.2232    6.1703    2.9970 O.2       1 RES1    0.0000
     15 O4         4.1647   10.8877    3.8749 O.3       1 RES1    0.0000
     16 H5         3.5693   11.1792    3.3928 H         1 RES1    0.0000
     17 C7         4.5659    9.2122    5.4814 C.3       1 RES1    0.0000
     18 H6         5.4823    9.5306    5.4806 H         1 RES1    0.0000
     19 H7         4.0861    9.6744    6.1866 H         1 RES1    0.0000
     20 C8         3.9244    9.5144    4.1488 C.3       1 RES1    0.0000
     21 H8         2.9596    9.3453    4.1950 H         1 RES1    0.0000
     22 C9         4.5437    8.6604    3.0878 C.3       1 RES1    0.0000
     23 H9         4.0491    8.7627    2.2594 H         1 RES1    0.0000
     24 H10        5.4557    8.9491    2.9314 H         1 RES1    0.0000
     25 C10        4.6120    3.7967    6.4210 C.ar      1 RES1    0.0000
     26 H11        4.1887    3.4868    7.1885 H         1 RES1    0.0000
     27 O5         6.5797    4.3932    2.0219 O.2       1 RES1    0.0000
@<TRIPOS>BOND
     1    1    7 1
     2    2    7 1
     3    3    7 1
     4    4    9 1
     5    5    6 1
     6    7    8 1
     7    9    2 ar
     8   10    2 ar
     9   11   10 1
    10   12    5 ar
    11   13   12 1
    12   14    4 2
    13   15   16 1
    14   17    3 1
    15   18   17 1
    16   19   17 1
    17   20   15 1
    18   21   20 1
    19   22    1 1
    20   23   22 1
    21   24   22 1
    22   25   10 ar
    23   26   25 1
    24   27    4 2
    25    5    9 ar
    26   12   25 ar
    27   17   20 1
    28   20   22 1
@<TRIPOS>SUBSTRUCTURE
     1 RES1 1

@<TRIPOS>CRYSIN
   8.0166   10.6499   12.4109  90.0000 101.2210  90.0000  14 1

