# MOL2 file generated by ConQuest
# Please check atom types

@<TRIPOS>MOLECULE
PUGWIY
    72    74     2
SMALL
NO_CHARGES
****
Generated from CSD

@<TRIPOS>ATOM
      1 O1         4.8850    5.2371    3.6541 O.2       1 RES1    0.0000
      2 O2         5.9275    8.8496    2.0024 O.3       1 RES1    0.0000
      3 O3         1.3131    7.6922   -0.8428 O.2       1 RES1    0.0000
      4 O4        -0.7877    7.9194   -1.2102 O.2       1 RES1    0.0000
      5 O5        -1.1932    3.4054    2.9943 O.3       1 RES1    0.0000
      6 H1        -0.6938    3.4078    3.6442 H         1 RES1    0.0000
      7 N1         2.9196    6.2434    2.2490 N.2       1 RES1    0.0000
      8 N2         4.0594    6.9790    2.5215 N.am      1 RES1    0.0000
      9 N3         0.1493    7.3844   -0.6345 N.pl3     1 RES1    0.0000
     10 C1         0.7380    6.0829    1.3968 C.ar      1 RES1    0.0000
     11 C2        -0.1402    6.3509    0.3422 C.ar      1 RES1    0.0000
     12 C3        -1.3085    5.6152    0.1628 C.ar      1 RES1    0.0000
     13 H2        -1.8646    5.7989   -0.5601 H         1 RES1    0.0000
     14 C4        -1.6401    4.6261    1.0412 C.ar      1 RES1    0.0000
     15 H3        -2.4174    4.1321    0.9160 H         1 RES1    0.0000
     16 C5        -0.8068    4.3604    2.1287 C.ar      1 RES1    0.0000
     17 C6         0.3763    5.0740    2.2776 C.ar      1 RES1    0.0000
     18 H4         0.9409    4.8695    2.9865 H         1 RES1    0.0000
     19 C7         1.9793    6.8330    1.6604 C.2       1 RES1    0.0000
     20 H5         2.0642    7.7213    1.3966 H         1 RES1    0.0000
     21 C8         5.0256    6.3813    3.2478 C.2       1 RES1    0.0000
     22 C9         6.2679    7.1387    3.5914 C.ar      1 RES1    0.0000
     23 C10        6.7114    8.3260    2.9840 C.ar      1 RES1    0.0000
     24 C11        7.9080    8.9055    3.3929 C.ar      1 RES1    0.0000
     25 H6         8.2014    9.6963    3.0010 H         1 RES1    0.0000
     26 C12        8.6528    8.3056    4.3775 C.ar      1 RES1    0.0000
     27 H7         9.4500    8.7003    4.6487 H         1 RES1    0.0000
     28 C13        8.2495    7.1411    4.9678 C.ar      1 RES1    0.0000
     29 H8         8.7690    6.7413    5.6280 H         1 RES1    0.0000
     30 C14        7.0670    6.5684    4.5741 C.ar      1 RES1    0.0000
     31 H9         6.7920    5.7762    4.9758 H         1 RES1    0.0000
     32 C15        6.4126    9.9874    1.2990 C.3       1 RES1    0.0000
     33 H10        6.4917   10.7281    1.9043 H         1 RES1    0.0000
     34 H11        5.7996   10.2132    0.5962 H         1 RES1    0.0000
     35 H12        7.2729    9.7888    0.9232 H         1 RES1    0.0000
     36 H13        4.1810    7.8025    2.1934 H         1 RES1    0.0000
     37 O6         9.2798    3.7646    5.0724 O.2       2 RES2    0.0000
     38 O7        10.2757    2.2741    8.7535 O.3       2 RES2    0.0000
     39 O8         5.5921   -0.5277    7.7818 O.2       2 RES2    0.0000
     40 O9         3.4792   -0.8251    8.0067 O.2       2 RES2    0.0000
     41 O10        3.2275    3.1530    3.2803 O.3       2 RES2    0.0000
     42 H14        3.7287    3.8020    3.2774 H         2 RES2    0.0000
     43 N4         7.2778    2.4718    6.1677 N.2       2 RES2    0.0000
     44 N5         8.4192    2.7584    6.8815 N.am      2 RES2    0.0000
     45 N6         4.4415   -0.3023    7.4457 N.pl3     2 RES2    0.0000
     46 C16        5.0902    1.6395    6.0459 C.ar      2 RES2    0.0000
     47 C17        4.1862    0.6233    6.3579 C.ar      2 RES2    0.0000
     48 C18        3.0246    0.4311    5.6193 C.ar      2 RES2    0.0000
     49 H15        2.4467   -0.2642    5.8376 H         2 RES2    0.0000
     50 C19        2.7274    1.2611    4.5738 C.ar      2 RES2    0.0000
     51 H16        1.9595    1.1193    4.0670 H         2 RES2    0.0000
     52 C20        3.5813    2.3185    4.2726 C.ar      2 RES2    0.0000
     53 C21        4.7596    2.4815    4.9971 C.ar      2 RES2    0.0000
     54 H17        5.3394    3.1734    4.7716 H         2 RES2    0.0000
     55 C22        6.3334    1.9144    6.7897 C.2       2 RES2    0.0000
     56 H18        6.4182    1.6845    7.6877 H         2 RES2    0.0000
     57 C23        9.4011    3.4307    6.2421 C.2       2 RES2    0.0000
     58 C24       10.6337    3.8100    6.9959 C.ar      2 RES2    0.0000
     59 C25       11.0476    3.2651    8.2170 C.ar      2 RES2    0.0000
     60 C26       12.2168    3.7352    8.8138 C.ar      2 RES2    0.0000
     61 H19       12.5003    3.3818    9.6263 H         2 RES2    0.0000
     62 C27       12.9481    4.7184    8.1995 C.ar      2 RES2    0.0000
     63 H20       13.7122    5.0435    8.6181 H         2 RES2    0.0000
     64 C28       12.5795    5.2350    6.9867 C.ar      2 RES2    0.0000
     65 H21       13.0994    5.8848    6.5711 H         2 RES2    0.0000
     66 C29       11.4298    4.7758    6.3944 C.ar      2 RES2    0.0000
     67 H22       11.1768    5.1206    5.5684 H         2 RES2    0.0000
     68 C30       10.6800    1.6773    9.9739 C.3       2 RES2    0.0000
     69 H23       11.5779    1.3472    9.8865 H         2 RES2    0.0000
     70 H24       10.0908    0.9495   10.1846 H         2 RES2    0.0000
     71 H25       10.6460    2.3302   10.6760 H         2 RES2    0.0000
     72 H26        8.5250    2.4812    7.7256 H         2 RES2    0.0000
@<TRIPOS>BOND
     1    1   21 2
     2    2   23 1
     3    3    9 2
     4    4    9 2
     5    5    6 1
     6    7    8 1
     7    8   21 1
     8    9   11 1
     9   10   11 ar
    10   11   12 ar
    11   12   13 1
    12   14   12 ar
    13   15   14 1
    14   16    5 1
    15   17   10 ar
    16   18   17 1
    17   19    7 2
    18   20   19 1
    19   21   22 1
    20   22   23 ar
    21   23   24 ar
    22   24   25 1
    23   26   24 ar
    24   27   26 1
    25   28   26 ar
    26   29   28 1
    27   30   22 ar
    28   31   30 1
    29   32    2 1
    30   33   32 1
    31   34   32 1
    32   35   32 1
    33   36    8 1
    34   37   57 2
    35   38   59 1
    36   39   45 2
    37   40   45 2
    38   41   42 1
    39   43   44 1
    40   44   57 1
    41   45   47 1
    42   46   47 ar
    43   47   48 ar
    44   48   49 1
    45   50   48 ar
    46   51   50 1
    47   52   41 1
    48   53   46 ar
    49   54   53 1
    50   55   43 2
    51   56   55 1
    52   57   58 1
    53   58   59 ar
    54   59   60 ar
    55   60   61 1
    56   62   60 ar
    57   63   62 1
    58   64   62 ar
    59   65   64 1
    60   66   58 ar
    61   67   66 1
    62   68   38 1
    63   69   68 1
    64   70   68 1
    65   71   68 1
    66   72   44 1
    67   10   19 1
    68   14   16 ar
    69   16   17 ar
    70   28   30 ar
    71   46   55 1
    72   50   52 ar
    73   52   53 ar
    74   64   66 ar
@<TRIPOS>SUBSTRUCTURE
     1 RES1 1
     2 RES2 37

@<TRIPOS>CRYSIN
   8.7540    9.0529   18.2159  86.9020  83.0230  82.5090   2 1

