# MOL2 file generated by ConQuest
# Please check atom types

@<TRIPOS>MOLECULE
PUGZOH
    45    47     1
SMALL
NO_CHARGES
****
Generated from CSD

@<TRIPOS>ATOM
      1 O1         2.4970    7.6434    3.6316 O.2       1 RES1    0.0000
      2 O2         0.0634    5.4819    6.9724 O.2       1 RES1    0.0000
      3 O3        -1.1336    5.1699    4.1913 O.3       1 RES1    0.0000
      4 O4        -0.2048    0.7585    4.5800 O.2       1 RES1    0.0000
      5 O5        -2.1109    1.2538    3.4838 O.3       1 RES1    0.0000
      6 N1         1.0995    5.8265    3.6840 N.am      1 RES1    0.0000
      7 N2        -1.6397    3.8808    3.9403 N.2       1 RES1    0.0000
      8 C1        -0.3244    7.2705    1.4765 C.ar      1 RES1    0.0000
      9 H1        -0.9182    7.0307    2.1516 H         1 RES1    0.0000
     10 C2        -0.6429    8.3077    0.6022 C.ar      1 RES1    0.0000
     11 H2        -1.4463    8.7653    0.7033 H         1 RES1    0.0000
     12 C3         0.2274    8.6635   -0.4189 C.ar      1 RES1    0.0000
     13 H3         0.0055    9.3533   -1.0027 H         1 RES1    0.0000
     14 C4         1.4288    7.9876   -0.5658 C.ar      1 RES1    0.0000
     15 H4         2.0134    8.2170   -1.2520 H         1 RES1    0.0000
     16 C5         1.7557    6.9651    0.3168 C.ar      1 RES1    0.0000
     17 H5         2.5681    6.5226    0.2242 H         1 RES1    0.0000
     18 C6         0.8851    6.5932    1.3372 C.ar      1 RES1    0.0000
     19 C7         1.2768    5.4656    2.2735 C.3       1 RES1    0.0000
     20 H6         0.7361    4.6847    2.0750 H         1 RES1    0.0000
     21 H7         2.2054    5.2315    2.1196 H         1 RES1    0.0000
     22 C8         1.6918    6.9431    4.2146 C.2       1 RES1    0.0000
     23 C9         1.1506    7.1837    5.6175 C.3       1 RES1    0.0000
     24 C10        0.4445    5.8837    5.9054 C.2       1 RES1    0.0000
     25 C11        0.2817    5.0824    4.5961 C.3       1 RES1    0.0000
     26 C12        0.5445    3.5832    4.7322 C.3       1 RES1    0.0000
     27 H8         1.2967    3.3026    4.1877 H         1 RES1    0.0000
     28 H9         0.7034    3.3316    5.6555 H         1 RES1    0.0000
     29 C13       -0.7372    3.0198    4.2250 C.2       1 RES1    0.0000
     30 C14       -0.9879    1.5550    4.1243 C.2       1 RES1    0.0000
     31 C15       -2.3770   -0.1768    3.3061 C.3       1 RES1    0.0000
     32 H10       -2.6867   -0.5667    4.1389 H         1 RES1    0.0000
     33 H11       -1.5689   -0.6377    3.0318 H         1 RES1    0.0000
     34 C16       -3.4331   -0.3035    2.2477 C.3       1 RES1    0.0000
     35 H12       -3.6230   -1.2321    2.0945 H         1 RES1    0.0000
     36 H13       -3.1200    0.0976    1.4330 H         1 RES1    0.0000
     37 H14       -4.2324    0.1432    2.5374 H         1 RES1    0.0000
     38 C17        0.1027    8.3118    5.5516 C.3       1 RES1    0.0000
     39 H15       -0.5905    8.0692    4.9327 H         1 RES1    0.0000
     40 H16        0.5238    9.1233    5.2586 H         1 RES1    0.0000
     41 H17       -0.2783    8.4455    6.4229 H         1 RES1    0.0000
     42 C18        2.2427    7.4876    6.6326 C.3       1 RES1    0.0000
     43 H18        2.9049    6.7928    6.6081 H         1 RES1    0.0000
     44 H19        1.8590    7.5338    7.5119 H         1 RES1    0.0000
     45 H20        2.6539    8.3280    6.4187 H         1 RES1    0.0000
@<TRIPOS>BOND
     1    1   22 2
     2    2   24 2
     3    3    7 1
     4    4   30 2
     5    5   30 1
     6    6   19 1
     7    7   29 2
     8    8    9 1
     9   10    8 ar
    10   11   10 1
    11   12   10 ar
    12   13   12 1
    13   14   12 ar
    14   15   14 1
    15   16   14 ar
    16   17   16 1
    17   18    8 ar
    18   19   18 1
    19   20   19 1
    20   21   19 1
    21   22    6 1
    22   23   22 1
    23   24   23 1
    24   25    3 1
    25   26   25 1
    26   27   26 1
    27   28   26 1
    28   29   26 1
    29   30   29 1
    30   31    5 1
    31   32   31 1
    32   33   31 1
    33   34   31 1
    34   35   34 1
    35   36   34 1
    36   37   34 1
    37   38   23 1
    38   39   38 1
    39   40   38 1
    40   41   38 1
    41   42   23 1
    42   43   42 1
    43   44   42 1
    44   45   42 1
    45    6   25 1
    46   16   18 ar
    47   24   25 1
@<TRIPOS>SUBSTRUCTURE
     1 RES1 1

@<TRIPOS>CRYSIN
   5.5727   10.8497   14.2803 100.9110  96.5320  90.2370   2 1

