# MOL2 file generated by ConQuest
# Please check atom types

@<TRIPOS>MOLECULE
PUHDUS01
    30    30     3
SMALL
NO_CHARGES
****
Generated from CSD

@<TRIPOS>ATOM
      1 N1        10.5436    6.9826   17.4153 N.pl3     1 RES1    0.0000
      2 N2         9.6381    8.2125   15.6033 N.2       1 RES1    0.0000
      3 O1        11.0141    8.3880   15.3035 O.3       1 RES1    0.0000
      4 C1         8.1543    7.2155   17.1174 C.2       1 RES1    0.0000
      5 C2         6.9134    7.6461   16.5904 C.2       1 RES1    0.0000
      6 N3         5.9195    7.2119   17.3122 N.2       1 RES1    0.0000
      7 O2         6.5517    6.4970   18.3566 O.3       1 RES1    0.0000
      8 N4         7.9389    6.5414   18.1867 N.2       1 RES1    0.0000
      9 N5         6.7125    8.3974   15.4066 N.pl3     1 RES1    0.0000
     10 C3         9.5399    7.4928   16.6993 C.2       1 RES1    0.0000
     11 C4        10.8030   11.0806   17.1919 C.2       2 RES2    0.0000
     12 C5         9.5601   11.5206   16.6420 C.2       2 RES2    0.0000
     13 N6         8.5758   11.0291   17.3408 N.2       2 RES2    0.0000
     14 O3         9.1866   10.2907   18.3642 O.3       2 RES2    0.0000
     15 N7        10.5413   10.3282   18.2516 N.2       2 RES2    0.0000
     16 N8         9.3507   12.2169   15.4868 N.pl3     2 RES2    0.0000
     17 C6        12.1829   11.3498   16.7566 C.2       2 RES2    0.0000
     18 N9        12.2253   12.0343   15.6606 N.2       2 RES2    0.0000
     19 O4        13.6177   12.2918   15.3245 O.3       2 RES2    0.0000
     20 N10       13.1821   10.9039   17.4993 N.pl3     2 RES2    0.0000
     21 C7         5.5875    3.3725   17.0487 C.2       3 RES3    0.0000
     22 C8         4.3758    3.8125   16.4530 C.2       3 RES3    0.0000
     23 N11        3.3580    3.3292   17.1232 N.2       3 RES3    0.0000
     24 O5         3.9593    2.5803   18.1695 O.3       3 RES3    0.0000
     25 N12        5.3292    2.6294   18.1122 N.2       3 RES3    0.0000
     26 N13        4.2096    4.5334   15.3150 N.pl3     3 RES3    0.0000
     27 C9         6.9802    3.6463   16.6286 C.2       3 RES3    0.0000
     28 N14        7.0599    4.3847   15.5747 N.2       3 RES3    0.0000
     29 O6         8.4333    4.6071   15.2310 O.3       3 RES3    0.0000
     30 N15        7.9950    3.1268   17.3275 N.pl3     3 RES3    0.0000
@<TRIPOS>BOND
     1    1   10 1
     2    2    3 1
     3    4    5 1
     4    5    6 2
     5    6    7 1
     6    7    8 1
     7    8    4 2
     8    9    5 1
     9   10    2 2
    10   11   12 1
    11   12   13 2
    12   13   14 1
    13   14   15 1
    14   15   11 2
    15   16   12 1
    16   17   11 1
    17   18   17 2
    18   19   18 1
    19   20   17 1
    20   21   22 1
    21   22   23 2
    22   23   24 1
    23   24   25 1
    24   25   21 2
    25   26   22 1
    26   27   21 1
    27   28   27 2
    28   29   28 1
    29   30   27 1
    30    4   10 1
@<TRIPOS>SUBSTRUCTURE
     1 RES1 1
     2 RES2 11
     3 RES3 21

@<TRIPOS>CRYSIN
   7.6510   11.7020   19.2160  90.0000  96.4700  90.0000  14 1

