# MOL2 file generated by ConQuest
# Please check atom types

@<TRIPOS>MOLECULE
PUHDUS
    45    45     3
SMALL
NO_CHARGES
****
Generated from CSD

@<TRIPOS>ATOM
      1 O1         2.1142    2.5420    3.7992 O.3       1 RES1    0.0000
      2 H1         2.1517    3.1283    4.3705 H         1 RES1    0.0000
      3 N1         3.4943    2.3622    3.4803 N.2       1 RES1    0.0000
      4 O2         6.5733    0.6521    0.7483 O.3       1 RES1    0.0000
      5 N2         5.2100    0.6827    0.8947 N.2       1 RES1    0.0000
      6 C1         3.5939    1.6425    2.4117 C.2       1 RES1    0.0000
      7 C2         4.9676    1.3817    1.9613 C.2       1 RES1    0.0000
      8 N3         2.5927    1.1220    1.6836 N.3       1 RES1    0.0000
      9 H2         1.7761    1.2567    1.9170 H         1 RES1    0.0000
     10 H3         2.7682    0.6535    0.9833 H         1 RES1    0.0000
     11 N4         6.4437    2.4928    3.6938 N.pl3     1 RES1    0.0000
     12 H4         7.2045    2.8858    3.7709 H         1 RES1    0.0000
     13 H5         5.7651    2.9678    3.9256 H         1 RES1    0.0000
     14 C3         6.2211    1.8066    2.5224 C.2       1 RES1    0.0000
     15 N5         7.1937    1.3586    1.7749 N.2       1 RES1    0.0000
     16 O3         1.8582    4.6207    5.6908 O.3       2 RES2    0.0000
     17 H6         1.7717    5.1416    5.0635 H         2 RES2    0.0000
     18 N6         0.4845    4.3858    6.0285 N.2       2 RES2    0.0000
     19 C4         0.4049    3.6507    7.0876 C.2       2 RES2    0.0000
     20 O4        -2.6200    2.5812    8.6214 O.3       2 RES2    0.0000
     21 N7         1.4087    3.1292    7.8050 N.3       2 RES2    0.0000
     22 H7         2.2236    3.2735    7.5724 H         2 RES2    0.0000
     23 H8         1.2377    2.6504    8.4984 H         2 RES2    0.0000
     24 N8        -1.2538    2.6269    8.5330 N.2       2 RES2    0.0000
     25 N9        -2.3557    4.5568    5.7788 N.pl3     2 RES2    0.0000
     26 H9        -3.1423    4.7352    5.4798 H         2 RES2    0.0000
     27 H10       -1.6622    4.8488    5.3633 H         2 RES2    0.0000
     28 C5        -0.9800    3.3657    7.5031 C.2       2 RES2    0.0000
     29 C6        -2.2092    3.8144    6.9041 C.2       2 RES2    0.0000
     30 N10       -3.2079    3.3307    7.5967 N.2       2 RES2    0.0000
     31 O5        -0.4792    6.4513    3.7625 O.3       3 RES3    0.0000
     32 H11       -0.3958    6.9839    4.3800 H         3 RES3    0.0000
     33 O6         3.9485    4.4459    0.7296 O.3       3 RES3    0.0000
     34 N11        0.8823    6.1951    3.4324 N.2       3 RES3    0.0000
     35 C7         0.9613    5.5076    2.3380 C.2       3 RES3    0.0000
     36 C8         2.3369    5.2184    1.8992 C.2       3 RES3    0.0000
     37 C9         3.5808    5.6513    2.4720 C.2       3 RES3    0.0000
     38 N12        3.7704    6.3757    3.6096 N.3       3 RES3    0.0000
     39 H12        4.5677    6.5412    3.8855 H         3 RES3    0.0000
     40 H13        3.0926    6.6676    4.0516 H         3 RES3    0.0000
     41 N13       -0.0511    5.0455    1.5916 N.3       3 RES3    0.0000
     42 H14       -0.8641    5.1990    1.8272 H         3 RES3    0.0000
     43 H15        0.1116    4.5958    0.8764 H         3 RES3    0.0000
     44 N14        2.5848    4.4982    0.8506 N.2       3 RES3    0.0000
     45 N15        4.5602    5.1762    1.7499 N.2       3 RES3    0.0000
@<TRIPOS>BOND
     1    1    2 1
     2    3    1 1
     3    4    5 1
     4    5    7 2
     5    6    3 2
     6    7    6 1
     7    8    6 1
     8    9    8 1
     9   10    8 1
    10   11   12 1
    11   13   11 1
    12   14    7 1
    13   15    4 1
    14   16   17 1
    15   18   16 1
    16   19   18 2
    17   20   24 1
    18   21   19 1
    19   22   21 1
    20   23   21 1
    21   24   28 2
    22   25   26 1
    23   27   25 1
    24   28   19 1
    25   29   25 1
    26   30   20 1
    27   31   32 1
    28   33   44 1
    29   34   31 1
    30   35   34 2
    31   36   35 1
    32   37   36 1
    33   38   37 1
    34   39   38 1
    35   40   38 1
    36   41   35 1
    37   42   41 1
    38   43   41 1
    39   44   36 2
    40   45   33 1
    41   11   14 1
    42   14   15 2
    43   28   29 1
    44   29   30 2
    45   37   45 2
@<TRIPOS>SUBSTRUCTURE
     1 RES1 1
     2 RES2 16
     3 RES3 31

@<TRIPOS>CRYSIN
   7.6514   11.7120   19.2180  90.0000  96.5300  90.0000  14 1

