# MOL2 file generated by ConQuest
# Please check atom types

@<TRIPOS>MOLECULE
PUHFEE02
    23    24     1
SMALL
NO_CHARGES
****
Generated from CSD

@<TRIPOS>ATOM
      1 C1        10.1580    0.7561   13.6573 C.3       1 RES1    0.0000
      2 C2         8.8762    1.2572   12.9288 C.2       1 RES1    0.0000
      3 C3         8.5115    1.4950   15.1691 C.ar      1 RES1    0.0000
      4 C4         7.9142    1.7857   16.3758 C.ar      1 RES1    0.0000
      5 H1         7.0702    2.1748   16.4168 H         1 RES1    0.0000
      6 C5         8.6204    1.4749   17.5264 C.ar      1 RES1    0.0000
      7 H2         8.2381    1.6565   18.3554 H         1 RES1    0.0000
      8 C6         9.8764    0.9021   17.4764 C.ar      1 RES1    0.0000
      9 H3        10.3188    0.6843   18.2647 H         1 RES1    0.0000
     10 C7        10.4812    0.6494   16.2527 C.ar      1 RES1    0.0000
     11 H4        11.3366    0.2864   16.2120 H         1 RES1    0.0000
     12 C8         9.7876    0.9482   15.1000 C.ar      1 RES1    0.0000
     13 C9        11.4168    1.5181   13.2272 C.3       1 RES1    0.0000
     14 H5        12.2013    1.0726   13.5845 H         1 RES1    0.0000
     15 H6        11.4825    1.5111   12.2602 H         1 RES1    0.0000
     16 N1        11.3842    2.9198   13.7085 N.pl3     1 RES1    0.0000
     17 O1        10.4395    3.6004   13.3724 O.2       1 RES1    0.0000
     18 O2        12.2927    3.3035   14.4167 O.2       1 RES1    0.0000
     19 O3        10.3223   -0.6218   13.3622 O.3       1 RES1    0.0000
     20 O4         8.6947    1.2246   11.7196 O.2       1 RES1    0.0000
     21 N2         7.9987    1.6597   13.8661 N.am      1 RES1    0.0000
     22 H7        10.9285   -0.7308   12.8258 H         1 RES1    0.0000
     23 H8         7.1888    1.9267   13.6892 H         1 RES1    0.0000
@<TRIPOS>BOND
     1    1    2 1
     2    2   20 2
     3    3    4 ar
     4    4    5 1
     5    6    4 ar
     6    7    6 1
     7    8    6 ar
     8    9    8 1
     9   10    8 ar
    10   11   10 1
    11   12    1 1
    12   13    1 1
    13   14   13 1
    14   15   13 1
    15   16   13 1
    16   17   16 2
    17   18   16 2
    18   19    1 1
    19   21    2 1
    20   22   19 1
    21   23   21 1
    22    3   12 ar
    23    3   21 1
    24   10   12 ar
@<TRIPOS>SUBSTRUCTURE
     1 RES1 1

@<TRIPOS>CRYSIN
  10.4930    7.3821   23.2730  90.0000  90.0000  90.0000  61 1

