# MOL2 file generated by ConQuest
# Please check atom types

@<TRIPOS>MOLECULE
PUHFEE
    23    24     1
SMALL
NO_CHARGES
****
Generated from CSD

@<TRIPOS>ATOM
      1 N1         7.7593    1.6617   13.8577 N.am      1 RES1    0.0000
      2 H1         8.5392    1.9791   13.6821 H         1 RES1    0.0000
      3 C1         7.2417    1.4983   15.1622 C.ar      1 RES1    0.0000
      4 C2         5.9666    0.9510   15.0934 C.ar      1 RES1    0.0000
      5 C3         5.5951    0.7567   13.6489 C.3       1 RES1    0.0000
      6 O1         7.0598    1.2221   11.7110 O.2       1 RES1    0.0000
      7 C4         5.2666    0.6490   16.2464 C.ar      1 RES1    0.0000
      8 H2         4.4121    0.2846   16.2036 H         1 RES1    0.0000
      9 C5         4.3344    1.5175   13.2188 C.3       1 RES1    0.0000
     10 H3         4.2680    1.5101   12.2516 H         1 RES1    0.0000
     11 H4         3.5509    1.0714   13.5774 H         1 RES1    0.0000
     12 C6         7.8451    1.7894   16.3711 C.ar      1 RES1    0.0000
     13 H5         8.6896    2.1759   16.4106 H         1 RES1    0.0000
     14 N2         4.3662    2.9189   13.6993 N.pl3     1 RES1    0.0000
     15 C7         7.1325    1.4783   17.5239 C.ar      1 RES1    0.0000
     16 H6         7.5130    1.6613   18.3529 H         1 RES1    0.0000
     17 C8         5.8749    0.9047   17.4744 C.ar      1 RES1    0.0000
     18 H7         5.4331    0.6887   18.2645 H         1 RES1    0.0000
     19 O2         5.3109    3.6015   13.3634 O.2       1 RES1    0.0000
     20 O3         3.4574    3.3054   14.4081 O.2       1 RES1    0.0000
     21 C9         6.8762    1.2568   12.9203 C.2       1 RES1    0.0000
     22 O4         5.4279   -0.6204   13.3551 O.3       1 RES1    0.0000
     23 H8         4.8222   -0.7123   12.8098 H         1 RES1    0.0000
@<TRIPOS>BOND
     1    1    2 1
     2    3    1 1
     3    4    3 ar
     4    5    4 1
     5    6   21 2
     6    7    4 ar
     7    8    7 1
     8    9    5 1
     9   10    9 1
    10   11    9 1
    11   12    3 ar
    12   13   12 1
    13   14    9 1
    14   15   12 ar
    15   16   15 1
    16   17    7 ar
    17   18   17 1
    18   19   14 2
    19   20   14 2
    20   21    1 1
    21   22    5 1
    22   23   22 1
    23    5   21 1
    24   15   17 ar
@<TRIPOS>SUBSTRUCTURE
     1 RES1 1

@<TRIPOS>CRYSIN
  10.5150    7.3736   23.2610  90.0000  90.0000  90.0000  61 1

