# MOL2 file generated by ConQuest
# Please check atom types

@<TRIPOS>MOLECULE
PUHKIN
    67    69     1
SMALL
NO_CHARGES
****
Generated from CSD

@<TRIPOS>ATOM
      1 N1         4.9581   -4.4799    6.7786 N.pl3     1 RES1    0.0000
      2 O1        -1.1993    4.3345    6.0932 O.2       1 RES1    0.0000
      3 C1        -2.9653    5.1853    7.4688 C.3       1 RES1    0.0000
      4 H1        -2.7889    6.0310    7.0511 H         1 RES1    0.0000
      5 H2        -2.8353    5.2644    8.4173 H         1 RES1    0.0000
      6 H3        -3.8716    4.9225    7.2903 H         1 RES1    0.0000
      7 O2        -2.2777    2.9721    7.4878 O.3       1 RES1    0.0000
      8 C2        -2.0330    4.1572    6.9239 C.2       1 RES1    0.0000
      9 O3        -5.7830   -0.1850    8.3812 O.2       1 RES1    0.0000
     10 C3        -6.4529    2.0563    8.9157 C.3       1 RES1    0.0000
     11 H4        -7.3482    1.7119    8.8910 H         1 RES1    0.0000
     12 H5        -6.3591    2.7553    8.2635 H         1 RES1    0.0000
     13 H6        -6.2682    2.4071    9.7901 H         1 RES1    0.0000
     14 O4        -4.2387    1.4032    8.6451 O.3       1 RES1    0.0000
     15 C4        -5.4886    0.9554    8.6071 C.2       1 RES1    0.0000
     16 C5        -3.1555    0.4528    8.4771 C.3       1 RES1    0.0000
     17 H7        -3.5101   -0.4465    8.5549 H         1 RES1    0.0000
     18 H8        -2.5108    0.5791    9.1910 H         1 RES1    0.0000
     19 C6        -2.4320    0.5906    7.1194 C.3       1 RES1    0.0000
     20 O5         0.0135   -4.4952    7.4213 O.2       1 RES1    0.0000
     21 C7        -1.5707   -0.6722    6.8042 C.3       1 RES1    0.0000
     22 H9        -1.2574   -0.5255    5.8871 H         1 RES1    0.0000
     23 O6         3.3154   -2.3203    3.0447 O.3       1 RES1    0.0000
     24 C8        -0.2538   -0.8789    7.6293 C.3       1 RES1    0.0000
     25 O7         2.5872   -4.2758    3.8811 O.2       1 RES1    0.0000
     26 O8         5.9139   -4.3358    6.2659 O.2       1 RES1    0.0000
     27 C9         0.5457    0.4337    7.5467 C.3       1 RES1    0.0000
     28 H10        1.3058    0.3750    8.1457 H         1 RES1    0.0000
     29 H11        0.8880    0.5358    6.6448 H         1 RES1    0.0000
     30 O9         4.5468   -5.6012    7.0644 O.2       1 RES1    0.0000
     31 C10       -0.2762    1.6812    7.9084 C.3       1 RES1    0.0000
     32 H12       -0.5356    1.6328    8.8416 H         1 RES1    0.0000
     33 H13        0.2754    2.4708    7.7935 H         1 RES1    0.0000
     34 C11       -1.4974    1.8114    7.0672 C.3       1 RES1    0.0000
     35 H14       -1.2189    1.9478    6.1378 H         1 RES1    0.0000
     36 C12       -3.5160    0.7411    6.0115 C.3       1 RES1    0.0000
     37 H15       -3.0888    0.8406    5.1580 H         1 RES1    0.0000
     38 H16       -4.0541    1.5154    6.1928 H         1 RES1    0.0000
     39 H17       -4.0731   -0.0408    6.0011 H         1 RES1    0.0000
     40 C13       -0.4967   -1.2641    9.1122 C.3       1 RES1    0.0000
     41 H18       -0.9995   -0.5702    9.5442 H         1 RES1    0.0000
     42 H19        0.3477   -1.3713    9.5565 H         1 RES1    0.0000
     43 H20       -0.9868   -2.0882    9.1521 H         1 RES1    0.0000
     44 C14       -2.3807   -1.9683    6.7198 C.3       1 RES1    0.0000
     45 H21       -3.1700   -1.8190    6.1758 H         1 RES1    0.0000
     46 H22       -2.6721   -2.2234    7.6084 H         1 RES1    0.0000
     47 C15       -1.5503   -3.1010    6.1102 C.3       1 RES1    0.0000
     48 H23       -2.0642   -3.9225    6.1264 H         1 RES1    0.0000
     49 H24       -1.3470   -2.8918    5.1855 H         1 RES1    0.0000
     50 C16       -0.2884   -3.2923    6.8612 C.2       1 RES1    0.0000
     51 C17        0.5699   -2.0448    6.9400 C.3       1 RES1    0.0000
     52 H25        0.7142   -1.7591    6.0134 H         1 RES1    0.0000
     53 C18        1.9523   -2.2438    7.5334 C.3       1 RES1    0.0000
     54 H26        1.8611   -2.6724    8.3992 H         1 RES1    0.0000
     55 H27        2.3584   -1.3751    7.6767 H         1 RES1    0.0000
     56 C19        2.8979   -3.0933    6.6609 C.3       1 RES1    0.0000
     57 H28        2.4585   -3.9518    6.4900 H         1 RES1    0.0000
     58 C20        3.1716   -2.4377    5.3261 C.2       1 RES1    0.0000
     59 C21        3.0005   -3.1609    4.0786 C.2       1 RES1    0.0000
     60 C22        3.7349   -1.0766    3.5744 C.3       1 RES1    0.0000
     61 H29        3.1767   -0.3559    3.2422 H         1 RES1    0.0000
     62 H30        4.6564   -0.8942    3.3333 H         1 RES1    0.0000
     63 C23        3.5958   -1.2144    5.0336 C.2       1 RES1    0.0000
     64 H31        3.7766   -0.5460    5.6555 H         1 RES1    0.0000
     65 C24        4.1648   -3.3663    7.4166 C.3       1 RES1    0.0000
     66 H32        3.9473   -3.6099    8.3299 H         1 RES1    0.0000
     67 H33        4.7042   -2.5614    7.4413 H         1 RES1    0.0000
@<TRIPOS>BOND
     1    1   26 2
     2    2    8 2
     3    3    4 1
     4    5    3 1
     5    6    3 1
     6    7    8 1
     7    8    3 1
     8    9   15 2
     9   10   11 1
    10   12   10 1
    11   13   10 1
    12   14   15 1
    13   15   10 1
    14   16   14 1
    15   17   16 1
    16   18   16 1
    17   19   16 1
    18   20   50 2
    19   21   19 1
    20   22   21 1
    21   23   59 1
    22   24   21 1
    23   25   59 2
    24   27   24 1
    25   28   27 1
    26   29   27 1
    27   30    1 2
    28   31   27 1
    29   32   31 1
    30   33   31 1
    31   34    7 1
    32   35   34 1
    33   36   19 1
    34   37   36 1
    35   38   36 1
    36   39   36 1
    37   40   24 1
    38   41   40 1
    39   42   40 1
    40   43   40 1
    41   44   21 1
    42   45   44 1
    43   46   44 1
    44   47   44 1
    45   48   47 1
    46   49   47 1
    47   50   47 1
    48   51   24 1
    49   52   51 1
    50   53   51 1
    51   54   53 1
    52   55   53 1
    53   56   53 1
    54   57   56 1
    55   58   56 1
    56   59   58 1
    57   60   23 1
    58   61   60 1
    59   62   60 1
    60   63   58 2
    61   64   63 1
    62   65    1 1
    63   66   65 1
    64   67   65 1
    65   19   34 1
    66   31   34 1
    67   50   51 1
    68   56   65 1
    69   60   63 1
@<TRIPOS>SUBSTRUCTURE
     1 RES1 1

@<TRIPOS>CRYSIN
  10.5330   12.7560   10.6590  90.0000 117.0400  90.0000   4 1

