# MOL2 file generated by ConQuest
# Please check atom types

@<TRIPOS>MOLECULE
PUHWOG
    33    36     1
SMALL
NO_CHARGES
****
Generated from CSD

@<TRIPOS>ATOM
      1 O1         2.7559    9.1667    4.4752 O.3       1 RES1    0.0000
      2 O2         0.7568    9.9026    2.3458 O.2       1 RES1    0.0000
      3 O3         4.0395    7.3636    0.5278 O.2       1 RES1    0.0000
      4 N1         2.8989    7.6852    4.3739 N.3       1 RES1    0.0000
      5 N2         2.1988    8.5200    1.2348 N.am      1 RES1    0.0000
      6 C1         2.7574    5.7519    5.9217 C.3       1 RES1    0.0000
      7 H1         1.8618    5.6536    6.2813 H         1 RES1    0.0000
      8 H2         2.7995    5.2970    5.0664 H         1 RES1    0.0000
      9 C2         3.7681    5.1841    6.8691 C.3       1 RES1    0.0000
     10 H3         3.8563    4.2249    6.7573 H         1 RES1    0.0000
     11 H4         3.5354    5.3785    7.7906 H         1 RES1    0.0000
     12 C3         5.0458    5.9125    6.4531 C.3       1 RES1    0.0000
     13 H5         5.4555    5.4682    5.6944 H         1 RES1    0.0000
     14 H6         5.6817    5.9247    7.1849 H         1 RES1    0.0000
     15 C4         4.6344    7.3442    6.0774 C.3       1 RES1    0.0000
     16 H7         4.7861    7.9546    6.8298 H         1 RES1    0.0000
     17 C5         3.1133    7.2358    5.7589 C.3       1 RES1    0.0000
     18 H8         2.5919    7.7834    6.3824 H         1 RES1    0.0000
     19 C6         5.2629    7.8955    4.8078 C.3       1 RES1    0.0000
     20 H9         6.1048    7.4533    4.6182 H         1 RES1    0.0000
     21 H10        5.4205    8.8493    4.8857 H         1 RES1    0.0000
     22 C7         4.2264    7.5980    3.7083 C.3       1 RES1    0.0000
     23 H11        4.3669    6.7032    3.3317 H         1 RES1    0.0000
     24 C8         4.1195    8.6398    2.5999 C.3       1 RES1    0.0000
     25 H12        4.9712    9.0960    2.4343 H         1 RES1    0.0000
     26 C9         3.0468    9.5884    3.1563 C.3       1 RES1    0.0000
     27 H13        3.3560   10.5185    3.1420 H         1 RES1    0.0000
     28 C10        1.8442    9.3925    2.2286 C.2       1 RES1    0.0000
     29 C11        3.5106    8.0734    1.3294 C.2       1 RES1    0.0000
     30 C12        1.2834    8.1185    0.1754 C.3       1 RES1    0.0000
     31 H14        0.5566    7.6183    0.5529 H         1 RES1    0.0000
     32 H15        1.7503    7.5735   -0.4616 H         1 RES1    0.0000
     33 H16        0.9393    8.9003   -0.2639 H         1 RES1    0.0000
@<TRIPOS>BOND
     1    1    4 1
     2    2   28 2
     3    3   29 2
     4    4   17 1
     5    5   28 1
     6    6    7 1
     7    8    6 1
     8    9    6 1
     9   10    9 1
    10   11    9 1
    11   12    9 1
    12   13   12 1
    13   14   12 1
    14   15   12 1
    15   16   15 1
    16   17    6 1
    17   18   17 1
    18   19   15 1
    19   20   19 1
    20   21   19 1
    21   22    4 1
    22   23   22 1
    23   24   22 1
    24   25   24 1
    25   26    1 1
    26   27   26 1
    27   28   26 1
    28   29    5 1
    29   30    5 1
    30   31   30 1
    31   32   30 1
    32   33   30 1
    33   15   17 1
    34   19   22 1
    35   24   26 1
    36   24   29 1
@<TRIPOS>SUBSTRUCTURE
     1 RES1 1

@<TRIPOS>CRYSIN
   6.3364   20.3808    8.9845  90.0000  95.2720  90.0000   9 1

