# MOL2 file generated by ConQuest
# Please check atom types

@<TRIPOS>MOLECULE
PUHYUN
   134   140     2
SMALL
NO_CHARGES
****
Generated from CSD

@<TRIPOS>ATOM
      1 O1        -1.7872    4.7645    8.9317 O.2       1 RES1    0.0000
      2 O2        -0.2452    4.4744   10.3948 O.2       1 RES1    0.0000
      3 O3        -1.0018   -2.3342    7.6108 O.2       1 RES1    0.0000
      4 O4         0.4622   -2.7662    9.1043 O.2       1 RES1    0.0000
      5 O5        -2.3859    0.9193    7.8033 O.2       1 RES1    0.0000
      6 O6        -0.4826    0.8755    6.8231 O.2       1 RES1    0.0000
      7 O7         5.2356    4.7833    8.9035 O.2       2 RES2    0.0000
      8 O8         6.9129    4.0716   10.0517 O.2       2 RES2    0.0000
      9 O9         6.1883   -2.0640    7.5303 O.2       2 RES2    0.0000
     10 O10        7.8151   -2.8810    8.6386 O.2       2 RES2    0.0000
     11 O11        5.1254    1.3023    8.0532 O.2       2 RES2    0.0000
     12 O12        6.6976    1.0143    6.6287 O.2       2 RES2    0.0000
     13 N1        -0.6255    4.5391    9.2342 N.pl3     1 RES1    0.0000
     14 N2        -0.5981    4.9502    4.0418 N.2       1 RES1    0.0000
     15 N3        -0.7376    2.7642    2.0424 N.3       1 RES1    0.0000
     16 N4        -0.4703    0.5564    1.6438 N.3       1 RES1    0.0000
     17 N5         0.2666   -2.0953    2.8191 N.2       1 RES1    0.0000
     18 N6         0.1416   -2.5659    7.9397 N.pl3     1 RES1    0.0000
     19 N7        -1.6997    0.9057    6.7910 N.pl3     1 RES1    0.0000
     20 N8         6.3915    4.3951    8.9906 N.pl3     2 RES2    0.0000
     21 N9         5.5590    5.0963    3.9127 N.2       2 RES2    0.0000
     22 N10        5.1902    2.8414    2.0922 N.3       2 RES2    0.0000
     23 N11        5.4155    0.6167    1.6564 N.3       2 RES2    0.0000
     24 N12        6.3286   -2.0567    2.5521 N.2       2 RES2    0.0000
     25 N13        7.3144   -2.5043    7.5968 N.pl3     2 RES2    0.0000
     26 N14        5.5184    1.1196    6.9115 N.pl3     2 RES2    0.0000
     27 C1        -0.0297    4.5683    6.8594 C.ar      1 RES1    0.0000
     28 H1        -0.9206    4.8260    6.6572 H         1 RES1    0.0000
     29 C2         0.3472    4.3513    8.1625 C.ar      1 RES1    0.0000
     30 C3         1.6248    3.9589    8.4990 C.ar      1 RES1    0.0000
     31 H2         1.8646    3.8076    9.4047 H         1 RES1    0.0000
     32 C4         2.5462    3.7920    7.4855 C.ar      1 RES1    0.0000
     33 H3         3.4316    3.5165    7.6941 H         1 RES1    0.0000
     34 C5         2.1923    4.0215    6.1759 C.ar      1 RES1    0.0000
     35 H4         2.8429    3.9141    5.4911 H         1 RES1    0.0000
     36 C6         0.9033    4.4076    5.8363 C.ar      1 RES1    0.0000
     37 C7         0.5665    4.6612    4.4328 C.2       1 RES1    0.0000
     38 H5         1.2592    4.6059    3.7843 H         1 RES1    0.0000
     39 C8        -0.7854    5.1589    2.6100 C.3       1 RES1    0.0000
     40 H6         0.0957    5.2612    2.1721 H         1 RES1    0.0000
     41 H7        -1.3018    5.9906    2.4598 H         1 RES1    0.0000
     42 C9        -1.5258    3.9829    1.9960 C.3       1 RES1    0.0000
     43 H8        -2.3751    3.8410    2.4849 H         1 RES1    0.0000
     44 H9        -1.7476    4.1927    1.0542 H         1 RES1    0.0000
     45 C10        0.3692    2.6744    1.0729 C.3       1 RES1    0.0000
     46 H10        1.2290    2.9217    1.4944 H         1 RES1    0.0000
     47 H11        0.2091    3.2692    0.2973 H         1 RES1    0.0000
     48 C11        0.3723    1.2167    0.6470 C.3       1 RES1    0.0000
     49 H12       -0.0066    1.1123   -0.2626 H         1 RES1    0.0000
     50 H13        1.2901    0.8463    0.6584 H         1 RES1    0.0000
     51 C12       -0.9831   -0.7440    1.2326 C.3       1 RES1    0.0000
     52 H14       -1.2574   -0.7002    0.2819 H         1 RES1    0.0000
     53 H15       -1.7854   -0.9621    1.7705 H         1 RES1    0.0000
     54 C13        0.0409   -1.8407    1.4025 C.3       1 RES1    0.0000
     55 H16       -0.2792   -2.6682    0.9615 H         1 RES1    0.0000
     56 H17        0.8920   -1.5725    0.9731 H         1 RES1    0.0000
     57 C14        1.4549   -2.2883    3.2000 C.2       1 RES1    0.0000
     58 H18        2.1518   -2.2716    2.5563 H         1 RES1    0.0000
     59 C15        1.7933   -2.5377    4.6079 C.ar      1 RES1    0.0000
     60 C16        3.0914   -2.8560    4.9709 C.ar      1 RES1    0.0000
     61 H19        3.7645   -2.9207    4.3037 H         1 RES1    0.0000
     62 C17        3.4184   -3.0782    6.2981 C.ar      1 RES1    0.0000
     63 H20        4.3116   -3.3005    6.5298 H         1 RES1    0.0000
     64 C18        2.4647   -2.9812    7.2851 C.ar      1 RES1    0.0000
     65 H21        2.6858   -3.1356    8.1961 H         1 RES1    0.0000
     66 C19        1.1712   -2.6515    6.9086 C.ar      1 RES1    0.0000
     67 C20        0.8180   -2.4375    5.6015 C.ar      1 RES1    0.0000
     68 H22       -0.0791   -2.2247    5.3752 H         1 RES1    0.0000
     69 C21       -1.5064    1.5422    1.8923 C.3       1 RES1    0.0000
     70 H23       -2.1135    1.6122    1.1005 H         1 RES1    0.0000
     71 C22       -2.3078    1.2449    3.1408 C.ar      1 RES1    0.0000
     72 C23       -3.6764    1.0424    3.1008 C.ar      1 RES1    0.0000
     73 H24       -4.1311    1.0831    2.2686 H         1 RES1    0.0000
     74 C24       -4.3981    0.7795    4.2612 C.ar      1 RES1    0.0000
     75 H25       -5.3360    0.6396    4.2168 H         1 RES1    0.0000
     76 C25       -3.7500    0.7221    5.4679 C.ar      1 RES1    0.0000
     77 H26       -4.2311    0.5499    6.2692 H         1 RES1    0.0000
     78 C26       -2.3931    0.9203    5.4953 C.ar      1 RES1    0.0000
     79 C27       -1.6533    1.1729    4.3596 C.ar      1 RES1    0.0000
     80 H27       -0.7119    1.2949    4.4118 H         1 RES1    0.0000
     81 C28        6.5917    4.5767    6.5570 C.ar      2 RES2    0.0000
     82 H28        5.6676    4.7927    6.5163 H         2 RES2    0.0000
     83 C29        7.2024    4.3241    7.7640 C.ar      2 RES2    0.0000
     84 C30        8.5362    4.0028    7.8769 C.ar      2 RES2    0.0000
     85 H29        8.9279    3.8431    8.7270 H         2 RES2    0.0000
     86 C31        9.2892    3.9214    6.7248 C.ar      2 RES2    0.0000
     87 H30       10.2098    3.6908    6.7750 H         2 RES2    0.0000
     88 C32        8.7031    4.1728    5.4934 C.ar      2 RES2    0.0000
     89 H31        9.2318    4.1144    4.7053 H         2 RES2    0.0000
     90 C33        7.3630    4.5099    5.3901 C.ar      2 RES2    0.0000
     91 C34        6.7661    4.7822    4.0702 C.2       2 RES2    0.0000
     92 H32        7.3207    4.7165    3.3016 H         2 RES2    0.0000
     93 C35        5.1175    5.2560    2.5339 C.3       2 RES2    0.0000
     94 H33        5.9029    5.3864    1.9443 H         2 RES2    0.0000
     95 H34        4.5380    6.0553    2.4579 H         2 RES2    0.0000
     96 C36        4.3499    4.0226    2.1007 C.3       2 RES2    0.0000
     97 H35        3.5885    3.8786    2.7185 H         2 RES2    0.0000
     98 H36        3.9825    4.1687    1.1932 H         2 RES2    0.0000
     99 C37        6.1564    2.7443    0.9843 C.3       2 RES2    0.0000
    100 H37        7.0653    2.9906    1.2897 H         2 RES2    0.0000
    101 H38        5.8974    3.3412    0.2375 H         2 RES2    0.0000
    102 C38        6.1074    1.2908    0.5530 C.3       2 RES2    0.0000
    103 H39        5.6054    1.1896   -0.2935 H         2 RES2    0.0000
    104 H40        7.0207    0.9266    0.4325 H         2 RES2    0.0000
    105 C39        4.8063   -0.6501    1.2855 C.3       2 RES2    0.0000
    106 H41        4.3706   -0.5551    0.4016 H         2 RES2    0.0000
    107 H42        4.1054   -0.8796    1.9462 H         2 RES2    0.0000
    108 C40        5.8098   -1.7687    1.2231 C.3       2 RES2    0.0000
    109 H43        5.3810   -2.5795    0.8515 H         2 RES2    0.0000
    110 H44        6.5561   -1.5130    0.6236 H         2 RES2    0.0000
    111 C41        7.5746   -2.1673    2.6915 C.2       2 RES2    0.0000
    112 H45        8.1283   -2.0640    1.9269 H         2 RES2    0.0000
    113 C42        8.2089   -2.4459    3.9837 C.ar      2 RES2    0.0000
    114 C43        9.5482   -2.8028    4.0623 C.ar      2 RES2    0.0000
    115 H46       10.0591   -2.8675    3.2649 H         2 RES2    0.0000
    116 C44       10.1535   -3.0647    5.2748 C.ar      2 RES2    0.0000
    117 H47       11.0689   -3.3151    5.3019 H         2 RES2    0.0000
    118 C45        9.4312   -2.9635    6.4433 C.ar      2 RES2    0.0000
    119 H48        9.8371   -3.1356    7.2847 H         2 RES2    0.0000
    120 C46        8.1006   -2.6045    6.3564 C.ar      2 RES2    0.0000
    121 C47        7.4715   -2.3457    5.1654 C.ar      2 RES2    0.0000
    122 H49        6.5521   -2.1047    5.1435 H         2 RES2    0.0000
    123 C48        4.4349    1.5944    2.1304 C.3       2 RES2    0.0000
    124 H50        3.6538    1.6382    1.5079 H         2 RES2    0.0000
    125 C49        3.9767    1.2814    3.5277 C.ar      2 RES2    0.0000
    126 C50        2.6687    0.9694    3.8426 C.ar      2 RES2    0.0000
    127 H51        2.0176    0.9433    3.1510 H         2 RES2    0.0000
    128 C51        2.2869    0.6908    5.1495 C.ar      2 RES2    0.0000
    129 H52        1.3816    0.4769    5.3424 H         2 RES2    0.0000
    130 C52        3.2145    0.7252    6.1634 C.ar      2 RES2    0.0000
    131 H53        2.9613    0.5447    7.0608 H         2 RES2    0.0000
    132 C53        4.5235    1.0299    5.8442 C.ar      2 RES2    0.0000
    133 C54        4.9231    1.3033    4.5525 C.ar      2 RES2    0.0000
    134 H54        5.8314    1.5047    4.3635 H         2 RES2    0.0000
@<TRIPOS>BOND
     1    1   13 2
     2    2   13 2
     3    3   18 2
     4    4   18 2
     5    5   19 2
     6    6   19 2
     7    7   20 2
     8    8   20 2
     9    9   25 2
    10   10   25 2
    11   11   26 2
    12   12   26 2
    13   13   29 1
    14   14   37 2
    15   15   42 1
    16   16   48 1
    17   17   54 1
    18   18   66 1
    19   19   78 1
    20   20   83 1
    21   21   91 2
    22   22   96 1
    23   23  102 1
    24   24  108 1
    25   25  120 1
    26   26  132 1
    27   27   28 1
    28   29   27 ar
    29   30   29 ar
    30   31   30 1
    31   32   30 ar
    32   33   32 1
    33   34   32 ar
    34   35   34 1
    35   36   27 ar
    36   37   36 1
    37   38   37 1
    38   39   14 1
    39   40   39 1
    40   41   39 1
    41   42   39 1
    42   43   42 1
    43   44   42 1
    44   45   15 1
    45   46   45 1
    46   47   45 1
    47   48   45 1
    48   49   48 1
    49   50   48 1
    50   51   16 1
    51   52   51 1
    52   53   51 1
    53   54   51 1
    54   55   54 1
    55   56   54 1
    56   57   17 2
    57   58   57 1
    58   59   57 1
    59   60   59 ar
    60   61   60 1
    61   62   60 ar
    62   63   62 1
    63   64   62 ar
    64   65   64 1
    65   66   64 ar
    66   67   59 ar
    67   68   67 1
    68   69   15 1
    69   70   69 1
    70   71   69 1
    71   72   71 ar
    72   73   72 1
    73   74   72 ar
    74   75   74 1
    75   76   74 ar
    76   77   76 1
    77   78   76 ar
    78   79   71 ar
    79   80   79 1
    80   81   82 1
    81   83   81 ar
    82   84   83 ar
    83   85   84 1
    84   86   84 ar
    85   87   86 1
    86   88   86 ar
    87   89   88 1
    88   90   81 ar
    89   91   90 1
    90   92   91 1
    91   93   21 1
    92   94   93 1
    93   95   93 1
    94   96   93 1
    95   97   96 1
    96   98   96 1
    97   99   22 1
    98  100   99 1
    99  101   99 1
   100  102   99 1
   101  103  102 1
   102  104  102 1
   103  105   23 1
   104  106  105 1
   105  107  105 1
   106  108  105 1
   107  109  108 1
   108  110  108 1
   109  111   24 2
   110  112  111 1
   111  113  111 1
   112  114  113 ar
   113  115  114 1
   114  116  114 ar
   115  117  116 1
   116  118  116 ar
   117  119  118 1
   118  120  118 ar
   119  121  113 ar
   120  122  121 1
   121  123   22 1
   122  124  123 1
   123  125  123 1
   124  126  125 ar
   125  127  126 1
   126  128  126 ar
   127  129  128 1
   128  130  128 ar
   129  131  130 1
   130  132  130 ar
   131  133  125 ar
   132  134  133 1
   133   16   69 1
   134   23  123 1
   135   34   36 ar
   136   66   67 ar
   137   78   79 ar
   138   88   90 ar
   139  120  121 ar
   140  132  133 ar
@<TRIPOS>SUBSTRUCTURE
     1 RES1 1
     2 RES2 7

