# MOL2 file generated by ConQuest
# Please check atom types

@<TRIPOS>MOLECULE
PUJBEC
    43    45     1
SMALL
NO_CHARGES
****
Generated from CSD

@<TRIPOS>ATOM
      1 O1        -4.2643    3.3636    7.7882 O.3       1 RES1    0.0000
      2 C1        -4.0481    3.8697    9.0477 C.2       1 RES1    0.0000
      3 O2        -5.0033    4.3441    9.6018 O.2       1 RES1    0.0000
      4 C2        -2.6913    3.7713    9.5880 C.2       1 RES1    0.0000
      5 C3        -1.7355    3.1455    8.8696 C.2       1 RES1    0.0000
      6 H1        -0.8772    3.0788    9.2208 H         1 RES1    0.0000
      7 C4        -1.0554    1.9232    6.7958 C.ar      1 RES1    0.0000
      8 H2        -0.1889    1.8095    7.1135 H         1 RES1    0.0000
      9 C5        -1.3885    1.4448    5.5613 C.ar      1 RES1    0.0000
     10 H3        -0.7546    0.9994    5.0472 H         1 RES1    0.0000
     11 C6        -2.6785    1.6256    5.0756 C.ar      1 RES1    0.0000
     12 O3        -2.8955    1.1846    3.7733 O.3       1 RES1    0.0000
     13 C7        -4.0386    0.5198    3.4438 C.2       1 RES1    0.0000
     14 O4        -4.8906    0.2598    4.2321 O.2       1 RES1    0.0000
     15 C8        -4.0272    0.1854    1.9980 C.3       1 RES1    0.0000
     16 H4        -4.8417   -0.2681    1.7694 H         1 RES1    0.0000
     17 H5        -3.2790   -0.3848    1.8079 H         1 RES1    0.0000
     18 H6        -3.9545    0.9919    1.4836 H         1 RES1    0.0000
     19 C9        -3.6373    2.2741    5.8124 C.ar      1 RES1    0.0000
     20 H7        -4.4964    2.3990    5.4796 H         1 RES1    0.0000
     21 C10       -3.2860    2.7338    7.0603 C.ar      1 RES1    0.0000
     22 C11       -2.0030    2.5854    7.5895 C.ar      1 RES1    0.0000
     23 C12       -2.4098    4.3815   10.9058 C.2       1 RES1    0.0000
     24 C13       -3.0167    5.6897   11.2962 C.3       1 RES1    0.0000
     25 H8        -2.4009    6.1758   11.8488 H         1 RES1    0.0000
     26 H9        -3.8287    5.5325   11.7842 H         1 RES1    0.0000
     27 H10       -3.2109    6.2012   10.5069 H         1 RES1    0.0000
     28 N1        -1.5635    3.7175   11.6055 N.2       1 RES1    0.0000
     29 O5        -1.2562    4.4035   12.7981 O.3       1 RES1    0.0000
     30 C14       -0.2640    3.6243   13.5063 C.3       1 RES1    0.0000
     31 H11        0.5527    3.5608   12.9869 H         1 RES1    0.0000
     32 H12       -0.5937    2.7279   13.6753 H         1 RES1    0.0000
     33 C15       -0.0123    4.3375   14.7880 C.ar      1 RES1    0.0000
     34 C16       -0.9520    4.4220   15.7606 C.ar      1 RES1    0.0000
     35 H13       -1.7753    4.0123   15.6224 H         1 RES1    0.0000
     36 C17       -0.7420    5.0731   16.9208 C.ar      1 RES1    0.0000
     37 H14       -1.4089    5.0990   17.5682 H         1 RES1    0.0000
     38 C18        0.4297    5.6861   17.1407 C.ar      1 RES1    0.0000
     39 H15        0.5596    6.1461   17.9384 H         1 RES1    0.0000
     40 C19        1.4300    5.6505   16.2250 C.ar      1 RES1    0.0000
     41 H16        2.2393    6.0764   16.3940 H         1 RES1    0.0000
     42 C20        1.2259    4.9636   15.0247 C.ar      1 RES1    0.0000
     43 H17        1.9026    4.9219   14.3873 H         1 RES1    0.0000
@<TRIPOS>BOND
     1    1    2 1
     2    2    3 2
     3    4    2 1
     4    5    4 2
     5    6    5 1
     6    7    8 1
     7    9    7 ar
     8   10    9 1
     9   11    9 ar
    10   12   11 1
    11   13   12 1
    12   14   13 2
    13   15   13 1
    14   16   15 1
    15   17   15 1
    16   18   15 1
    17   19   11 ar
    18   20   19 1
    19   21    1 1
    20   22    5 1
    21   23    4 1
    22   24   23 1
    23   25   24 1
    24   26   24 1
    25   27   24 1
    26   28   23 2
    27   29   28 1
    28   30   29 1
    29   31   30 1
    30   32   30 1
    31   33   30 1
    32   34   33 ar
    33   35   34 1
    34   36   34 ar
    35   37   36 1
    36   38   36 ar
    37   39   38 1
    38   40   38 ar
    39   41   40 1
    40   42   33 ar
    41   43   42 1
    42    7   22 ar
    43   19   21 ar
    44   21   22 ar
    45   40   42 ar
@<TRIPOS>SUBSTRUCTURE
     1 RES1 1

@<TRIPOS>CRYSIN
   6.3901   11.2413   12.9298 102.6430  96.9230 101.8600   2 1

