# MOL2 file generated by ConQuest
# Please check atom types

@<TRIPOS>MOLECULE
PUJDUU
   241   238     5
SMALL
NO_CHARGES
****
Generated from CSD

@<TRIPOS>ATOM
      1 N1        -5.0903   -5.4215    2.6764 N.2       1 RES1    0.0000
      2 O1        -0.5818   -2.2865    1.7987 O.3       1 RES1    0.0000
      3 O2        -5.0332   -6.6343    2.5182 O.2       1 RES1    0.0000
      4 O3        -6.1255   -4.8458    3.0074 O.2       1 RES1    0.0000
      5 C1         0.6368   -2.8348    1.2375 C.3       1 RES1    0.0000
      6 H1         0.4531   -3.2521    0.3597 H         1 RES1    0.0000
      7 H2         1.0215   -3.5131    1.8404 H         1 RES1    0.0000
      8 C2         1.5830   -1.6679    1.0792 C.3       1 RES1    0.0000
      9 H3         1.7414   -1.2528    1.9584 H         1 RES1    0.0000
     10 H4         1.1748   -0.9925    0.4849 H         1 RES1    0.0000
     11 C3         2.9281   -2.0859    0.4892 C.3       1 RES1    0.0000
     12 H5         2.7755   -2.6304   -0.3281 H         1 RES1    0.0000
     13 H6         3.4131   -2.6498    1.1396 H         1 RES1    0.0000
     14 C4         3.7935   -0.8769    0.1295 C.3       1 RES1    0.0000
     15 H7         4.4678   -1.1967   -0.5238 Du        5 SUP5    0.0000
     16 H8         3.2072   -0.2472   -0.3612 H         1 RES1    0.0000
     17 C5         4.4882   -0.1153    1.0792 C.3       1 RES1    0.0000
     18 H9         5.1388   -0.7163    1.5296 H         1 RES1    0.0000
     19 H10        3.8275    0.1677    1.7598 H         1 RES1    0.0000
     20 C6        -1.6366   -3.1194    1.9857 C.2       1 RES1    0.0000
     21 C7        -2.7887   -2.5278    2.5182 C.2       1 RES1    0.0000
     22 H11       -2.7880   -1.5897    2.7095 H         1 RES1    0.0000
     23 C8        -3.9064   -3.2661    2.7484 C.2       1 RES1    0.0000
     24 H12       -4.6903   -2.8534    3.1124 H         1 RES1    0.0000
     25 C9        -3.9002   -4.6178    2.4606 C.2       1 RES1    0.0000
     26 C10       -2.7661   -5.2311    1.9426 C.2       1 RES1    0.0000
     27 H13       -2.7717   -6.1561    1.7541 H         1 RES1    0.0000
     28 C11       -1.6406   -4.4711    1.6980 C.2       1 RES1    0.0000
     29 H14       -0.8686   -4.8895    1.3397 H         1 RES1    0.0000
     30 N2        -2.2048    2.0910    3.0937 N.pl3     2 RES2    0.0000
     31 O4         2.9076    3.5230    1.5253 O.3       2 RES2    0.0000
     32 O5        -3.0151    2.9640    3.4103 O.2       2 RES2    0.0000
     33 O6        -2.4963    0.9084    3.1081 O.2       2 RES2    0.0000
     34 C12        3.4267    4.8658    1.5972 C.3       2 RES2    0.0000
     35 H15        3.3729    5.2058    2.5196 H         2 RES2    0.0000
     36 H16        2.9062    5.4686    1.0029 H         2 RES2    0.0000
     37 C13        4.8643    4.7898    1.1368 C.3       2 RES2    0.0000
     38 H17        5.3817    4.2608    1.7958 H         2 RES2    0.0000
     39 H18        4.9009    4.3023    0.2720 H         2 RES2    0.0000
     40 C14        5.5279    6.1235    0.9641 C.3       2 RES2    0.0000
     41 H19        5.5164    6.6117    1.8246 H         2 RES2    0.0000
     42 H20        5.0171    6.6627    0.3051 H         2 RES2    0.0000
     43 C15        6.9822    6.0038    0.4749 C.3       2 RES2    0.0000
     44 H21        7.4975    5.4937    1.1512 H         2 RES2    0.0000
     45 H22        6.9948    5.4896   -0.3655 H         2 RES2    0.0000
     46 C16        7.6817    7.3225    0.2446 C.3       2 RES2    0.0000
     47 H23        7.6815    7.8411    1.0936 H         2 RES2    0.0000
     48 H24        7.1600    7.8479   -0.4187 H         2 RES2    0.0000
     49 C17        1.6382    3.2792    1.8994 C.ar      2 RES2    0.0000
     50 C18        1.2580    1.9509    1.8275 C.ar      2 RES2    0.0000
     51 H25        1.8723    1.3085    1.4994 H         2 RES2    0.0000
     52 C19        0.0165    1.5402    2.2160 C.ar      2 RES2    0.0000
     53 H26       -0.2364    0.6264    2.1714 H         2 RES2    0.0000
     54 C20       -0.8705    2.5088    2.6908 C.ar      2 RES2    0.0000
     55 C21       -0.5310    3.8370    2.7628 C.ar      2 RES2    0.0000
     56 H27       -1.1659    4.4735    3.0793 H         2 RES2    0.0000
     57 C22        0.7410    4.2477    2.3743 C.ar      2 RES2    0.0000
     58 H28        0.9903    5.1651    2.4174 H         2 RES2    0.0000
     59 N3         0.8617   -7.6454    4.1154 N.pl3     3 RES3    0.0000
     60 O7        -1.5960   -2.9320    5.6982 O.3       3 RES3    0.0000
     61 O8         2.0322   -7.6191    3.7413 O.2       3 RES3    0.0000
     62 O9         0.1943   -8.6607    4.1729 O.2       3 RES3    0.0000
     63 C23       -0.9559   -1.6410    5.6407 C.3       3 RES3    0.0000
     64 H29       -0.6949   -1.4150    4.7154 H         3 RES3    0.0000
     65 H30       -0.1449   -1.6316    6.2119 H         3 RES3    0.0000
     66 C24       -1.9728   -0.6359    6.1587 C.3       3 RES3    0.0000
     67 H31       -2.3099   -0.9514    7.0422 H         3 RES3    0.0000
     68 H32       -2.7455   -0.6151    5.5385 H         3 RES3    0.0000
     69 C25       -1.3998    0.7582    6.3026 C.3       3 RES3    0.0000
     70 H33       -1.0423    1.0550    5.4363 H         3 RES3    0.0000
     71 H34       -0.6553    0.7370    6.9559 H         3 RES3    0.0000
     72 C26       -2.4449    1.7777    6.7918 C.3       3 RES3    0.0000
     73 H35       -3.1950    1.7996    6.1400 H         3 RES3    0.0000
     74 H36       -2.8100    1.4816    7.6595 H         3 RES3    0.0000
     75 C27       -1.8856    3.1863    6.9357 C.3       3 RES3    0.0000
     76 H37       -1.5469    3.4852    6.0594 H         3 RES3    0.0000
     77 H38       -1.1197    3.1525    7.5645 H         3 RES3    0.0000
     78 C28       -0.9217   -4.0236    5.2665 C.ar      3 RES3    0.0000
     79 C29       -1.6606   -5.1914    5.3097 C.ar      3 RES3    0.0000
     80 H39       -2.5590   -5.1790    5.5975 H         3 RES3    0.0000
     81 C30       -1.0804   -6.3914    4.9212 C.ar      3 RES3    0.0000
     82 H40       -1.5655   -7.2066    4.9557 H         3 RES3    0.0000
     83 C31        0.2254   -6.3585    4.4751 C.ar      3 RES3    0.0000
     84 C32        0.9726   -5.2125    4.4176 C.ar      3 RES3    0.0000
     85 H41        1.8697   -5.2381    4.1125 H         3 RES3    0.0000
     86 C33        0.3925   -4.0125    4.8061 C.ar      3 RES3    0.0000
     87 H42        0.8775   -3.1959    4.7600 H         3 RES3    0.0000
     88 N4         3.3334   -0.3222    4.4463 N.2       4 RES4    0.0000
     89 O10        2.9433    5.1412    5.4248 O.3       4 RES4    0.0000
     90 O11        2.3410   -1.0179    4.5615 O.2       4 RES4    0.0000
     91 O12        4.4291   -0.7601    4.1010 O.2       4 RES4    0.0000
     92 C34        1.7129    5.7396    5.8853 C.3       4 RES4    0.0000
     93 H43        1.4589    5.3522    6.7674 H         4 RES4    0.0000
     94 H44        0.9826    5.5599    5.2450 H         4 RES4    0.0000
     95 C35        1.9841    7.2134    6.0148 C.3       4 RES4    0.0000
     96 H45        2.7196    7.3727    6.6494 H         4 RES4    0.0000
     97 H46        2.2622    7.5768    5.1284 H         4 RES4    0.0000
     98 C36        0.7448    7.9714    6.4753 C.3       4 RES4    0.0000
     99 H47        0.4834    7.6400    7.3760 H         4 RES4    0.0000
    100 H48       -0.0035    7.7919    5.8580 H         4 RES4    0.0000
    101 C37        0.9904    9.4738    6.5472 C.3       4 RES4    0.0000
    102 H49        1.7912    9.6348    7.1199 Du        5 SUP5    0.0000
    103 H50        1.2168    9.7993    5.6407 H         4 RES4    0.0000
    104 C38       -0.0154   10.2394    7.0508 C.3       4 RES4    0.0000
    105 H51       -0.1561   10.0252    7.9962 H         4 RES4    0.0000
    106 H52       -0.8628    9.9789    6.5616 Du        5 SUP5    0.0000
    107 C39        2.9710    3.7830    5.2378 C.2       4 RES4    0.0000
    108 C40        4.1771    3.2786    4.7341 C.2       4 RES4    0.0000
    109 H53        4.9087    3.8701    4.5571 H         4 RES4    0.0000
    110 C41        4.2959    1.9417    4.4751 C.2       4 RES4    0.0000
    111 H54        5.1064    1.5858    4.1312 H         4 RES4    0.0000
    112 C42        3.2278    1.1020    4.7341 C.2       4 RES4    0.0000
    113 C43        2.0343    1.5847    5.2522 C.2       4 RES4    0.0000
    114 H55        1.3146    0.9998    5.4277 H         4 RES4    0.0000
    115 C44        1.9030    2.9433    5.4968 C.2       4 RES4    0.0000
    116 H56        1.0969    3.2819    5.8493 H         4 RES4    0.0000
    117 C45        4.9700   -1.0926   -0.5756 C.2       1 RES1    0.0000
    118 C46        1.6682   10.0685    7.4825 C.2       4 RES4    0.0000
    119 H57        3.2513   -0.2739   -0.4389 Du        5 SUP5    0.0000
    120 H58        3.9965   -0.3904    0.9641 Du        5 SUP5    0.0000
    121 H59        1.4736    9.7237    5.7198 Du        5 SUP5    0.0000
    122 H60        0.1072    9.9139    6.5026 Du        5 SUP5    0.0000
    123 H61        4.8106   -1.7090   -1.3037 Du        5 SUP5    0.0000
    124 H62        5.6058   -1.6058    0.0777 Du        5 SUP5    0.0000
    125 H63        2.5376    9.6379    7.6365 Du        5 SUP5    0.0000
    126 H64        1.1518    9.8961    8.3876 Du        5 SUP5    0.0000
    127 N1A       15.2709    5.4215   -2.6764 N.2       1 RES1    0.0000
    128 O1A       10.7624    2.2865   -1.7987 O.3       1 RES1    0.0000
    129 O2A       15.2138    6.6343   -2.5182 O.2       1 RES1    0.0000
    130 O3A       16.3061    4.8458   -3.0074 O.2       1 RES1    0.0000
    131 C1A        9.5438    2.8348   -1.2375 C.3       1 RES1    0.0000
    132 H1A        9.7275    3.2521   -0.3597 H         1 RES1    0.0000
    133 H2A        9.1591    3.5131   -1.8404 H         1 RES1    0.0000
    134 C2A        8.5976    1.6679   -1.0792 C.3       1 RES1    0.0000
    135 H3A        8.4392    1.2528   -1.9584 H         1 RES1    0.0000
    136 H4A        9.0058    0.9925   -0.4849 H         1 RES1    0.0000
    137 C3A        7.2525    2.0859   -0.4892 C.3       1 RES1    0.0000
    138 H5A        7.4051    2.6304    0.3281 H         1 RES1    0.0000
    139 H6A        6.7675    2.6498   -1.1396 H         1 RES1    0.0000
    140 C4A        6.3871    0.8769   -0.1295 C.3       1 RES1    0.0000
    141 H8A        6.9734    0.2472    0.3612 H         1 RES1    0.0000
    142 C5A        5.6924    0.1153   -1.0792 C.3       1 RES1    0.0000
    143 H9A        5.0418    0.7163   -1.5296 H         1 RES1    0.0000
    144 H10A       6.3531   -0.1677   -1.7598 H         1 RES1    0.0000
    145 C6A       11.8172    3.1194   -1.9857 C.2       1 RES1    0.0000
    146 C7A       12.9693    2.5278   -2.5182 C.2       1 RES1    0.0000
    147 H11A      12.9686    1.5897   -2.7095 H         1 RES1    0.0000
    148 C8A       14.0870    3.2661   -2.7484 C.2       1 RES1    0.0000
    149 H12A      14.8709    2.8534   -3.1124 H         1 RES1    0.0000
    150 C9A       14.0808    4.6178   -2.4606 C.2       1 RES1    0.0000
    151 C10A      12.9467    5.2311   -1.9426 C.2       1 RES1    0.0000
    152 H13A      12.9523    6.1561   -1.7541 H         1 RES1    0.0000
    153 C11A      11.8212    4.4711   -1.6980 C.2       1 RES1    0.0000
    154 H14A      11.0492    4.8895   -1.3397 H         1 RES1    0.0000
    155 N2A       18.9854   12.4198   -3.0937 N.pl3     2 RES2    0.0000
    156 O4A       13.8730   10.9877   -1.5253 O.3       2 RES2    0.0000
    157 O5A       19.7958   11.5468   -3.4103 O.2       2 RES2    0.0000
    158 O6A       19.2769   13.6023   -3.1081 O.2       2 RES2    0.0000
    159 C12A      13.3539    9.6450   -1.5972 C.3       2 RES2    0.0000
    160 H15A      13.4077    9.3050   -2.5196 H         2 RES2    0.0000
    161 H16A      13.8744    9.0421   -1.0029 H         2 RES2    0.0000
    162 C13A      11.9164    9.7210   -1.1368 C.3       2 RES2    0.0000
    163 H17A      11.3989   10.2500   -1.7958 H         2 RES2    0.0000
    164 H18A      11.8797   10.2085   -0.2720 H         2 RES2    0.0000
    165 C14A      11.2527    8.3873   -0.9641 C.3       2 RES2    0.0000
    166 H19A      11.2642    7.8991   -1.8246 H         2 RES2    0.0000
    167 H20A      11.7635    7.8480   -0.3051 H         2 RES2    0.0000
    168 C15A       9.7985    8.5070   -0.4749 C.3       2 RES2    0.0000
    169 H21A       9.2832    9.0171   -1.1512 H         2 RES2    0.0000
    170 H22A       9.7858    9.0212    0.3655 H         2 RES2    0.0000
    171 C16A       9.0989    7.1883   -0.2446 C.3       2 RES2    0.0000
    172 H23A       9.0992    6.6697   -1.0936 H         2 RES2    0.0000
    173 H24A       9.6206    6.6629    0.4187 H         2 RES2    0.0000
    174 C17A      15.1425   11.2316   -1.8994 C.ar      2 RES2    0.0000
    175 C18A      15.5226   12.5599   -1.8275 C.ar      2 RES2    0.0000
    176 H25A      14.9084   13.2023   -1.4994 H         2 RES2    0.0000
    177 C19A      16.7641   12.9705   -2.2160 C.ar      2 RES2    0.0000
    178 H26A      17.0171   13.8843   -2.1714 H         2 RES2    0.0000
    179 C20A      17.6511   12.0020   -2.6908 C.ar      2 RES2    0.0000
    180 C21A      17.3117   10.6737   -2.7628 C.ar      2 RES2    0.0000
    181 H27A      17.9466   10.0372   -3.0793 H         2 RES2    0.0000
    182 C22A      16.0397   10.2631   -2.3743 C.ar      2 RES2    0.0000
    183 H28A      15.7904    9.3457   -2.4174 H         2 RES2    0.0000
    184 N3A       -5.6566   15.0086   10.2741 N.pl3     3 RES3    0.0000
    185 O7A       -3.1988   10.2952    8.6912 O.3       3 RES3    0.0000
    186 O8A       -6.8271   14.9823   10.6482 O.2       3 RES3    0.0000
    187 O9A       -4.9891   16.0239   10.2165 O.2       3 RES3    0.0000
    188 C23A      -3.8390    9.0042    8.7488 C.3       3 RES3    0.0000
    189 H29A      -4.0999    8.7782    9.6740 H         3 RES3    0.0000
    190 H30A      -4.6500    8.9948    8.1775 H         3 RES3    0.0000
    191 C24A      -2.8220    7.9991    8.2308 C.3       3 RES3    0.0000
    192 H31A      -2.4849    8.3146    7.3473 H         3 RES3    0.0000
    193 H32A      -2.0494    7.9783    8.8510 H         3 RES3    0.0000
    194 C25A      -3.3950    6.6049    8.0869 C.3       3 RES3    0.0000
    195 H33A      -3.7525    6.3082    8.9531 H         3 RES3    0.0000
    196 H34A      -4.1396    6.6262    7.4336 H         3 RES3    0.0000
    197 C26A      -2.3500    5.5855    7.5976 C.3       3 RES3    0.0000
    198 H35A      -1.5998    5.5636    8.2495 H         3 RES3    0.0000
    199 H36A      -1.9848    5.8816    6.7300 H         3 RES3    0.0000
    200 C27A      -2.9092    4.1769    7.4537 C.3       3 RES3    0.0000
    201 H37A      -3.2479    3.8780    8.3301 H         3 RES3    0.0000
    202 H38A      -3.6751    4.2106    6.8249 H         3 RES3    0.0000
    203 C28A      -3.8731   11.3867    9.1229 C.ar      3 RES3    0.0000
    204 C29A      -3.1343   12.5545    9.0798 C.ar      3 RES3    0.0000
    205 H39A      -2.2358   12.5422    8.7920 H         3 RES3    0.0000
    206 C30A      -3.7144   13.7546    9.4683 C.ar      3 RES3    0.0000
    207 H40A      -3.2294   14.5698    9.4337 H         3 RES3    0.0000
    208 C31A      -5.0203   13.7217    9.9143 C.ar      3 RES3    0.0000
    209 C32A      -5.7675   12.5757    9.9719 C.ar      3 RES3    0.0000
    210 H41A      -6.6646   12.6012   10.2770 H         3 RES3    0.0000
    211 C33A      -5.1873   11.3757    9.5834 C.ar      3 RES3    0.0000
    212 H42A      -5.6724   10.5591    9.6294 H         3 RES3    0.0000
    213 N4A       -1.5282   22.1962    9.9431 N.2       4 RES4    0.0000
    214 O10A      -1.1382   16.7328    8.9646 O.3       4 RES4    0.0000
    215 O11A      -0.5358   22.8918    9.8280 O.2       4 RES4    0.0000
    216 O12A      -2.6240   22.6341   10.2885 O.2       4 RES4    0.0000
    217 C34A       0.0923   16.1344    8.5042 C.3       4 RES4    0.0000
    218 H43A       0.3462   16.5217    7.6221 H         4 RES4    0.0000
    219 H44A       0.8225   16.3140    9.1445 H         4 RES4    0.0000
    220 C35A      -0.1790   14.6606    8.3747 C.3       4 RES4    0.0000
    221 H45A      -0.9144   14.5013    7.7401 H         4 RES4    0.0000
    222 H46A      -0.4570   14.2972    9.2611 H         4 RES4    0.0000
    223 C36A       1.0603   13.9026    7.9142 C.3       4 RES4    0.0000
    224 H47A       1.3218   14.2339    7.0134 H         4 RES4    0.0000
    225 H48A       1.8086   14.0820    8.5315 H         4 RES4    0.0000
    226 C37A       0.8148   12.4002    7.8423 C.3       4 RES4    0.0000
    227 H50A       0.5884   12.0747    8.7488 H         4 RES4    0.0000
    228 C38A       1.8205   11.6346    7.3386 C.3       4 RES4    0.0000
    229 H51A       1.9613   11.8488    6.3932 H         4 RES4    0.0000
    230 C39A      -1.1659   18.0909    9.1517 C.2       4 RES4    0.0000
    231 C40A      -2.3719   18.5953    9.6553 C.2       4 RES4    0.0000
    232 H53A      -3.1035   18.0039    9.8323 H         4 RES4    0.0000
    233 C41A      -2.4907   19.9323    9.9143 C.2       4 RES4    0.0000
    234 H54A      -3.3012   20.2882   10.2582 H         4 RES4    0.0000
    235 C42A      -1.4226   20.7719    9.6553 C.2       4 RES4    0.0000
    236 C43A      -0.2291   20.2892    9.1373 C.2       4 RES4    0.0000
    237 H55A       0.4906   20.8741    8.9618 H         4 RES4    0.0000
    238 C44A      -0.0978   18.9306    8.8927 C.2       4 RES4    0.0000
    239 H56A       0.7082   18.5921    8.5401 H         4 RES4    0.0000
    240 C45A       5.2106    1.0926    0.5756 C.2       1 RES1    0.0000
    241 C46A       0.1370   11.8055    6.9069 C.2       4 RES4    0.0000
@<TRIPOS>BOND
     1    1    3 1
     2    2    5 1
     3    4    1 1
     4    5    6 1
     5    7    5 1
     6    8    5 1
     7    9    8 1
     8   10    8 1
     9   11    8 1
    10   12   11 1
    11   13   11 1
    12   14   11 1
    13   16   14 1
    14   17   14 1
    15   18   17 1
    16   19   17 1
    17   20    2 1
    18   21   20 1
    19   22   21 1
    20   23   21 1
    21   24   23 1
    22   25    1 1
    23   26   25 1
    24   27   26 1
    25   28   20 1
    26   29   28 1
    27   30   32 2
    28   31   34 1
    29   33   30 2
    30   34   35 1
    31   36   34 1
    32   37   34 1
    33   38   37 1
    34   39   37 1
    35   40   37 1
    36   41   40 1
    37   42   40 1
    38   43   40 1
    39   44   43 1
    40   45   43 1
    41   46   43 1
    42   47   46 1
    43   48   46 1
    44   49   31 1
    45   50   49 ar
    46   51   50 1
    47   52   50 ar
    48   53   52 1
    49   54   30 1
    50   55   54 ar
    51   56   55 1
    52   57   49 ar
    53   58   57 1
    54   59   61 2
    55   60   63 1
    56   62   59 2
    57   63   64 1
    58   65   63 1
    59   66   63 1
    60   67   66 1
    61   68   66 1
    62   69   66 1
    63   70   69 1
    64   71   69 1
    65   72   69 1
    66   73   72 1
    67   74   72 1
    68   75   72 1
    69   76   75 1
    70   77   75 1
    71   78   60 1
    72   79   78 ar
    73   80   79 1
    74   81   79 ar
    75   82   81 1
    76   83   59 1
    77   84   83 ar
    78   85   84 1
    79   86   78 ar
    80   87   86 1
    81   88   90 1
    82   89   92 1
    83   91   88 1
    84   92   93 1
    85   94   92 1
    86   95   92 1
    87   96   95 1
    88   97   95 1
    89   98   95 1
    90   99   98 1
    91  100   98 1
    92  101   98 1
    93  103  101 1
    94  104  101 1
    95  105  104 1
    96  107   89 1
    97  108  107 1
    98  109  108 1
    99  110  108 1
   100  111  110 1
   101  112   88 1
   102  113  112 1
   103  114  113 1
   104  115  107 1
   105  116  115 1
   106  117   14 1
   107  118  101 1
   108  127  129 1
   109  128  131 1
   110  130  127 1
   111  131  132 1
   112  133  131 1
   113  134  131 1
   114  135  134 1
   115  136  134 1
   116  137  134 1
   117  138  137 1
   118  139  137 1
   119  140  137 1
   120  141  140 1
   121  142  117 1
   122  143  142 1
   123  144  142 1
   124  145  128 1
   125  146  145 1
   126  147  146 1
   127  148  146 1
   128  149  148 1
   129  150  127 1
   130  151  150 1
   131  152  151 1
   132  153  145 1
   133  154  153 1
   134  155  157 2
   135  156  159 1
   136  158  155 2
   137  159  160 1
   138  161  159 1
   139  162  159 1
   140  163  162 1
   141  164  162 1
   142  165  162 1
   143  166  165 1
   144  167  165 1
   145  168  165 1
   146  169  168 1
   147  170  168 1
   148  171   46 1
   149  172  171 1
   150  173  171 1
   151  174  156 1
   152  175  174 ar
   153  176  175 1
   154  177  175 ar
   155  178  177 1
   156  179  155 1
   157  180  179 ar
   158  181  180 1
   159  182  174 ar
   160  183  182 1
   161  184  186 2
   162  185  188 1
   163  187  184 2
   164  188  189 1
   165  190  188 1
   166  191  188 1
   167  192  191 1
   168  193  191 1
   169  194  191 1
   170  195  194 1
   171  196  194 1
   172  197  194 1
   173  198  197 1
   174  199  197 1
   175  200   75 1
   176  201  200 1
   177  202  200 1
   178  203  185 1
   179  204  203 ar
   180  205  204 1
   181  206  204 ar
   182  207  206 1
   183  208  184 1
   184  209  208 ar
   185  210  209 1
   186  211  203 ar
   187  212  211 1
   188  213  215 1
   189  214  217 1
   190  216  213 1
   191  217  218 1
   192  219  217 1
   193  220  217 1
   194  221  220 1
   195  222  220 1
   196  223  220 1
   197  224  223 1
   198  225  223 1
   199  226  223 1
   200  227  226 1
   201  228  118 1
   202  229  228 1
   203  230  214 1
   204  231  230 1
   205  232  231 1
   206  233  231 1
   207  234  233 1
   208  235  213 1
   209  236  235 1
   210  237  236 1
   211  238  230 1
   212  239  238 1
   213  240   17 1
   214  241  104 1
   215   23   25 1
   216   26   28 1
   217   52   54 ar
   218   55   57 ar
   219   81   83 ar
   220   84   86 ar
   221  104  118 1
   222  110  112 1
   223  113  115 1
   224  140  142 1
   225  140  240 1
   226  148  150 1
   227  151  153 1
   228  168  171 1
   229  177  179 ar
   230  180  182 ar
   231  197  200 1
   232  206  208 ar
   233  209  211 ar
   234  226  228 1
   235  226  241 1
   236  228  241 1
   237  233  235 1
   238  236  238 1
@<TRIPOS>SUBSTRUCTURE
     1 RES1 1
     2 RES2 30
     3 RES3 59
     4 RES4 88
     5 SUP5 15

@<TRIPOS>CRYSIN
  10.1806   14.9460   16.1127 114.3700  94.3220 103.8610   2 1

