# MOL2 file generated by ConQuest
# Please check atom types

@<TRIPOS>MOLECULE
PUJLUC
    47    49     1
SMALL
NO_CHARGES
****
Generated from CSD

@<TRIPOS>ATOM
      1 O1         1.3871    3.0138   14.6226 O.2       1 RES1    0.0000
      2 O2         3.2881    2.2271   15.2812 O.2       1 RES1    0.0000
      3 O3         1.0588    6.6516   11.5893 O.2       1 RES1    0.0000
      4 O4         2.8427    7.5101   10.7188 O.2       1 RES1    0.0000
      5 N1         5.5172    3.3740   14.6001 N.pl3     1 RES1    0.0000
      6 H1         5.1259    2.7868   15.1784 H         1 RES1    0.0000
      7 N2         6.8860    3.5801   14.5615 N.2       1 RES1    0.0000
      8 N3         2.6150    3.0388   14.6271 N.pl3     1 RES1    0.0000
      9 N4         2.2773    6.7164   11.4698 N.pl3     1 RES1    0.0000
     10 C1         7.6320    2.7522   15.2018 C.2       1 RES1    0.0000
     11 C2         7.2010    1.5319   15.9792 C.3       1 RES1    0.0000
     12 H2         7.5467    0.7229   15.5258 H         1 RES1    0.0000
     13 H3         6.2114    1.4814   15.9762 H         1 RES1    0.0000
     14 C3         9.1096    3.0031   15.0811 C.3       1 RES1    0.0000
     15 H4         9.5159    3.0011   15.9848 H         1 RES1    0.0000
     16 H5         9.2571    3.8974   14.6831 H         1 RES1    0.0000
     17 C4         4.7211    4.1632   13.8431 C.ar      1 RES1    0.0000
     18 C5         3.3046    4.0407   13.8332 C.ar      1 RES1    0.0000
     19 C6         2.5034    4.8728   13.0569 C.ar      1 RES1    0.0000
     20 H6         1.5567    4.7860   13.0704 H         1 RES1    0.0000
     21 C7         3.1105    5.8221   12.2712 C.ar      1 RES1    0.0000
     22 C8         4.4988    5.9711   12.2354 C.ar      1 RES1    0.0000
     23 H7         4.8943    6.6327   11.6787 H         1 RES1    0.0000
     24 C9         5.2858    5.1595   13.0044 C.ar      1 RES1    0.0000
     25 H8         6.2307    5.2645   12.9761 H         1 RES1    0.0000
     26 C10        7.6888    1.5375   17.4166 C.ar      1 RES1    0.0000
     27 C11        8.5859    0.5795   17.8650 C.ar      1 RES1    0.0000
     28 H9         8.9171   -0.0724   17.2586 H         1 RES1    0.0000
     29 C12        9.0071    0.5606   19.1907 C.ar      1 RES1    0.0000
     30 H10        9.6209   -0.1015   19.4867 H         1 RES1    0.0000
     31 C13        8.5314    1.5059   20.0747 C.ar      1 RES1    0.0000
     32 H11        8.8087    1.4896   20.9835 H         1 RES1    0.0000
     33 C14        7.6491    2.4782   19.6355 C.ar      1 RES1    0.0000
     34 H12        7.3311    3.1368   20.2415 H         1 RES1    0.0000
     35 C15        7.2282    2.4950   18.3132 C.ar      1 RES1    0.0000
     36 H13        6.6216    3.1643   18.0198 H         1 RES1    0.0000
     37 C16        9.7919    1.9569   14.2250 C.ar      1 RES1    0.0000
     38 C17        9.2836    1.6498   12.9641 C.ar      1 RES1    0.0000
     39 H14        8.5134    2.1048   12.6458 H         1 RES1    0.0000
     40 C18        9.8853    0.6933   12.1717 C.ar      1 RES1    0.0000
     41 H15        9.5233    0.4907   11.3163 H         1 RES1    0.0000
     42 C19       11.0097    0.0301   12.6167 C.ar      1 RES1    0.0000
     43 H16       11.4182   -0.6346   12.0733 H         1 RES1    0.0000
     44 C20       11.5415    0.3372   13.8575 C.ar      1 RES1    0.0000
     45 H17       12.3247   -0.1051   14.1620 H         1 RES1    0.0000
     46 C21       10.9270    1.2927   14.6539 C.ar      1 RES1    0.0000
     47 H18       11.2914    1.4937   15.5087 H         1 RES1    0.0000
@<TRIPOS>BOND
     1    1    8 2
     2    2    8 2
     3    3    9 2
     4    4    9 2
     5    5    6 1
     6    7    5 1
     7    8   18 1
     8    9   21 1
     9   10    7 2
    10   11   10 1
    11   12   11 1
    12   13   11 1
    13   14   10 1
    14   15   14 1
    15   16   14 1
    16   17    5 1
    17   18   17 ar
    18   19   18 ar
    19   20   19 1
    20   21   19 ar
    21   22   21 ar
    22   23   22 1
    23   24   17 ar
    24   25   24 1
    25   26   11 1
    26   27   26 ar
    27   28   27 1
    28   29   27 ar
    29   30   29 1
    30   31   29 ar
    31   32   31 1
    32   33   31 ar
    33   34   33 1
    34   35   26 ar
    35   36   35 1
    36   37   14 1
    37   38   37 ar
    38   39   38 1
    39   40   38 ar
    40   41   40 1
    41   42   40 ar
    42   43   42 1
    43   44   42 ar
    44   45   44 1
    45   46   37 ar
    46   47   46 1
    47   22   24 ar
    48   33   35 ar
    49   44   46 ar
@<TRIPOS>SUBSTRUCTURE
     1 RES1 1

@<TRIPOS>CRYSIN
  17.2448    5.1013   22.7459  90.0000 109.4750  90.0000  14 1

