# MOL2 file generated by ConQuest
# Please check atom types

@<TRIPOS>MOLECULE
PUJPEQ
    18    18     1
SMALL
USER_CHARGES
****
Generated from CSD

@<TRIPOS>ATOM
      1 N1         2.1640    7.9596    0.7502 N.pl3     1 RES1    1.0000
      2 C1         1.7616   10.5580   -0.1185 C.ar      1 RES1    0.0000
      3 C2         1.5099   11.9166   -0.6250 C.2       1 RES1    0.0000
      4 C3         2.2138   10.2960    1.1697 C.ar      1 RES1    0.0000
      5 H1         2.3830   10.9968    1.7565 H         1 RES1    0.0000
      6 O1         2.3400    6.7432    1.1478 O.2       1 RES1   -1.0000
      7 O2         1.7981   12.8620    0.2589 O.3       1 RES1    0.0000
      8 O3         1.0687   12.1429   -1.7233 O.2       1 RES1    0.0000
      9 C4         2.4098    9.0029    1.5711 C.ar      1 RES1    0.0000
     10 H2         2.7208    8.8384    2.4322 H         1 RES1    0.0000
     11 C5         1.7325    8.2010   -0.5132 C.ar      1 RES1    0.0000
     12 H3         1.5772    7.4881   -1.0895 H         1 RES1    0.0000
     13 C6         1.5256    9.4696   -0.9490 C.ar      1 RES1    0.0000
     14 H4         1.2211    9.6124   -1.8158 H         1 RES1    0.0000
     15 C7         1.5329   14.2240   -0.1462 C.3       1 RES1    0.0000
     16 H5         1.7782   14.8221    0.5638 H         1 RES1    0.0000
     17 H6         0.5980   14.3234   -0.3402 H         1 RES1    0.0000
     18 H7         2.0465   14.4299   -0.9308 H         1 RES1    0.0000
@<TRIPOS>BOND
     1    1    6 1
     2    2    3 1
     3    3    7 1
     4    4    2 ar
     5    5    4 1
     6    7   15 1
     7    8    3 2
     8    9    1 ar
     9   10    9 1
    10   11    1 ar
    11   12   11 1
    12   13    2 ar
    13   14   13 1
    14   15   16 1
    15   17   15 1
    16   18   15 1
    17    4    9 ar
    18   11   13 ar
@<TRIPOS>SUBSTRUCTURE
     1 RES1 1

@<TRIPOS>CRYSIN
   7.2429   10.3470    9.8980  90.0000 105.0900  90.0000  14 1

