# MOL2 file generated by ConQuest
# Please check atom types

@<TRIPOS>MOLECULE
PUJYUP
    37    39     1
SMALL
NO_CHARGES
****
Generated from CSD

@<TRIPOS>ATOM
      1 N1         5.5115   -0.0985    2.4325 N.3       1 RES1    0.0000
      2 C1         5.8641    0.1101    1.1379 C.ar      1 RES1    0.0000
      3 C2         6.5262   -0.6740    0.1701 C.ar      1 RES1    0.0000
      4 H1         6.8176   -1.5587    0.3560 H         1 RES1    0.0000
      5 C3         6.7252   -0.0910   -1.0450 C.ar      1 RES1    0.0000
      6 H2         7.1705   -0.5881   -1.7225 H         1 RES1    0.0000
      7 C4         6.2939    1.2284   -1.3409 C.ar      1 RES1    0.0000
      8 H3         6.4663    1.5903   -2.2021 H         1 RES1    0.0000
      9 C5         5.6377    1.9897   -0.4172 C.ar      1 RES1    0.0000
     10 H4         5.3382    2.8701   -0.6097 H         1 RES1    0.0000
     11 C6         5.4350    1.3943    0.8246 C.ar      1 RES1    0.0000
     12 N2         4.8334    1.8646    1.9825 N.pl3     1 RES1    0.0000
     13 N3         4.8762    0.9741    2.9514 N.2       1 RES1    0.0000
     14 O1         4.3375    3.0375    2.1482 O.2       1 RES1    0.0000
     15 C7         5.6342   -1.3348    3.2206 C.3       1 RES1    0.0000
     16 H5         6.4042   -1.8568    2.8821 H         1 RES1    0.0000
     17 H6         4.8181   -1.8811    3.0910 H         1 RES1    0.0000
     18 C8         5.8239   -1.0800    4.6928 C.ar      1 RES1    0.0000
     19 C9         7.1105   -0.8473    5.2049 C.ar      1 RES1    0.0000
     20 C10        7.2644   -0.6689    6.5743 C.ar      1 RES1    0.0000
     21 H7         8.1368   -0.5345    6.9260 H         1 RES1    0.0000
     22 C11        6.1857   -0.6814    7.4424 C.ar      1 RES1    0.0000
     23 C12        4.9133   -0.8833    6.9118 C.ar      1 RES1    0.0000
     24 H8         4.1612   -0.8789    7.4931 H         1 RES1    0.0000
     25 C13        4.7201   -1.0903    5.5534 C.ar      1 RES1    0.0000
     26 C14        8.3231   -0.7717    4.3121 C.3       1 RES1    0.0000
     27 H9         8.5052   -1.6564    3.9309 H         1 RES1    0.0000
     28 H10        9.0961   -0.4758    4.8369 H         1 RES1    0.0000
     29 H11        8.1556   -0.1329    3.5877 H         1 RES1    0.0000
     30 C15        6.3835   -0.4677    8.9203 C.3       1 RES1    0.0000
     31 H12        6.3712   -1.3333    9.3797 H         1 RES1    0.0000
     32 H13        5.6620    0.0969    9.2688 H         1 RES1    0.0000
     33 H14        7.2455   -0.0286    9.0748 H         1 RES1    0.0000
     34 C16        3.3160   -1.2952    5.0388 C.3       1 RES1    0.0000
     35 H15        3.0834   -0.5661    4.4255 H         1 RES1    0.0000
     36 H16        2.6895   -1.3010    5.7920 H         1 RES1    0.0000
     37 H17        3.2633   -2.1505    4.5641 H         1 RES1    0.0000
@<TRIPOS>BOND
     1    1    2 1
     2    2    3 ar
     3    3    4 1
     4    5    3 ar
     5    6    5 1
     6    7    5 ar
     7    8    7 1
     8    9    7 ar
     9   10    9 1
    10   11    2 ar
    11   12   11 1
    12   13    1 1
    13   14   12 1
    14   15    1 1
    15   16   15 1
    16   17   15 1
    17   18   15 1
    18   19   18 ar
    19   20   19 ar
    20   21   20 1
    21   22   20 ar
    22   23   22 ar
    23   24   23 1
    24   25   18 ar
    25   26   19 1
    26   27   26 1
    27   28   26 1
    28   29   26 1
    29   30   22 1
    30   31   30 1
    31   32   30 1
    32   33   30 1
    33   34   25 1
    34   35   34 1
    35   36   34 1
    36   37   34 1
    37    9   11 ar
    38   12   13 2
    39   23   25 ar
@<TRIPOS>SUBSTRUCTURE
     1 RES1 1

@<TRIPOS>CRYSIN
   8.6269    7.3422   21.8900  90.0000 103.1330  90.0000  14 1

