# MOL2 file generated by ConQuest
# Please check atom types

@<TRIPOS>MOLECULE
PUKPOB
    47    49     1
SMALL
NO_CHARGES
****
Generated from CSD

@<TRIPOS>ATOM
      1 N1         9.1744    3.8800    5.4521 N.3       1 RES1    0.0000
      2 H1         8.3474    3.7888    5.6718 H         1 RES1    0.0000
      3 N2        11.0620    2.5867    4.9514 N.3       1 RES1    0.0000
      4 O1         7.6260    2.8404    7.2508 O.2       1 RES1    0.0000
      5 N3         8.5364    1.9696    7.4784 N.pl3     1 RES1    0.0000
      6 C1         9.9643    2.8265    5.6918 C.2       1 RES1    0.0000
      7 O2         8.3366    1.1126    8.3878 O.2       1 RES1    0.0000
      8 N4        12.0046    1.1371    6.6767 N.3       1 RES1    0.0000
      9 C2        10.6416    0.8140    7.1049 C.3       1 RES1    0.0000
     10 H2        10.6329    0.6716    8.0649 H         1 RES1    0.0000
     11 H3        10.3592   -0.0101    6.6790 H         1 RES1    0.0000
     12 C3         9.6730    1.9083    6.7572 C.2       1 RES1    0.0000
     13 C4        14.0476    2.4669    7.1578 C.ar      1 RES1    0.0000
     14 C5        10.7430    5.8012    5.5123 C.ar      1 RES1    0.0000
     15 C6         9.5410    5.1674    4.8629 C.3       1 RES1    0.0000
     16 H4         8.7878    5.7731    4.9384 H         1 RES1    0.0000
     17 H5         9.7228    5.0407    3.9186 H         1 RES1    0.0000
     18 C7        12.6219    2.1668    7.5256 C.3       1 RES1    0.0000
     19 H6        12.5906    1.8728    8.4489 H         1 RES1    0.0000
     20 H7        12.1019    2.9829    7.4574 H         1 RES1    0.0000
     21 C8        11.9740    1.4592    5.2909 C.3       1 RES1    0.0000
     22 H8        11.6966    0.6741    4.7947 H         1 RES1    0.0000
     23 H9        12.8730    1.6878    5.0045 H         1 RES1    0.0000
     24 C9        15.0679    1.5806    7.4606 C.ar      1 RES1    0.0000
     25 H10       14.8600    0.7603    7.8488 H         1 RES1    0.0000
     26 C10       10.8573    5.8446    6.8919 C.ar      1 RES1    0.0000
     27 H11       10.1895    5.4690    7.4176 H         1 RES1    0.0000
     28 C11       16.3874    1.8898    7.1993 C.ar      1 RES1    0.0000
     29 H12       17.0576    1.2773    7.4060 H         1 RES1    0.0000
     30 C12       14.3917    3.6575    6.5499 C.ar      1 RES1    0.0000
     31 H13       13.7216    4.2576    6.3075 H         1 RES1    0.0000
     32 C13       16.7136    3.0951    6.6349 C.ar      1 RES1    0.0000
     33 H14       17.6034    3.3174    6.4838 H         1 RES1    0.0000
     34 C14       15.7137    3.9745    6.2939 C.ar      1 RES1    0.0000
     35 H15       15.9281    4.7847    5.8910 H         1 RES1    0.0000
     36 C15       11.7440    6.3884    4.7600 C.ar      1 RES1    0.0000
     37 H16       11.6893    6.3889    3.8315 H         1 RES1    0.0000
     38 C16       12.8336    6.9782    5.3906 C.ar      1 RES1    0.0000
     39 H17       13.5036    7.3672    4.8786 H         1 RES1    0.0000
     40 C17       12.9302    6.9944    6.7482 C.ar      1 RES1    0.0000
     41 H18       13.6645    7.3874    7.1595 H         1 RES1    0.0000
     42 C18       11.9439    6.4320    7.4994 C.ar      1 RES1    0.0000
     43 H19       12.0053    6.4447    8.4269 H         1 RES1    0.0000
     44 C19       11.1953    3.0457    3.5745 C.3       1 RES1    0.0000
     45 H20       10.3241    3.1932    3.2010 H         1 RES1    0.0000
     46 H21       11.6541    2.3797    3.0583 H         1 RES1    0.0000
     47 H22       11.6951    3.8648    3.5577 H         1 RES1    0.0000
@<TRIPOS>BOND
     1    1    2 1
     2    3    6 1
     3    4    5 2
     4    5    7 2
     5    6    1 1
     6    8    9 1
     7    9   10 1
     8   11    9 1
     9   12    5 1
    10   13   18 1
    11   14   15 1
    12   15    1 1
    13   16   15 1
    14   17   15 1
    15   18    8 1
    16   19   18 1
    17   20   18 1
    18   21    3 1
    19   22   21 1
    20   23   21 1
    21   24   13 ar
    22   25   24 1
    23   26   14 ar
    24   27   26 1
    25   28   24 ar
    26   29   28 1
    27   30   13 ar
    28   31   30 1
    29   32   28 ar
    30   33   32 1
    31   34   30 ar
    32   35   34 1
    33   36   14 ar
    34   37   36 1
    35   38   36 ar
    36   39   38 1
    37   40   38 ar
    38   41   40 1
    39   42   26 ar
    40   43   42 1
    41   44    3 1
    42   45   44 1
    43   46   44 1
    44   47   44 1
    45    6   12 2
    46    8   21 1
    47    9   12 1
    48   32   34 ar
    49   40   42 ar
@<TRIPOS>SUBSTRUCTURE
     1 RES1 1

@<TRIPOS>CRYSIN
  29.2634   29.2634   10.4916  90.0000  90.0000 120.0000 233 1

