# MOL2 file generated by ConQuest
# Please check atom types

@<TRIPOS>MOLECULE
PULTIA
    35    36     1
SMALL
NO_CHARGES
****
Generated from CSD

@<TRIPOS>ATOM
      1 O1         6.9205    4.7494    0.2506 O.2       1 RES1    0.0000
      2 O2         7.0641    3.0774   -1.1158 O.2       1 RES1    0.0000
      3 O3         1.2438    0.9508    1.7403 O.3       1 RES1    0.0000
      4 O4        -0.6424   -0.1513    2.2606 O.2       1 RES1    0.0000
      5 N1         6.4027    3.8798   -0.4521 N.pl3     1 RES1    0.0000
      6 N2        -3.8555    0.4664    2.1323 N.1       1 RES1    0.0000
      7 C1         2.8187    4.5662    0.2516 C.ar      1 RES1    0.0000
      8 H1         2.3000    5.1830    0.7148 H         1 RES1    0.0000
      9 C2         4.1991    4.7038    0.2366 C.ar      1 RES1    0.0000
     10 H2         4.6137    5.3996    0.6927 H         1 RES1    0.0000
     11 C3         4.9432    3.7786   -0.4742 C.ar      1 RES1    0.0000
     12 C4         4.3654    2.7374   -1.1789 C.ar      1 RES1    0.0000
     13 H3         4.8875    2.1372   -1.6601 H         1 RES1    0.0000
     14 C5         2.9871    2.6138   -1.1469 C.ar      1 RES1    0.0000
     15 H4         2.5791    1.9218   -1.6160 H         1 RES1    0.0000
     16 C6         2.1986    3.5084   -0.4210 C.ar      1 RES1    0.0000
     17 C7         0.7409    3.2408   -0.3128 C.3       1 RES1    0.0000
     18 H5         0.4059    2.5386   -0.9083 H         1 RES1    0.0000
     19 C8        -0.2878    4.2833    0.0832 C.3       1 RES1    0.0000
     20 H6         0.0233    5.1906    0.2256 H         1 RES1    0.0000
     21 H7        -1.1734    4.2119   -0.3038 H         1 RES1    0.0000
     22 C9         0.1178    3.2510    1.0747 C.3       1 RES1    0.0000
     23 H8         0.7108    3.5785    1.7834 H         1 RES1    0.0000
     24 C10       -0.7524    2.1206    1.4777 C.2       1 RES1    0.0000
     25 C11       -2.0862    2.2302    1.5017 C.2       1 RES1    0.0000
     26 H9        -2.4426    3.0547    1.2611 H         1 RES1    0.0000
     27 C12       -3.0181    1.2018    1.8606 C.1       1 RES1    0.0000
     28 C13       -0.0784    0.8411    1.8747 C.2       1 RES1    0.0000
     29 C14        2.0577   -0.1899    2.1393 C.3       1 RES1    0.0000
     30 H10        1.8029   -0.9800    1.6381 H         1 RES1    0.0000
     31 H11        1.9437   -0.3721    3.0847 H         1 RES1    0.0000
     32 C15        3.4877    0.1784    1.8456 C.3       1 RES1    0.0000
     33 H12        3.5996    0.2931    0.8992 H         1 RES1    0.0000
     34 H13        4.0675   -0.5212    2.1554 H         1 RES1    0.0000
     35 H14        3.7058    0.9979    2.2947 H         1 RES1    0.0000
@<TRIPOS>BOND
     1    1    5 2
     2    2    5 2
     3    3   28 1
     4    4   28 2
     5    5   11 1
     6    6   27 3
     7    7    8 1
     8    9    7 ar
     9   10    9 1
    10   11    9 ar
    11   12   11 ar
    12   13   12 1
    13   14   12 ar
    14   15   14 1
    15   16    7 ar
    16   17   16 1
    17   18   17 1
    18   19   17 1
    19   20   19 1
    20   21   19 1
    21   22   17 1
    22   23   22 1
    23   24   22 1
    24   25   24 2
    25   26   25 1
    26   27   25 1
    27   28   24 1
    28   29    3 1
    29   30   29 1
    30   31   29 1
    31   32   29 1
    32   33   32 1
    33   34   32 1
    34   35   32 1
    35   14   16 ar
    36   19   22 1
@<TRIPOS>SUBSTRUCTURE
     1 RES1 1

@<TRIPOS>CRYSIN
  10.8520   12.7440   10.0250  90.0000  90.1400  90.0000  14 1

