# MOL2 file generated by ConQuest
# Please check atom types

@<TRIPOS>MOLECULE
PULTEW
    43    44     1
SMALL
NO_CHARGES
****
Generated from CSD

@<TRIPOS>ATOM
      1 O1        -3.2111    2.2931   -0.6061 O.2       1 RES1    0.0000
      2 O2        -1.5592    3.6285   -1.0090 O.2       1 RES1    0.0000
      3 O3         1.1183    2.7736    5.8015 O.2       1 RES1    0.0000
      4 O4         1.5439    2.5919    7.9995 O.3       1 RES1    0.0000
      5 O5         2.3642   -1.8767    7.2579 O.3       1 RES1    0.0000
      6 O6         1.9375   -2.4880    5.1438 O.2       1 RES1    0.0000
      7 N1        -2.0376    2.6667   -0.4579 N.pl3     1 RES1    0.0000
      8 C1        -0.8654   -0.0495    1.7891 C.ar      1 RES1    0.0000
      9 H1        -1.1700   -0.8707    2.1028 H         1 RES1    0.0000
     10 C2        -1.6459    0.6742    0.9093 C.ar      1 RES1    0.0000
     11 H2        -2.4677    0.3445    0.6269 H         1 RES1    0.0000
     12 C3        -1.1901    1.8852    0.4590 C.ar      1 RES1    0.0000
     13 C4         0.0386    2.3907    0.8288 C.ar      1 RES1    0.0000
     14 H3         0.3406    3.2036    0.4932 H         1 RES1    0.0000
     15 C5         0.8144    1.6538    1.7156 C.ar      1 RES1    0.0000
     16 H4         1.6427    1.9841    1.9817 H         1 RES1    0.0000
     17 C6         0.3730    0.4318    2.2140 C.ar      1 RES1    0.0000
     18 C7         1.1608   -0.3848    3.1673 C.3       1 RES1    0.0000
     19 H5         0.7725   -1.2577    3.3883 H         1 RES1    0.0000
     20 C8         1.8775    0.3265    4.3292 C.3       1 RES1    0.0000
     21 H6         1.8477    1.3029    4.2612 H         1 RES1    0.0000
     22 C9         2.6629   -0.3207    3.2230 C.3       1 RES1    0.0000
     23 H7         3.1406   -1.1390    3.4299 H         1 RES1    0.0000
     24 H8         3.1125    0.2617    2.5910 H         1 RES1    0.0000
     25 C10        1.8511   -0.1610    5.7237 C.2       1 RES1    0.0000
     26 C11        1.6470    0.6330    6.7869 C.2       1 RES1    0.0000
     27 H9         1.6585    0.2256    7.6230 H         1 RES1    0.0000
     28 C12        1.4060    2.0929    6.7589 C.2       1 RES1    0.0000
     29 C13        1.3638    4.0314    8.1263 C.3       1 RES1    0.0000
     30 H10        0.4531    4.2767    7.9005 H         1 RES1    0.0000
     31 H11        1.9655    4.4990    7.5258 H         1 RES1    0.0000
     32 C14        1.6603    4.3966    9.5378 C.3       1 RES1    0.0000
     33 H12        1.0501    3.9390   10.1219 H         1 RES1    0.0000
     34 H13        1.5612    5.3447    9.6514 H         1 RES1    0.0000
     35 H14        2.5600    4.1406    9.7523 H         1 RES1    0.0000
     36 C15        2.0545   -1.6243    5.9860 C.2       1 RES1    0.0000
     37 C16        2.4470   -3.2823    7.6330 C.3       1 RES1    0.0000
     38 H15        3.1609   -3.7199    7.1423 H         1 RES1    0.0000
     39 H16        1.6125   -3.7341    7.4299 H         1 RES1    0.0000
     40 C17        2.7192   -3.3318    9.0989 C.3       1 RES1    0.0000
     41 H17        3.5598   -2.9052    9.2818 H         1 RES1    0.0000
     42 H18        2.7551   -4.2466    9.3865 H         1 RES1    0.0000
     43 H19        2.0186   -2.8748    9.5706 H         1 RES1    0.0000
@<TRIPOS>BOND
     1    1    7 2
     2    2    7 2
     3    3   28 2
     4    4   28 1
     5    5   36 1
     6    6   36 2
     7    7   12 1
     8    8    9 1
     9   10    8 ar
    10   11   10 1
    11   12   10 ar
    12   13   12 ar
    13   14   13 1
    14   15   13 ar
    15   16   15 1
    16   17    8 ar
    17   18   17 1
    18   19   18 1
    19   20   18 1
    20   21   20 1
    21   22   18 1
    22   23   22 1
    23   24   22 1
    24   25   20 1
    25   26   25 2
    26   27   26 1
    27   28   26 1
    28   29    4 1
    29   30   29 1
    30   31   29 1
    31   32   29 1
    32   33   32 1
    33   34   32 1
    34   35   32 1
    35   36   25 1
    36   37    5 1
    37   38   37 1
    38   39   37 1
    39   40   37 1
    40   41   40 1
    41   42   40 1
    42   43   40 1
    43   15   17 ar
    44   20   22 1
@<TRIPOS>SUBSTRUCTURE
     1 RES1 1

@<TRIPOS>CRYSIN
   6.9270    9.7830   12.6190  88.4800  89.7700  75.6800   2 1

