# MOL2 file generated by ConQuest
# Please check atom types

@<TRIPOS>MOLECULE
PUMQEV
    54    55     1
SMALL
NO_CHARGES
****
Generated from CSD

@<TRIPOS>ATOM
      1 O1         6.5424    4.6025    4.6085 O.3       1 RES1    0.0000
      2 O2         7.6827    8.5565    5.6411 O.2       1 RES1    0.0000
      3 O3         7.6301    3.9187    9.1211 O.3       1 RES1    0.0000
      4 O4         8.6103    6.6058    5.0634 O.3       1 RES1    0.0000
      5 O5         7.3812    3.2414    6.1411 O.2       1 RES1    0.0000
      6 O6         5.6414    2.8914    9.1033 O.2       1 RES1    0.0000
      7 O7         3.5051    5.4539    8.3635 O.2       1 RES1    0.0000
      8 O8        10.6779    9.9156   12.2500 O.2       1 RES1    0.0000
      9 N1         6.0741    6.2507    8.8988 N.3       1 RES1    0.0000
     10 O9         4.1738    4.1214    6.6948 O.3       1 RES1    0.0000
     11 C1         7.8173    7.3727    5.7941 C.2       1 RES1    0.0000
     12 C2         4.3652    4.8979    7.7434 C.2       1 RES1    0.0000
     13 C3         8.4728   10.2961    9.5402 C.ar      1 RES1    0.0000
     14 H1         8.4711   11.2238    9.4765 H         1 RES1    0.0000
     15 C4         7.6266    8.1509    8.8555 C.ar      1 RES1    0.0000
     16 O10       10.2106   11.6704   11.1105 O.2       1 RES1    0.0000
     17 N2        10.1286   10.4730   11.3133 N.pl3     1 RES1    0.0000
     18 C5         7.1033    6.6250    6.8518 C.2       1 RES1    0.0000
     19 C6         6.6798    5.3686    6.8294 C.2       1 RES1    0.0000
     20 C7         6.9202    4.2885    5.8297 C.2       1 RES1    0.0000
     21 C8         8.5271    7.5301    9.7075 C.ar      1 RES1    0.0000
     22 H2         8.5597    6.6013    9.7509 H         1 RES1    0.0000
     23 C9         6.6016    7.3510    8.0799 C.3       1 RES1    0.0000
     24 H3         5.8624    7.9418    7.8226 H         1 RES1    0.0000
     25 C10        6.6965    3.5489    3.6240 C.3       1 RES1    0.0000
     26 H4         6.2955    3.8241    2.7956 H         1 RES1    0.0000
     27 H5         6.2655    2.7509    3.9395 H         1 RES1    0.0000
     28 H6         7.6300    3.3746    3.4848 H         1 RES1    0.0000
     29 C11        9.3789    8.2861   10.4948 C.ar      1 RES1    0.0000
     30 H7         9.9823    7.8759   11.0707 H         1 RES1    0.0000
     31 C12        5.8586    5.0707    8.0703 C.3       1 RES1    0.0000
     32 C13        9.3141    9.6558   10.4070 C.ar      1 RES1    0.0000
     33 C14        7.6241    9.5321    8.7610 C.ar      1 RES1    0.0000
     34 H8         7.0437    9.9503    8.1667 H         1 RES1    0.0000
     35 C15        2.7954    3.9168    4.7781 C.3       1 RES1    0.0000
     36 H9         3.1301    4.7513    4.4418 H         1 RES1    0.0000
     37 H10        1.8985    3.7824    4.4661 H         1 RES1    0.0000
     38 H11        3.3537    3.1996    4.4683 H         1 RES1    0.0000
     39 C16        2.8036    3.9431    6.2318 C.3       1 RES1    0.0000
     40 H12        2.4430    3.1122    6.5780 H         1 RES1    0.0000
     41 H13        2.2495    4.6721    6.5515 H         1 RES1    0.0000
     42 C17        6.3466    3.8110    8.8178 C.2       1 RES1    0.0000
     43 C18        9.2571    7.2426    3.9317 C.3       1 RES1    0.0000
     44 H14        8.6199    7.3600    3.2237 H         1 RES1    0.0000
     45 H15        9.9792    6.6901    3.6231 H         1 RES1    0.0000
     46 H16        9.6002    8.0980    4.1995 H         1 RES1    0.0000
     47 C19        8.2482    2.7707    9.7586 C.3       1 RES1    0.0000
     48 H17        8.2059    2.0006    9.1712 H         1 RES1    0.0000
     49 H18        7.7814    2.5550   10.5806 H         1 RES1    0.0000
     50 C20        9.6650    3.1142   10.0496 C.3       1 RES1    0.0000
     51 H19       10.1214    3.3139    9.2298 H         1 RES1    0.0000
     52 H20       10.0925    2.3701   10.4811 H         1 RES1    0.0000
     53 H21        9.6964    3.8787   10.6282 H         1 RES1    0.0000
     54 H22        5.3191    6.4726    9.2708 H         1 RES1    0.0000
@<TRIPOS>BOND
     1    1   20 1
     2    2   11 2
     3    3   42 1
     4    4   11 1
     5    5   20 2
     6    6   42 2
     7    7   12 2
     8    8   17 2
     9    9   23 1
    10   10   12 1
    11   11   18 1
    12   12   31 1
    13   13   14 1
    14   15   21 ar
    15   16   17 2
    16   17   32 1
    17   18   19 2
    18   19   20 1
    19   21   22 1
    20   23   15 1
    21   24   23 1
    22   25    1 1
    23   26   25 1
    24   27   25 1
    25   28   25 1
    26   29   21 ar
    27   30   29 1
    28   31    9 1
    29   32   13 ar
    30   33   13 ar
    31   34   33 1
    32   35   36 1
    33   37   35 1
    34   38   35 1
    35   39   10 1
    36   40   39 1
    37   41   39 1
    38   42   31 1
    39   43    4 1
    40   44   43 1
    41   45   43 1
    42   46   43 1
    43   47    3 1
    44   48   47 1
    45   49   47 1
    46   50   47 1
    47   51   50 1
    48   52   50 1
    49   53   50 1
    50   54    9 1
    51   15   33 ar
    52   18   23 1
    53   19   31 1
    54   29   32 ar
    55   35   39 1
@<TRIPOS>SUBSTRUCTURE
     1 RES1 1

@<TRIPOS>CRYSIN
   8.2083   11.9347   12.1564  69.7940  75.4410  86.2260   2 1

