# MOL2 file generated by ConQuest
# Please check atom types

@<TRIPOS>MOLECULE
PUMSUN
   100   104     2
SMALL
NO_CHARGES
****
Generated from CSD

@<TRIPOS>ATOM
      1 O1         3.7873   11.3810    5.7610 O.2       1 RES1    0.0000
      2 O2         2.7367    6.2529    9.9322 O.3       1 RES1    0.0000
      3 O3        12.0382    7.9643    2.8992 O.2       1 RES1    0.0000
      4 O4        10.9231    8.8588    1.3046 O.2       1 RES1    0.0000
      5 N1         5.7185   10.2073    5.7717 N.am      1 RES1    0.0000
      6 N2         5.7382   12.5082    6.0876 N.am      1 RES1    0.0000
      7 N3        11.0593    8.5355    2.5017 N.pl3     1 RES1    0.0000
      8 C1         4.9976   11.3742    5.8688 C.2       1 RES1    0.0000
      9 C2         4.9751    8.9980    5.4333 C.3       1 RES1    0.0000
     10 C3         4.4290    8.2387    6.6252 C.ar      1 RES1    0.0000
     11 C4         4.2151    8.8250    7.8470 C.ar      1 RES1    0.0000
     12 C5         3.6646    8.1525    8.9267 C.ar      1 RES1    0.0000
     13 C6         3.2857    6.8400    8.7713 C.ar      1 RES1    0.0000
     14 C7         2.2730    4.9088    9.7213 C.3       1 RES1    0.0000
     15 C8         3.4718    6.2185    7.5648 C.ar      1 RES1    0.0000
     16 C9         4.0542    6.9046    6.4800 C.ar      1 RES1    0.0000
     17 C10        7.0463   10.0053    6.2888 C.3       1 RES1    0.0000
     18 C11        8.0666    9.5877    5.2576 C.ar      1 RES1    0.0000
     19 C12        9.1641    8.8325    5.6571 C.ar      1 RES1    0.0000
     20 C13       10.1521    8.4786    4.7490 C.ar      1 RES1    0.0000
     21 C14       10.0261    8.8803    3.4307 C.ar      1 RES1    0.0000
     22 C15        8.9439    9.6385    3.0154 C.ar      1 RES1    0.0000
     23 C16        7.9827    9.9789    3.9289 C.ar      1 RES1    0.0000
     24 C17        5.1348   13.7715    6.3191 C.ar      1 RES1    0.0000
     25 C18        5.7145   14.8902    5.7134 C.ar      1 RES1    0.0000
     26 C19        5.1497   16.1440    5.9380 C.ar      1 RES1    0.0000
     27 C20        4.0476   16.2945    6.7128 C.ar      1 RES1    0.0000
     28 C21        3.4757   15.1917    7.3238 C.ar      1 RES1    0.0000
     29 C22        4.0420   13.9239    7.1366 C.ar      1 RES1    0.0000
     30 H1         4.2600    9.2394    4.8903 H         1 RES1    0.0000
     31 H2         5.5430    8.4318    4.9634 H         1 RES1    0.0000
     32 H3         4.4511    9.7193    7.9561 H         1 RES1    0.0000
     33 H4         3.5518    8.5816    9.7450 H         1 RES1    0.0000
     34 H5         1.9243    4.5717   10.5140 H         1 RES1    0.0000
     35 H6         2.9848    4.3751    9.4446 H         1 RES1    0.0000
     36 H7         1.6141    4.9064    9.0651 H         1 RES1    0.0000
     37 H8         3.2100    5.3325    7.4620 H         1 RES1    0.0000
     38 H9         4.1887    6.4678    5.6691 H         1 RES1    0.0000
     39 H10        7.3328   10.8031    6.6733 H         1 RES1    0.0000
     40 H11        7.0061    9.3424    6.9421 H         1 RES1    0.0000
     41 H12        9.2368    8.5605    6.5448 H         1 RES1    0.0000
     42 H13       10.8870    7.9777    5.0208 H         1 RES1    0.0000
     43 H14        8.8710    9.9112    2.1289 H         1 RES1    0.0000
     44 H15        7.2537   10.4847    3.6509 H         1 RES1    0.0000
     45 H16        6.4647   14.7989    5.1710 H         1 RES1    0.0000
     46 H17        5.5366   16.8940    5.5466 H         1 RES1    0.0000
     47 H18        3.6767   17.1398    6.8334 H         1 RES1    0.0000
     48 H19        2.7180   15.2928    7.8553 H         1 RES1    0.0000
     49 H20        3.6779   13.1837    7.5667 H         1 RES1    0.0000
     50 H21        6.5957   12.4510    6.0842 H         1 RES1    0.0000
     51 O5        -0.7477   12.9843    4.8739 O.2       2 RES2    0.0000
     52 O6        -1.0439   18.9687    1.4390 O.3       2 RES2    0.0000
     53 O7         6.2652    9.8663    0.5021 O.2       2 RES2    0.0000
     54 O8         7.4961   11.6278    0.4347 O.2       2 RES2    0.0000
     55 N4         1.1746   13.3888    3.7341 N.am      2 RES2    0.0000
     56 N5         1.2542   12.6334    5.9164 N.am      2 RES2    0.0000
     57 N6         6.4778   11.0334    0.7668 N.pl3     2 RES2    0.0000
     58 C23        0.0745   15.0360    2.2250 C.ar      2 RES2    0.0000
     59 C24       -0.3510   15.8951    3.2257 C.ar      2 RES2    0.0000
     60 C25       -0.7133   17.2023    2.9453 C.ar      2 RES2    0.0000
     61 C26       -0.6471   17.6618    1.6306 C.ar      2 RES2    0.0000
     62 C27       -0.9250   19.4767    0.1384 C.3       2 RES2    0.0000
     63 C28       -0.1194   16.8722    0.6723 C.ar      2 RES2    0.0000
     64 C29        0.2304   15.5527    0.9838 C.ar      2 RES2    0.0000
     65 C30        0.4831   13.0082    4.8547 C.2       2 RES2    0.0000
     66 C31        2.5283   13.9300    3.7537 C.3       2 RES2    0.0000
     67 C32        3.5312   13.1437    2.9470 C.ar      2 RES2    0.0000
     68 C33        4.6907   13.7893    2.5094 C.ar      2 RES2    0.0000
     69 C34        5.6581   13.1142    1.7879 C.ar      2 RES2    0.0000
     70 C35        5.4522   11.7785    1.5216 C.ar      2 RES2    0.0000
     71 C36        4.3301   11.1071    1.9379 C.ar      2 RES2    0.0000
     72 C37        3.3659   11.7984    2.6531 C.ar      2 RES2    0.0000
     73 C38        0.7229   12.3171    7.1900 C.ar      2 RES2    0.0000
     74 C39        1.2856   11.2542    7.8927 C.ar      2 RES2    0.0000
     75 C40        0.8082   10.9274    9.1556 C.ar      2 RES2    0.0000
     76 C41       -0.2382   11.6331    9.7116 C.ar      2 RES2    0.0000
     77 C42        0.4377   13.5952    2.5052 C.3       2 RES2    0.0000
     78 C43       -0.7909   12.6818    9.0166 C.ar      2 RES2    0.0000
     79 C44       -0.3137   13.0557    7.7707 C.ar      2 RES2    0.0000
     80 H22       -0.3933   15.5878    4.1036 H         2 RES2    0.0000
     81 H23       -0.9995   17.7671    3.6252 H         2 RES2    0.0000
     82 H24       -1.2168   20.3585    0.1206 H         2 RES2    0.0000
     83 H25       -0.0323   19.4408   -0.1285 H         2 RES2    0.0000
     84 H26       -1.4412   18.9680   -0.4428 H         2 RES2    0.0000
     85 H27        0.0109   17.2006   -0.1878 H         2 RES2    0.0000
     86 H28        0.5819   15.0119    0.3143 H         2 RES2    0.0000
     87 H29        2.4992   14.7966    3.4157 H         2 RES2    0.0000
     88 H30        2.8193   13.9515    4.6373 H         2 RES2    0.0000
     89 H31        4.8135   14.6912    2.7081 H         2 RES2    0.0000
     90 H32        6.4243   13.5489    1.4904 H         2 RES2    0.0000
     91 H33        4.2189   10.2038    1.7434 H         2 RES2    0.0000
     92 H34        2.5987   11.3555    2.9393 H         2 RES2    0.0000
     93 H35        1.9805   10.7633    7.5153 H         2 RES2    0.0000
     94 H36        1.1978   10.2272    9.6304 H         2 RES2    0.0000
     95 H37       -0.5673   11.4000   10.5495 H         2 RES2    0.0000
     96 H38        0.9571   13.2844    1.7988 H         2 RES2    0.0000
     97 H39       -0.3493   13.1018    2.5519 H         2 RES2    0.0000
     98 H40       -1.5015   13.1533    9.3912 H         2 RES2    0.0000
     99 H41       -0.6785   13.7877    7.3256 H         2 RES2    0.0000
    100 H42        2.1053   12.5868    5.8055 H         2 RES2    0.0000
@<TRIPOS>BOND
     1    1    8 2
     2    2   13 1
     3    3    7 2
     4    4    7 2
     5    5    8 1
     6    6    8 1
     7    7   21 1
     8    9    5 1
     9   10    9 1
    10   11   10 ar
    11   12   11 ar
    12   13   12 ar
    13   14    2 1
    14   15   13 ar
    15   16   10 ar
    16   17    5 1
    17   18   17 1
    18   19   18 ar
    19   20   19 ar
    20   21   20 ar
    21   22   21 ar
    22   23   18 ar
    23   24    6 1
    24   25   24 ar
    25   26   25 ar
    26   27   26 ar
    27   28   27 ar
    28   29   24 ar
    29   30    9 1
    30   31    9 1
    31   32   11 1
    32   33   12 1
    33   34   14 1
    34   35   14 1
    35   36   14 1
    36   37   15 1
    37   38   16 1
    38   39   17 1
    39   40   17 1
    40   41   19 1
    41   42   20 1
    42   43   22 1
    43   44   23 1
    44   45   25 1
    45   46   26 1
    46   47   27 1
    47   48   28 1
    48   49   29 1
    49   50    6 1
    50   51   65 2
    51   52   61 1
    52   53   57 2
    53   54   57 2
    54   55   65 1
    55   56   65 1
    56   57   70 1
    57   58   59 ar
    58   59   60 ar
    59   60   61 ar
    60   61   63 ar
    61   62   52 1
    62   63   64 ar
    63   64   58 ar
    64   66   55 1
    65   67   66 1
    66   68   67 ar
    67   69   68 ar
    68   70   69 ar
    69   71   70 ar
    70   72   67 ar
    71   73   56 1
    72   74   73 ar
    73   75   74 ar
    74   76   75 ar
    75   77   55 1
    76   78   76 ar
    77   79   73 ar
    78   80   59 1
    79   81   60 1
    80   82   62 1
    81   83   62 1
    82   84   62 1
    83   85   63 1
    84   86   64 1
    85   87   66 1
    86   88   66 1
    87   89   68 1
    88   90   69 1
    89   91   71 1
    90   92   72 1
    91   93   74 1
    92   94   75 1
    93   95   76 1
    94   96   77 1
    95   97   77 1
    96   98   78 1
    97   99   79 1
    98  100   56 1
    99   15   16 ar
   100   22   23 ar
   101   28   29 ar
   102   58   77 1
   103   71   72 ar
   104   78   79 ar
@<TRIPOS>SUBSTRUCTURE
     1 RES1 1
     2 RES2 51

@<TRIPOS>CRYSIN
   9.0183   23.4086   20.2651  90.0000 102.7320  90.0000  14 1

