# MOL2 file generated by ConQuest
# Please check atom types

@<TRIPOS>MOLECULE
PUNLOB
    35    34     1
SMALL
USER_CHARGES
****
Generated from CSD

@<TRIPOS>ATOM
      1 O1         4.8035    9.9695    3.3860 O.2       1 RES1   -1.0000
      2 O2         2.6394    8.7611    5.2024 O.2       1 RES1   -1.0000
      3 N1         5.9507    7.9991    3.2105 N.2       1 RES1    0.0000
      4 N2         5.2242    8.8560    3.7917 N.pl3     1 RES1    1.0000
      5 N3         3.7365    9.1840    5.6784 N.pl3     1 RES1    1.0000
      6 N4         3.9515   10.0934    6.5294 N.2       1 RES1    0.0000
      7 C1         4.9472    8.4864    5.2090 C.3       1 RES1    0.0000
      8 H1         4.8169    7.5075    5.2791 H         1 RES1    0.0000
      9 H2         5.7187    8.7376    5.7767 H         1 RES1    0.0000
     10 C2         6.4822    8.3466    1.8612 C.3       1 RES1    0.0000
     11 C3         7.4463    7.1971    1.5616 C.3       1 RES1    0.0000
     12 H3         8.1557    7.1812    2.2381 H         1 RES1    0.0000
     13 H4         7.8428    7.3260    0.6744 H         1 RES1    0.0000
     14 H5         6.9581    6.3473    1.5801 H         1 RES1    0.0000
     15 C4         5.3497    8.3648    0.8349 C.3       1 RES1    0.0000
     16 H6         4.7235    9.0867    1.0527 H         1 RES1    0.0000
     17 H7         4.8780    7.5059    0.8533 H         1 RES1    0.0000
     18 H8         5.7220    8.5136   -0.0596 H         1 RES1    0.0000
     19 C5         7.2641    9.6648    1.8758 C.3       1 RES1    0.0000
     20 H9         6.6422   10.4125    1.9955 H         1 RES1    0.0000
     21 H10        7.7428    9.7702    1.0270 H         1 RES1    0.0000
     22 H11        7.9084    9.6548    2.6144 H         1 RES1    0.0000
     23 C6         2.7643   10.7724    7.1234 C.3       1 RES1    0.0000
     24 C7         3.3806   11.8345    8.0343 C.3       1 RES1    0.0000
     25 H12        3.9013   12.4650    7.4946 H         1 RES1    0.0000
     26 H13        3.9678   11.4028    8.6892 H         1 RES1    0.0000
     27 H14        2.6672   12.3161    8.5031 H         1 RES1    0.0000
     28 C8         1.8882   11.4537    6.0668 C.3       1 RES1    0.0000
     29 H15        2.4351   12.0700    5.5372 H         1 RES1    0.0000
     30 H16        1.1704   11.9527    6.5097 H         1 RES1    0.0000
     31 H17        1.4981   10.7746    5.4786 H         1 RES1    0.0000
     32 C9         1.9769    9.7533    7.9628 C.3       1 RES1    0.0000
     33 H18        2.5480    9.4108    8.6820 H         1 RES1    0.0000
     34 H19        1.6910    9.0105    7.3908 H         1 RES1    0.0000
     35 H20        1.1893   10.1889    8.3510 H         1 RES1    0.0000
@<TRIPOS>BOND
     1    1    4 1
     2    2    5 1
     3    3    4 2
     4    4    7 1
     5    5    6 2
     6    6   23 1
     7    7    5 1
     8    8    7 1
     9    9    7 1
    10   10    3 1
    11   11   10 1
    12   12   11 1
    13   13   11 1
    14   14   11 1
    15   15   10 1
    16   16   15 1
    17   17   15 1
    18   18   15 1
    19   19   10 1
    20   20   19 1
    21   21   19 1
    22   22   19 1
    23   23   24 1
    24   24   25 1
    25   26   24 1
    26   27   24 1
    27   28   23 1
    28   29   28 1
    29   30   28 1
    30   31   28 1
    31   32   23 1
    32   33   32 1
    33   34   32 1
    34   35   32 1
@<TRIPOS>SUBSTRUCTURE
     1 RES1 1

@<TRIPOS>CRYSIN
   5.6782   10.5383   10.9094  70.5100  87.6510  87.2550   2 1

