# MOL2 file generated by ConQuest
# Please check atom types

@<TRIPOS>MOLECULE
PUNLIV
    36    35     1
SMALL
USER_CHARGES
****
Generated from CSD

@<TRIPOS>ATOM
      1 O1        -1.0691    2.8635    7.9223 O.2       1 RES1   -1.0000
      2 O2        -0.3380    2.6617   11.8287 O.2       1 RES1   -1.0000
      3 N1        -2.9089    1.1071   10.2785 N.1       1 RES1    0.0000
      4 N2         0.1020    2.7254   10.6483 N.pl3     1 RES1    1.0000
      5 N3        -0.2431    2.0107    8.3359 N.pl3     1 RES1    1.0000
      6 N4         0.9110    3.5087   10.1050 N.2       1 RES1    0.0000
      7 N5         0.7416    1.4618    7.7612 N.2       1 RES1    0.0000
      8 C1        -1.8167    1.3593   10.0562 C.1       1 RES1    0.0000
      9 C2        -0.3987    1.6073    9.7585 C.3       1 RES1    0.0000
     10 H1         0.1312    0.7762    9.9323 H         1 RES1    0.0000
     11 C3         1.0418    1.8999    6.3682 C.3       1 RES1    0.0000
     12 C4         1.4966    4.6007   10.9373 C.3       1 RES1    0.0000
     13 C5        -0.1139    1.5646    5.4306 C.3       1 RES1    0.0000
     14 H2        -0.4037    0.6419    5.5867 H         1 RES1    0.0000
     15 H3         0.1808    1.6622    4.5007 H         1 RES1    0.0000
     16 H4        -0.8611    2.1748    5.6022 H         1 RES1    0.0000
     17 C6         2.1971    4.0634   12.1855 C.3       1 RES1    0.0000
     18 H5         1.5281    3.7076   12.8073 H         1 RES1    0.0000
     19 H6         2.6939    4.7888   12.6185 H         1 RES1    0.0000
     20 H7         2.8175    3.3488   11.9301 H         1 RES1    0.0000
     21 C7         1.3985    3.3837    6.3538 C.3       1 RES1    0.0000
     22 H8         0.6208    3.9102    6.6334 H         1 RES1    0.0000
     23 H9         1.6623    3.6466    5.4471 H         1 RES1    0.0000
     24 H10        2.1422    3.5465    6.9708 H         1 RES1    0.0000
     25 C8         2.5289    5.2240    9.9991 C.3       1 RES1    0.0000
     26 H11        3.1918    4.5472    9.7472 H         1 RES1    0.0000
     27 H12        2.9769    5.9678   10.4539 H         1 RES1    0.0000
     28 H13        2.0794    5.5577    9.1947 H         1 RES1    0.0000
     29 C9         2.2734    1.0842    5.9950 C.3       1 RES1    0.0000
     30 H14        2.0437    0.1318    5.9842 H         1 RES1    0.0000
     31 H15        2.9820    1.2424    6.6535 H         1 RES1    0.0000
     32 H16        2.5873    1.3546    5.1070 H         1 RES1    0.0000
     33 C10        0.3961    5.6038   11.2857 C.3       1 RES1    0.0000
     34 H17       -0.2611    5.1769   11.8745 H         1 RES1    0.0000
     35 H18       -0.0464    5.9019   10.4639 H         1 RES1    0.0000
     36 H19        0.7903    6.3754   11.7423 H         1 RES1    0.0000
@<TRIPOS>BOND
     1    1    5 1
     2    2    4 1
     3    3    8 3
     4    4    6 2
     5    5    7 2
     6    6   12 1
     7    7   11 1
     8    8    9 1
     9    9    4 1
    10   10    9 1
    11   11   13 1
    12   12   17 1
    13   13   14 1
    14   15   13 1
    15   16   13 1
    16   17   18 1
    17   19   17 1
    18   20   17 1
    19   21   11 1
    20   22   21 1
    21   23   21 1
    22   24   21 1
    23   25   12 1
    24   26   25 1
    25   27   25 1
    26   28   25 1
    27   29   11 1
    28   30   29 1
    29   31   29 1
    30   32   29 1
    31   33   12 1
    32   34   33 1
    33   35   33 1
    34   36   33 1
    35    5    9 1
@<TRIPOS>SUBSTRUCTURE
     1 RES1 1

@<TRIPOS>CRYSIN
   5.9235   24.4080    9.3619  90.0000 103.1048  90.0000 231 1

