# MOL2 file generated by ConQuest
# Please check atom types

@<TRIPOS>MOLECULE
PUPXIJ
    70    76     1
SMALL
NO_CHARGES
****
Generated from CSD

@<TRIPOS>ATOM
      1 C1         0.3289    6.0865    5.7278 C.ar      1 RES1    0.0000
      2 C2         0.7863    6.5273    6.9123 C.ar      1 RES1    0.0000
      3 H1         0.8462    5.9536    7.6663 H         1 RES1    0.0000
      4 C3         1.1717    7.8790    6.9806 C.ar      1 RES1    0.0000
      5 H2         1.4775    8.2316    7.8070 H         1 RES1    0.0000
      6 C4         1.1159    8.6864    5.9006 C.ar      1 RES1    0.0000
      7 C5         0.5985    8.2047    4.7383 C.ar      1 RES1    0.0000
      8 H3         0.5237    8.7861    3.9899 H         1 RES1    0.0000
      9 C6         0.1801    6.9054    4.6129 C.ar      1 RES1    0.0000
     10 H4        -0.1927    6.5784    3.8032 H         1 RES1    0.0000
     11 C7         1.6606   10.1135    6.0790 C.3       1 RES1    0.0000
     12 H5         1.7153   10.2681    7.0656 H         1 RES1    0.0000
     13 C8         3.1062   10.1735    5.5591 C.3       1 RES1    0.0000
     14 C9         3.2837    9.6305    4.1167 C.2       1 RES1    0.0000
     15 C10        4.2952    8.5344    4.1822 C.ar      1 RES1    0.0000
     16 C11        4.8113    7.7908    3.1245 C.ar      1 RES1    0.0000
     17 H6         4.4957    7.8943    2.2340 H         1 RES1    0.0000
     18 C12        5.8100    6.9003    3.4450 C.ar      1 RES1    0.0000
     19 H7         6.1692    6.3803    2.7371 H         1 RES1    0.0000
     20 C13        6.3242    6.6997    4.6895 C.ar      1 RES1    0.0000
     21 H8         7.0353    6.0878    4.8345 H         1 RES1    0.0000
     22 C14        5.7449    7.4599    5.7905 C.ar      1 RES1    0.0000
     23 H9         6.0372    7.3488    6.6880 H         1 RES1    0.0000
     24 C15        4.7265    8.3696    5.4421 C.ar      1 RES1    0.0000
     25 C16        4.0460    9.2958    6.4092 C.2       1 RES1    0.0000
     26 C17        3.6865   11.6773    5.7041 C.3       1 RES1    0.0000
     27 H10        3.7888   11.7565    6.6949 H         1 RES1    0.0000
     28 C18        5.0995   11.8127    5.2498 C.ar      1 RES1    0.0000
     29 C19        5.5045   11.7066    3.8561 C.ar      1 RES1    0.0000
     30 H11        4.8482   11.5188    3.1956 H         1 RES1    0.0000
     31 C20        6.8074   11.8702    3.4729 C.ar      1 RES1    0.0000
     32 H12        7.0471   11.7871    2.5573 H         1 RES1    0.0000
     33 C21        7.6911   12.1308    4.3342 C.ar      1 RES1    0.0000
     34 C22        7.4005   12.2867    5.7668 C.ar      1 RES1    0.0000
     35 H13        8.0602   12.5269    6.4065 H         1 RES1    0.0000
     36 C23        6.1150   12.0580    6.0915 C.ar      1 RES1    0.0000
     37 H14        5.9039   12.0733    7.0169 H         1 RES1    0.0000
     38 C24        2.7392   12.8437    5.4017 C.3       1 RES1    0.0000
     39 C25        3.2359   14.0677    6.2420 C.2       1 RES1    0.0000
     40 C26        3.1720   15.2379    5.3125 C.ar      1 RES1    0.0000
     41 C27        3.3427   16.6292    5.6776 C.ar      1 RES1    0.0000
     42 H15        3.5425   16.9116    6.5625 H         1 RES1    0.0000
     43 C28        3.1930   17.5133    4.6184 C.ar      1 RES1    0.0000
     44 H16        3.3057   18.4422    4.7815 H         1 RES1    0.0000
     45 C29        2.8896   17.1058    3.3642 C.ar      1 RES1    0.0000
     46 H17        2.8102   17.7727    2.6939 H         1 RES1    0.0000
     47 C30        2.6886   15.7988    2.9879 C.ar      1 RES1    0.0000
     48 H18        2.4624   15.5356    2.1044 H         1 RES1    0.0000
     49 C31        2.8624   14.8662    4.0847 C.ar      1 RES1    0.0000
     50 C32        2.7055   13.3739    3.9969 C.2       1 RES1    0.0000
     51 C33        1.3294   12.5882    5.8741 C.3       1 RES1    0.0000
     52 H19        1.3079   12.6802    6.8594 H         1 RES1    0.0000
     53 H20        0.7400   13.2896    5.4978 H         1 RES1    0.0000
     54 C34        0.7617   11.2569    5.5132 C.3       1 RES1    0.0000
     55 H21        0.8271   11.1905    4.5181 H         1 RES1    0.0000
     56 C35       -0.7169   11.1087    5.8504 C.3       1 RES1    0.0000
     57 H22       -1.2432   11.8625    5.4825 H         1 RES1    0.0000
     58 H23       -1.0785   10.2591    5.4964 H         1 RES1    0.0000
     59 N1        -0.0639    4.6709    5.6051 N.pl3     1 RES1    0.0000
     60 N2         9.2294   12.3288    4.0136 N.pl3     1 RES1    0.0000
     61 O1        -0.5088    4.2467    4.5181 O.2       1 RES1    0.0000
     62 O2         0.0995    3.9107    6.5542 O.2       1 RES1    0.0000
     63 O3         2.6167    9.8899    3.1342 O.2       1 RES1    0.0000
     64 O4         4.1435    9.3469    7.5924 O.2       1 RES1    0.0000
     65 O5         9.3180   12.2215    2.8109 O.2       1 RES1    0.0000
     66 O6         9.9277   12.4477    4.8386 O.2       1 RES1    0.0000
     67 O7         3.5803   14.0779    7.4043 O.2       1 RES1    0.0000
     68 O8         2.4992   12.7441    2.9768 O.2       1 RES1    0.0000
     69 O9        -0.7265   11.1202    7.3374 O.3       1 RES1    0.0000
     70 H24       -0.6799   10.3320    7.6231 H         1 RES1    0.0000
@<TRIPOS>BOND
     1    1    2 ar
     2    2    3 1
     3    4    2 ar
     4    5    4 1
     5    6    4 ar
     6    7    6 ar
     7    8    7 1
     8    9    1 ar
     9   10    9 1
    10   11    6 1
    11   12   11 1
    12   13   11 1
    13   14   13 1
    14   15   14 1
    15   16   15 ar
    16   17   16 1
    17   18   16 ar
    18   19   18 1
    19   20   18 ar
    20   21   20 1
    21   22   20 ar
    22   23   22 1
    23   24   15 ar
    24   25   13 1
    25   26   13 1
    26   27   26 1
    27   28   26 1
    28   29   28 ar
    29   30   29 1
    30   31   29 ar
    31   32   31 1
    32   33   31 ar
    33   34   33 ar
    34   35   34 1
    35   36   28 ar
    36   37   36 1
    37   38   26 1
    38   39   38 1
    39   40   39 1
    40   41   40 ar
    41   42   41 1
    42   43   41 ar
    43   44   43 1
    44   45   43 ar
    45   46   45 1
    46   47   45 ar
    47   48   47 1
    48   49   40 ar
    49   50   38 1
    50   51   38 1
    51   52   51 1
    52   53   51 1
    53   54   11 1
    54   55   54 1
    55   56   54 1
    56   57   56 1
    57   58   56 1
    58   59    1 1
    59   60   33 1
    60   61   59 2
    61   62   59 2
    62   63   14 2
    63   64   25 2
    64   65   60 2
    65   66   60 2
    66   67   39 2
    67   68   50 2
    68   69   56 1
    69   70   69 1
    70    7    9 ar
    71   22   24 ar
    72   24   25 1
    73   34   36 ar
    74   47   49 ar
    75   49   50 1
    76   51   54 1
@<TRIPOS>SUBSTRUCTURE
     1 RES1 1

@<TRIPOS>CRYSIN
  20.1190   12.7760   14.1150  90.0000  99.1300  90.0000  14 1

