# MOL2 file generated by ConQuest
# Please check atom types

@<TRIPOS>MOLECULE
PUQGAK
    39    40     1
SMALL
NO_CHARGES
****
Generated from CSD

@<TRIPOS>ATOM
      1 C1         3.0645    4.7550    2.4153 C.ar      1 RES1    0.0000
      2 C2         2.5225    5.1809    3.6418 C.ar      1 RES1    0.0000
      3 C3         2.2066    4.2555    4.6123 C.ar      1 RES1    0.0000
      4 C4         2.4122    2.8640    4.3794 C.ar      1 RES1    0.0000
      5 C5         2.9409    2.4712    3.1573 C.ar      1 RES1    0.0000
      6 C6         3.2637    3.4000    2.1912 C.ar      1 RES1    0.0000
      7 C7         3.4259    5.7366    1.4029 C.2       1 RES1    0.0000
      8 C8         1.4838    5.9154    6.1454 C.3       1 RES1    0.0000
      9 C9         4.7851    9.3177   -2.2519 C.ar      1 RES1    0.0000
     10 C10        5.3324    8.9116   -3.4495 C.ar      1 RES1    0.0000
     11 C11        5.6645    9.8566   -4.4127 C.ar      1 RES1    0.0000
     12 C12        5.4616   11.2232   -4.2044 C.ar      1 RES1    0.0000
     13 C13        4.9069   11.6216   -2.9780 C.ar      1 RES1    0.0000
     14 C14        4.5791   10.6839   -2.0248 C.ar      1 RES1    0.0000
     15 C15        4.4200    8.3246   -1.2337 C.2       1 RES1    0.0000
     16 H1         2.4126    6.1136    3.8183 H         1 RES1    0.0000
     17 H2         3.6091    3.1239    1.3740 H         1 RES1    0.0000
     18 H3         3.0621    1.5120    2.9939 H         1 RES1    0.0000
     19 H4         2.2400    1.1354    5.2212 H         1 RES1    0.0000
     20 H5         1.7357    2.2232    6.0601 H         1 RES1    0.0000
     21 H6         2.3088    6.3925    6.1179 H         1 RES1    0.0000
     22 H7         1.1461    5.9288    7.0869 H         1 RES1    0.0000
     23 H8         0.8407    6.5086    5.4671 H         1 RES1    0.0000
     24 H9         4.3532    6.2699   -0.5207 H         1 RES1    0.0000
     25 H10        3.5175    7.7813    0.8823 H         1 RES1    0.0000
     26 H11        5.4660    7.9987   -3.6302 H         1 RES1    0.0000
     27 H12        4.2154   10.9695   -1.2728 H         1 RES1    0.0000
     28 H13        4.7695   12.5293   -2.7914 H         1 RES1    0.0000
     29 H14        6.1411   11.7949   -5.7853 H         1 RES1    0.0000
     30 N1         2.1108    1.9862    5.3687 N.pl3     1 RES1    0.0000
     31 N2         6.2309    9.3603   -5.6522 N.pl3     1 RES1    0.0000
     32 O1         3.1755    6.9809    1.6421 O.3       1 RES1    0.0000
     33 O2         3.9866    5.3648    0.3256 O.2       1 RES1    0.0000
     34 O3         1.6607    4.5313    5.8457 O.3       1 RES1    0.0000
     35 O4         4.6974    7.0957   -1.4661 O.3       1 RES1    0.0000
     36 O5         3.8476    8.7109   -0.1702 O.2       1 RES1    0.0000
     37 O6         6.4047    8.1593   -5.8158 O.2       1 RES1    0.0000
     38 O7         6.5390   10.1923   -6.5376 O.2       1 RES1    0.0000
     39 O8         5.7845   12.1879   -5.0823 O.3       1 RES1    0.0000
@<TRIPOS>BOND
     1    1    2 ar
     2    2    3 ar
     3    3    4 ar
     4    4    5 ar
     5    5    6 ar
     6    6    1 ar
     7    7    1 1
     8    8   21 1
     9    9   10 ar
    10   10   11 ar
    11   11   12 ar
    12   12   13 ar
    13   13   14 ar
    14   14    9 ar
    15   15    9 1
    16   16    2 1
    17   17    6 1
    18   18    5 1
    19   19   30 1
    20   20   30 1
    21   22    8 1
    22   23    8 1
    23   24   33 1
    24   25   32 1
    25   26   10 1
    26   27   14 1
    27   28   13 1
    28   29   39 1
    29   30    4 1
    30   31   11 1
    31   32    7 1
    32   33    7 2
    33   34    3 1
    34   35   15 1
    35   36   15 2
    36   37   31 2
    37   38   31 2
    38   39   12 1
    39    8   34 1
    40   24   35 1
@<TRIPOS>SUBSTRUCTURE
     1 RES1 1

@<TRIPOS>CRYSIN
   7.1740    7.3900   14.8100  87.8380  77.6650  73.0570   2 1

