# MOL2 file generated by ConQuest
# Please check atom types

@<TRIPOS>MOLECULE
PUQQOI
    36    37     1
SMALL
NO_CHARGES
****
Generated from CSD

@<TRIPOS>ATOM
      1 C1         2.4359    7.2810   15.8310 C.ar      1 RES1    0.0000
      2 C2         3.6583    6.6559   15.9310 C.ar      1 RES1    0.0000
      3 H1         4.1935    6.7665   16.6835 H         1 RES1    0.0000
      4 C3         4.0641    5.8589   14.8784 C.ar      1 RES1    0.0000
      5 H2         4.8821    5.4191   14.9256 H         1 RES1    0.0000
      6 C4         3.2751    5.7055   13.7591 C.ar      1 RES1    0.0000
      7 H3         3.5564    5.1620   13.0591 H         1 RES1    0.0000
      8 C5         2.0525    6.3707   13.6822 C.ar      1 RES1    0.0000
      9 C6         1.6207    7.1725   14.7191 C.ar      1 RES1    0.0000
     10 H4         0.8092    7.6248   14.6716 H         1 RES1    0.0000
     11 C7         0.5250    4.7086   10.9547 C.2       1 RES1    0.0000
     12 C8         0.7966    3.3554   10.3951 C.2       1 RES1    0.0000
     13 C9        -0.2268    2.7980    9.4540 C.3       1 RES1    0.0000
     14 H5        -0.8858    2.3074    9.9691 H         1 RES1    0.0000
     15 H6         0.2107    2.1663    8.8611 H         1 RES1    0.0000
     16 C10       -0.9480    3.8364    8.6087 C.3       1 RES1    0.0000
     17 C11       -1.5964    4.8284    9.5716 C.3       1 RES1    0.0000
     18 H7        -2.0421    5.5172    9.0543 H         1 RES1    0.0000
     19 H8        -2.2745    4.3630   10.0860 H         1 RES1    0.0000
     20 C12       -0.6416    5.4844   10.5205 C.2       1 RES1    0.0000
     21 C13        0.0315    4.5494    7.6862 C.3       1 RES1    0.0000
     22 H9         0.7076    4.9842    8.2112 H         1 RES1    0.0000
     23 H10       -0.4381    5.2043    7.1640 H         1 RES1    0.0000
     24 H11        0.4439    3.9096    7.1008 H         1 RES1    0.0000
     25 C14       -2.0407    3.1577    7.7836 C.3       1 RES1    0.0000
     26 H12       -1.6446    2.4976    7.2094 H         1 RES1    0.0000
     27 H13       -2.4935    3.8150    7.2499 H         1 RES1    0.0000
     28 H14       -2.6696    2.7341    8.3722 H         1 RES1    0.0000
     29 N1         1.9447    8.0458   16.9809 N.pl3     1 RES1    0.0000
     30 N2         1.2024    6.1792   12.5718 N.pl3     1 RES1    0.0000
     31 N3         1.3540    5.0670   11.9029 N.2       1 RES1    0.0000
     32 O1         2.6199    8.0815   17.9875 O.2       1 RES1    0.0000
     33 O2         0.8703    8.5976   16.8859 O.2       1 RES1    0.0000
     34 O3         1.7752    2.7135   10.7191 O.2       1 RES1    0.0000
     35 O4        -0.8459    6.6101   10.9576 O.2       1 RES1    0.0000
     36 H15        0.5064    6.7219   12.4163 H         1 RES1    0.0000
@<TRIPOS>BOND
     1    1    2 ar
     2    2    3 1
     3    4    2 ar
     4    5    4 1
     5    6    4 ar
     6    7    6 1
     7    8    6 ar
     8    9    1 ar
     9   10    9 1
    10   11   12 1
    11   12   13 1
    12   13   14 1
    13   15   13 1
    14   16   13 1
    15   17   16 1
    16   18   17 1
    17   19   17 1
    18   20   11 1
    19   21   16 1
    20   22   21 1
    21   23   21 1
    22   24   21 1
    23   25   16 1
    24   26   25 1
    25   27   25 1
    26   28   25 1
    27   29    1 1
    28   30    8 1
    29   31   11 2
    30   32   29 2
    31   33   29 2
    32   34   12 2
    33   35   20 2
    34   36   30 1
    35    8    9 ar
    36   17   20 1
    37   30   31 1
@<TRIPOS>SUBSTRUCTURE
     1 RES1 1

@<TRIPOS>CRYSIN
   5.8348   10.2105   12.1654  98.3530  95.1660 105.4500   2 1

