# MOL2 file generated by ConQuest
# Please check atom types

@<TRIPOS>MOLECULE
PUQQAU
    80    84     2
SMALL
NO_CHARGES
****
Generated from CSD

@<TRIPOS>ATOM
      1 C1         7.3273    0.6418   16.8737 C.3       1 RES1    0.0000
      2 H1         6.8984   -0.2142   16.6635 H         1 RES1    0.0000
      3 C2         8.6647    0.6755   16.1297 C.3       1 RES1    0.0000
      4 H2         8.9851    1.6017   16.1542 H         1 RES1    0.0000
      5 C3         9.7149   -0.1714   16.7833 C.2       1 RES1    0.0000
      6 C4         9.8307   -0.0946   18.2718 C.3       1 RES1    0.0000
      7 H3        10.7359    0.1743   18.4962 H         1 RES1    0.0000
      8 H4         9.6926   -0.9826   18.6351 H         1 RES1    0.0000
      9 C5         8.8674    0.8570   18.9491 C.3       1 RES1    0.0000
     10 H5         8.7840    0.5541   19.8769 H         1 RES1    0.0000
     11 C6         6.4061    1.7332   16.3985 C.ar      1 RES1    0.0000
     12 C7         5.2820    1.3963   15.6749 C.ar      1 RES1    0.0000
     13 H6         5.0697    0.5009   15.5442 H         1 RES1    0.0000
     14 C8         4.4732    2.3729   15.1464 C.ar      1 RES1    0.0000
     15 H7         3.7198    2.1336   14.6564 H         1 RES1    0.0000
     16 C9         4.7680    3.6953   15.3348 C.ar      1 RES1    0.0000
     17 H8         4.2219    4.3558   14.9723 H         1 RES1    0.0000
     18 C10        5.8741    4.0381   16.0614 C.ar      1 RES1    0.0000
     19 H9         6.0757    4.9350   16.2005 H         1 RES1    0.0000
     20 C11        6.6982    3.0570   16.5919 C.ar      1 RES1    0.0000
     21 H10        7.4517    3.2979   17.0801 H         1 RES1    0.0000
     22 C12        9.2409    2.3168   19.0044 C.ar      1 RES1    0.0000
     23 C13        8.4503    3.1383   19.7873 C.ar      1 RES1    0.0000
     24 H11        7.7352    2.7719   20.2554 H         1 RES1    0.0000
     25 C14        8.7006    4.4799   19.8870 C.ar      1 RES1    0.0000
     26 H12        8.1662    5.0148   20.4297 H         1 RES1    0.0000
     27 C15        9.7325    5.0310   19.1920 C.ar      1 RES1    0.0000
     28 H13        9.8865    5.9471   19.2342 H         1 RES1    0.0000
     29 C16       10.5396    4.2376   18.4338 C.ar      1 RES1    0.0000
     30 H14       11.2506    4.6144   17.9679 H         1 RES1    0.0000
     31 C17       10.3094    2.8723   18.3519 C.ar      1 RES1    0.0000
     32 H15       10.8811    2.3330   17.8535 H         1 RES1    0.0000
     33 C18        8.4574    0.3147   14.6663 C.3       1 RES1    0.0000
     34 H16        9.2984    0.3546   14.2044 H         1 RES1    0.0000
     35 H17        7.8440    0.9353   14.2670 H         1 RES1    0.0000
     36 H18        8.0998   -0.5748   14.6047 H         1 RES1    0.0000
     37 C19        3.6141    3.2683   22.4027 C.3       2 RES2    0.0000
     38 H19        3.7431    3.5786   21.4836 H         2 RES2    0.0000
     39 C20        2.7548    4.2967   23.1009 C.3       2 RES2    0.0000
     40 H20        3.0472    5.1788   22.8234 H         2 RES2    0.0000
     41 H21        1.8394    4.1859   22.8016 H         2 RES2    0.0000
     42 C21        2.7738    4.2405   24.5750 C.2       2 RES2    0.0000
     43 C22        3.7436    3.2890   25.2221 C.3       2 RES2    0.0000
     44 H22        3.3531    2.3936   25.1382 H         2 RES2    0.0000
     45 C23        5.1000    3.2402   24.5102 C.3       2 RES2    0.0000
     46 H23        5.5821    4.0529   24.7678 H         2 RES2    0.0000
     47 C24        5.9337    2.0745   24.9797 C.ar      2 RES2    0.0000
     48 C25        7.1047    2.2991   25.6752 C.ar      2 RES2    0.0000
     49 H24        7.4119    3.1678   25.7972 H         2 RES2    0.0000
     50 C26        7.8286    1.2249   26.1956 C.ar      2 RES2    0.0000
     51 H25        8.6082    1.3845   26.6768 H         2 RES2    0.0000
     52 C27        7.4036   -0.0547   26.0055 C.ar      2 RES2    0.0000
     53 H26        7.8900   -0.7683   26.3527 H         2 RES2    0.0000
     54 C28        6.2695   -0.2778   25.3103 C.ar      2 RES2    0.0000
     55 H27        5.9795   -1.1510   25.1763 H         2 RES2    0.0000
     56 C29        5.5248    0.7801   24.7896 C.ar      2 RES2    0.0000
     57 H28        4.7474    0.6058   24.3103 H         2 RES2    0.0000
     58 C30        3.0622    1.8617   22.3215 C.ar      2 RES2    0.0000
     59 C31        3.7823    0.9397   21.5996 C.ar      2 RES2    0.0000
     60 H29        4.5760    1.1983   21.1895 H         2 RES2    0.0000
     61 C32        3.3535   -0.3457   21.4746 C.ar      2 RES2    0.0000
     62 H30        3.8475   -0.9530   20.9744 H         2 RES2    0.0000
     63 C33        2.2128   -0.7402   22.0759 C.ar      2 RES2    0.0000
     64 H31        1.9387   -1.6268   22.0119 H         2 RES2    0.0000
     65 C34        1.4522    0.1611   22.7834 C.ar      2 RES2    0.0000
     66 H32        0.6576   -0.1093   23.1856 H         2 RES2    0.0000
     67 C35        1.8790    1.4775   22.8950 C.ar      2 RES2    0.0000
     68 H33        1.3626    2.0966   23.3572 H         2 RES2    0.0000
     69 C36        3.9133    3.5491   26.7021 C.3       2 RES2    0.0000
     70 H34        4.3705    4.3839   26.8293 H         2 RES2    0.0000
     71 H35        4.4260    2.8398   27.0962 H         2 RES2    0.0000
     72 H36        3.0503    3.5904   27.1207 H         2 RES2    0.0000
     73 N1         7.5491    0.6723   18.3295 N.3       1 RES1    0.0000
     74 N2         6.5789    0.3726   19.1773 N.2       1 RES1    0.0000
     75 N3         4.9375    3.2886   23.0554 N.3       2 RES2    0.0000
     76 N4         5.9376    3.6454   22.2761 N.2       2 RES2    0.0000
     77 O1         5.4944    0.1473   18.6422 O.2       1 RES1    0.0000
     78 O2        10.4634   -0.8856   16.1499 O.2       1 RES1    0.0000
     79 O3         7.0026    3.8097   22.8711 O.2       2 RES2    0.0000
     80 O4         2.0291    4.9335   25.2387 O.2       2 RES2    0.0000
@<TRIPOS>BOND
     1    1    2 1
     2    3    1 1
     3    4    3 1
     4    5    3 1
     5    6    5 1
     6    7    6 1
     7    8    6 1
     8    9    6 1
     9   10    9 1
    10   11    1 1
    11   12   11 ar
    12   13   12 1
    13   14   12 ar
    14   15   14 1
    15   16   14 ar
    16   17   16 1
    17   18   16 ar
    18   19   18 1
    19   20   11 ar
    20   21   20 1
    21   22    9 1
    22   23   22 ar
    23   24   23 1
    24   25   23 ar
    25   26   25 1
    26   27   25 ar
    27   28   27 1
    28   29   27 ar
    29   30   29 1
    30   31   22 ar
    31   32   31 1
    32   33    3 1
    33   34   33 1
    34   35   33 1
    35   36   33 1
    36   37   38 1
    37   39   37 1
    38   40   39 1
    39   41   39 1
    40   42   39 1
    41   43   42 1
    42   44   43 1
    43   45   43 1
    44   46   45 1
    45   47   45 1
    46   48   47 ar
    47   49   48 1
    48   50   48 ar
    49   51   50 1
    50   52   50 ar
    51   53   52 1
    52   54   52 ar
    53   55   54 1
    54   56   47 ar
    55   57   56 1
    56   58   37 1
    57   59   58 ar
    58   60   59 1
    59   61   59 ar
    60   62   61 1
    61   63   61 ar
    62   64   63 1
    63   65   63 ar
    64   66   65 1
    65   67   58 ar
    66   68   67 1
    67   69   43 1
    68   70   69 1
    69   71   69 1
    70   72   69 1
    71   73    1 1
    72   74   73 1
    73   75   37 1
    74   76   75 1
    75   77   74 2
    76   78    5 2
    77   79   76 2
    78   80   42 2
    79    9   73 1
    80   18   20 ar
    81   29   31 ar
    82   45   75 1
    83   54   56 ar
    84   65   67 ar
@<TRIPOS>SUBSTRUCTURE
     1 RES1 1
     2 RES2 37

@<TRIPOS>CRYSIN
   7.7134   14.7754   27.3210  90.0000  94.6170  90.0000 231 1

