# MOL2 file generated by ConQuest
# Please check atom types

@<TRIPOS>MOLECULE
PURSEB
    61    63     1
SMALL
NO_CHARGES
****
Generated from CSD

@<TRIPOS>ATOM
      1 N1         6.1267    6.3868    4.9002 N.3       1 RES1    0.0000
      2 C1         5.5200    7.6987    5.1241 C.3       1 RES1    0.0000
      3 H1         5.0187    7.6673    5.9537 H         1 RES1    0.0000
      4 H2         4.8879    7.8713    4.4084 H         1 RES1    0.0000
      5 C2         5.1199    5.3172    4.9488 C.3       1 RES1    0.0000
      6 H3         5.5069    4.4983    4.6002 H         1 RES1    0.0000
      7 H4         4.3705    5.5579    4.3812 H         1 RES1    0.0000
      8 C3         4.6208    5.0730    6.3544 C.3       1 RES1    0.0000
      9 H5         5.3634    4.9812    6.9720 H         1 RES1    0.0000
     10 H6         4.0556    5.8035    6.6499 H         1 RES1    0.0000
     11 C4         6.2956    6.6231    2.3500 C.3       1 RES1    0.0000
     12 H7         5.7528    7.4233    2.4321 H         1 RES1    0.0000
     13 H8         6.9740    6.7820    1.6755 H         1 RES1    0.0000
     14 C5         6.9526    6.3013    3.6834 C.3       1 RES1    0.0000
     15 H9         7.3082    5.4009    3.6293 H         1 RES1    0.0000
     16 H10        7.7073    6.9005    3.7950 H         1 RES1    0.0000
     17 C6         6.4850    8.8482    5.1935 C.3       1 RES1    0.0000
     18 H11        6.0692    9.6061    5.6328 H         1 RES1    0.0000
     19 H12        7.2716    8.5934    5.7003 H         1 RES1    0.0000
     20 O1         5.4733    5.5079    1.9684 O.3       1 RES1    0.0000
     21 O2         6.8577    9.1998    3.8404 O.3       1 RES1    0.0000
     22 O3         3.8730    3.8535    6.2742 O.3       1 RES1    0.0000
     23 C7         4.7806    5.5843    0.8022 C.ar      1 RES1    0.0000
     24 C8         3.3143    5.5110   -1.5312 C.ar      1 RES1    0.0000
     25 C9         4.0961    6.6045   -1.2530 C.ar      1 RES1    0.0000
     26 H13        4.1324    7.3134   -1.8531 H         1 RES1    0.0000
     27 C10        3.1756    3.4325    7.3582 C.ar      1 RES1    0.0000
     28 C11        4.8279    6.6529   -0.0827 C.ar      1 RES1    0.0000
     29 H14        5.3504    7.3980    0.1113 H         1 RES1    0.0000
     30 C12        3.9866    4.4838    0.5034 C.ar      1 RES1    0.0000
     31 H15        3.9495    3.7688    1.0965 H         1 RES1    0.0000
     32 C13        3.2536    4.4398   -0.6612 C.ar      1 RES1    0.0000
     33 H16        2.7261    3.6997   -0.8597 H         1 RES1    0.0000
     34 C14        2.4212    2.2851    7.1586 C.ar      1 RES1    0.0000
     35 H17        2.4320    1.8662    6.3278 H         1 RES1    0.0000
     36 C15        1.6489    2.4035    9.3693 C.ar      1 RES1    0.0000
     37 C16        3.1711    4.0600    8.5783 C.ar      1 RES1    0.0000
     38 H18        3.6866    4.8209    8.7209 H         1 RES1    0.0000
     39 C17        2.3860    3.5419    9.5956 C.ar      1 RES1    0.0000
     40 H19        2.3585    3.9605   10.4260 H         1 RES1    0.0000
     41 C18        1.6621    1.7639    8.1703 C.ar      1 RES1    0.0000
     42 H20        1.1663    0.9887    8.0412 H         1 RES1    0.0000
     43 C19        7.7390   10.2058    3.6286 C.ar      1 RES1    0.0000
     44 C20        9.4998   12.1983    2.9697 C.ar      1 RES1    0.0000
     45 C21        9.0073   12.1278    4.2387 C.ar      1 RES1    0.0000
     46 H21        9.2620   12.7595    4.8726 H         1 RES1    0.0000
     47 C22        8.2455   10.2907    2.3418 C.ar      1 RES1    0.0000
     48 H22        7.9875    9.6711    1.6992 H         1 RES1    0.0000
     49 C23        8.1300   11.1199    4.5835 C.ar      1 RES1    0.0000
     50 H23        7.8057   11.0572    5.4528 H         1 RES1    0.0000
     51 C24        9.1307   11.2929    2.0151 C.ar      1 RES1    0.0000
     52 H24        9.4734   11.3537    1.1533 H         1 RES1    0.0000
     53 N2         2.5578    5.4628   -2.7825 N.pl3     1 RES1    0.0000
     54 N3        10.4750   13.2422    2.6074 N.pl3     1 RES1    0.0000
     55 N4         0.8207    1.8582   10.4461 N.pl3     1 RES1    0.0000
     56 O4         1.8560    4.4838   -3.0154 O.2       1 RES1    0.0000
     57 O5         2.6411    6.3974   -3.5592 O.2       1 RES1    0.0000
     58 O6        10.9406   13.9236    3.5351 O.2       1 RES1    0.0000
     59 O7         0.1563    0.8786   10.2259 O.2       1 RES1    0.0000
     60 O8        10.7736   13.3763    1.4470 O.2       1 RES1    0.0000
     61 O9         0.7773    2.4654   11.4968 O.2       1 RES1    0.0000
@<TRIPOS>BOND
     1    1    2 1
     2    2    3 1
     3    4    2 1
     4    5    1 1
     5    6    5 1
     6    7    5 1
     7    8    5 1
     8    9    8 1
     9   10    8 1
    10   11   12 1
    11   13   11 1
    12   14    1 1
    13   15   14 1
    14   16   14 1
    15   17    2 1
    16   18   17 1
    17   19   17 1
    18   20   11 1
    19   21   17 1
    20   22    8 1
    21   23   20 1
    22   24   25 ar
    23   25   26 1
    24   27   22 1
    25   28   23 ar
    26   29   28 1
    27   30   23 ar
    28   31   30 1
    29   32   24 ar
    30   33   32 1
    31   34   27 ar
    32   35   34 1
    33   36   39 ar
    34   37   27 ar
    35   38   37 1
    36   39   37 ar
    37   40   39 1
    38   41   34 ar
    39   42   41 1
    40   43   21 1
    41   44   45 ar
    42   45   46 1
    43   47   43 ar
    44   48   47 1
    45   49   43 ar
    46   50   49 1
    47   51   44 ar
    48   52   51 1
    49   53   24 1
    50   54   44 1
    51   55   36 1
    52   56   53 2
    53   57   53 2
    54   58   54 2
    55   59   55 2
    56   60   54 2
    57   61   55 2
    58   11   14 1
    59   25   28 ar
    60   30   32 ar
    61   36   41 ar
    62   45   49 ar
    63   47   51 ar
@<TRIPOS>SUBSTRUCTURE
     1 RES1 1

@<TRIPOS>CRYSIN
   9.2520   11.9500   12.4450  73.2440  78.5890  70.4750   2 1

