# MOL2 file generated by ConQuest
# Please check atom types

@<TRIPOS>MOLECULE
PURSEB01
    61    63     1
SMALL
NO_CHARGES
****
Generated from CSD

@<TRIPOS>ATOM
      1 C1        -1.7374    4.6150   12.9864 C.ar      1 RES1    0.0000
      2 C2        -2.6050    4.8137   15.5829 C.ar      1 RES1    0.0000
      3 C3        -1.5727    3.9460   15.2810 C.ar      1 RES1    0.0000
      4 H1        -1.1781    3.4327   15.9480 H         1 RES1    0.0000
      5 C4        -3.1999    5.5735   14.6070 C.ar      1 RES1    0.0000
      6 H2        -3.8924    6.1545   14.8265 H         1 RES1    0.0000
      7 C5        -2.7715    5.4744   13.3041 C.ar      1 RES1    0.0000
      8 H3        -3.1766    5.9833   12.6394 H         1 RES1    0.0000
      9 C6        -1.1395    3.8552   13.9807 C.ar      1 RES1    0.0000
     10 H4        -0.4403    3.2794   13.7655 H         1 RES1    0.0000
     11 C7         0.3600    0.7070   12.2528 C.ar      1 RES1    0.0000
     12 C8         1.2572    0.0418   14.7565 C.ar      1 RES1    0.0000
     13 C9         1.5152    1.2946   12.7551 C.ar      1 RES1    0.0000
     14 H5         1.9906    1.9075   12.2428 H         1 RES1    0.0000
     15 C10       -0.3365   -0.2132   13.0234 C.ar      1 RES1    0.0000
     16 H6        -1.1140   -0.5993   12.6896 H         1 RES1    0.0000
     17 C11        1.9500    0.9607   14.0178 C.ar      1 RES1    0.0000
     18 H7         2.7139    1.3599   14.3684 H         1 RES1    0.0000
     19 C12        0.1107   -0.5559   14.2687 C.ar      1 RES1    0.0000
     20 H8        -0.3492   -1.1827   14.7798 H         1 RES1    0.0000
     21 C13       -2.3010    2.9421    2.9427 C.ar      1 RES1    0.0000
     22 H9        -2.8086    3.4904    2.3888 H         1 RES1    0.0000
     23 C14       -1.7789    2.0974    5.1161 C.ar      1 RES1    0.0000
     24 C15       -1.3151    2.1506    2.4136 C.ar      1 RES1    0.0000
     25 C16       -0.5456    1.3458    3.2173 C.ar      1 RES1    0.0000
     26 H10        0.1299    0.8243    2.8470 H         1 RES1    0.0000
     27 C17       -2.5346    2.9200    4.2979 C.ar      1 RES1    0.0000
     28 H11       -3.2003    3.4566    4.6649 H         1 RES1    0.0000
     29 C18       -0.7754    1.3131    4.5630 C.ar      1 RES1    0.0000
     30 H12       -0.2591    0.7646    5.1093 H         1 RES1    0.0000
     31 O1        -1.9322    1.9929    6.4577 O.3       1 RES1    0.0000
     32 O2        -1.2349    4.4436   11.7411 O.3       1 RES1    0.0000
     33 O3        -0.1638    0.9619   11.0356 O.3       1 RES1    0.0000
     34 O4        -2.4838    4.2753   17.8237 O.2       1 RES1    0.0000
     35 O5        -1.7512    2.8760    0.2673 O.2       1 RES1    0.0000
     36 O6        -0.1739    1.4800    0.5272 O.2       1 RES1    0.0000
     37 O7        -4.0606    5.5986   17.2008 O.2       1 RES1    0.0000
     38 O8         1.3009   -1.3165   16.6219 O.2       1 RES1    0.0000
     39 O9         2.5853    0.4094   16.6085 O.2       1 RES1    0.0000
     40 C19        0.4748    1.9383   10.2032 C.3       1 RES1    0.0000
     41 H13        1.3607    1.6347    9.9486 H         1 RES1    0.0000
     42 H14        0.5641    2.7776   10.6803 H         1 RES1    0.0000
     43 C20       -0.3844    2.1245    8.9759 C.3       1 RES1    0.0000
     44 H15        0.1337    2.5685    8.2869 H         1 RES1    0.0000
     45 H16       -0.6498    1.2564    8.6356 H         1 RES1    0.0000
     46 C21       -1.3686    4.3464    9.3788 C.3       1 RES1    0.0000
     47 H17       -1.7471    4.7866    8.6014 H         1 RES1    0.0000
     48 H18       -0.4159    4.5298    9.3912 H         1 RES1    0.0000
     49 C22       -1.9982    4.9119   10.6218 C.3       1 RES1    0.0000
     50 H19       -1.9883    5.8817   10.5914 H         1 RES1    0.0000
     51 H20       -2.9188    4.6154   10.6962 H         1 RES1    0.0000
     52 C23       -2.9034    2.8130    7.1182 C.3       1 RES1    0.0000
     53 H21       -3.7941    2.6044    6.7961 H         1 RES1    0.0000
     54 H22       -2.7252    3.7513    6.9431 H         1 RES1    0.0000
     55 C24       -2.8035    2.5303    8.5978 C.3       1 RES1    0.0000
     56 H23       -3.5389    2.9827    9.0391 H         1 RES1    0.0000
     57 H24       -2.9316    1.5770    8.7291 H         1 RES1    0.0000
     58 N1        -1.5777    2.9134    9.2670 N.3       1 RES1    0.0000
     59 N2        -1.0606    2.1745    0.9739 N.pl3     1 RES1    0.0000
     60 N3        -3.0795    4.8987   16.9627 N.pl3     1 RES1    0.0000
     61 N4         1.7489   -0.3212   16.0807 N.pl3     1 RES1    0.0000
@<TRIPOS>BOND
     1    1    7 ar
     2    2    3 ar
     3    3    4 1
     4    5    2 ar
     5    6    5 1
     6    7    5 ar
     7    8    7 1
     8    9    1 ar
     9   10    9 1
    10   11   13 ar
    11   12   17 ar
    12   13   14 1
    13   15   11 ar
    14   16   15 1
    15   17   13 ar
    16   18   17 1
    17   19   12 ar
    18   20   19 1
    19   21   22 1
    20   23   27 ar
    21   24   21 ar
    22   25   24 ar
    23   26   25 1
    24   27   21 ar
    25   28   27 1
    26   29   23 ar
    27   30   29 1
    28   31   23 1
    29   32    1 1
    30   33   11 1
    31   34   60 2
    32   35   59 2
    33   36   59 2
    34   37   60 2
    35   38   61 2
    36   39   61 2
    37   40   33 1
    38   41   40 1
    39   42   40 1
    40   43   40 1
    41   44   43 1
    42   45   43 1
    43   46   47 1
    44   48   46 1
    45   49   32 1
    46   50   49 1
    47   51   49 1
    48   52   31 1
    49   53   52 1
    50   54   52 1
    51   55   52 1
    52   56   55 1
    53   57   55 1
    54   58   43 1
    55   59   24 1
    56   60    2 1
    57   61   12 1
    58    3    9 ar
    59   15   19 ar
    60   25   29 ar
    61   46   49 1
    62   46   58 1
    63   55   58 1
@<TRIPOS>SUBSTRUCTURE
     1 RES1 1

@<TRIPOS>CRYSIN
  10.5408   19.9111   11.8327  90.0000 105.5940  90.0000 231 1

