# MOL2 file generated by ConQuest
# Please check atom types

@<TRIPOS>MOLECULE
PUSHAN
    66    70     2
SMALL
NO_CHARGES
****
Generated from CSD

@<TRIPOS>ATOM
      1 O1         4.1892    5.4329   11.9753 O.2       1 RES1    0.0000
      2 O2         6.1137    4.6722   11.4247 O.2       1 RES1    0.0000
      3 N1         4.8928    4.5860   11.4611 N.pl3     1 RES1    0.0000
      4 N2         2.2079    2.1031    6.8716 N.ar      1 RES1    0.0000
      5 C1         4.2314    3.4047   10.8627 C.ar      1 RES1    0.0000
      6 C2         2.9147    3.5090   10.4872 C.ar      1 RES1    0.0000
      7 H1         2.4418    4.3241   10.6124 H         1 RES1    0.0000
      8 C3         2.2842    2.4126    9.9229 C.ar      1 RES1    0.0000
      9 C4         2.9951    1.2381    9.7978 C.ar      1 RES1    0.0000
     10 H2         2.5665    0.4705    9.4383 H         1 RES1    0.0000
     11 C5         4.3303    1.1542   10.1846 C.ar      1 RES1    0.0000
     12 H3         4.7991    0.3345   10.0868 H         1 RES1    0.0000
     13 C6         4.9722    2.2460   10.7079 C.ar      1 RES1    0.0000
     14 H4         5.8881    2.2085   10.9537 H         1 RES1    0.0000
     15 C7         0.8356    2.5033    9.5634 C.ar      1 RES1    0.0000
     16 C8        -0.0484    3.1155   10.4508 C.ar      1 RES1    0.0000
     17 H5         0.2926    3.4863   11.2563 H         1 RES1    0.0000
     18 C9        -1.3950    3.2006   10.1983 C.ar      1 RES1    0.0000
     19 H6        -1.9679    3.6371   10.8194 H         1 RES1    0.0000
     20 C10       -1.9153    2.6530    9.0515 C.ar      1 RES1    0.0000
     21 H7        -2.8488    2.6995    8.8763 H         1 RES1    0.0000
     22 C11       -1.0550    2.0283    8.1459 C.ar      1 RES1    0.0000
     23 H8        -1.4146    1.6428    7.3563 H         1 RES1    0.0000
     24 C12        0.3266    1.9546    8.3757 C.ar      1 RES1    0.0000
     25 C13        1.1622    1.3752    7.3085 C.ar      1 RES1    0.0000
     26 C14        0.8510    0.1304    6.7465 C.ar      1 RES1    0.0000
     27 H9         0.1247   -0.3798    7.0855 H         1 RES1    0.0000
     28 C15        1.6073   -0.3458    5.7021 C.ar      1 RES1    0.0000
     29 H10        1.3930   -1.1768    5.2948 H         1 RES1    0.0000
     30 C16        2.6715    0.3889    5.2561 C.ar      1 RES1    0.0000
     31 H11        3.2176    0.0703    4.5462 H         1 RES1    0.0000
     32 C17        2.9332    1.6065    5.8568 C.ar      1 RES1    0.0000
     33 H12        3.6658    2.1190    5.5360 H         1 RES1    0.0000
     34 O3         3.9553    0.1825    1.1673 O.2       2 RES2    0.0000
     35 O4         2.0225    0.8775    1.8544 O.2       2 RES2    0.0000
     36 N3         3.2341    1.0045    1.7384 N.pl3     2 RES2    0.0000
     37 N4         5.8860    3.5634    6.2800 N.ar      2 RES2    0.0000
     38 C18        3.8615    2.1915    2.3095 C.ar      2 RES2    0.0000
     39 C19        3.1197    3.3400    2.4688 C.ar      2 RES2    0.0000
     40 H13        2.1955    3.3582    2.2458 H         2 RES2    0.0000
     41 C20        3.7544    4.4647    2.9603 C.ar      2 RES2    0.0000
     42 H14        3.2743    5.2810    3.0399 H         2 RES2    0.0000
     43 C21        5.0814    4.4114    3.3312 C.ar      2 RES2    0.0000
     44 H15        5.4945    5.1880    3.6907 H         2 RES2    0.0000
     45 C22        5.8335    3.2391    3.1946 C.ar      2 RES2    0.0000
     46 C23        5.2112    2.1190    2.6576 C.ar      2 RES2    0.0000
     47 H16        5.6985    1.3140    2.5279 H         2 RES2    0.0000
     48 C24        7.2780    3.1858    3.5701 C.ar      2 RES2    0.0000
     49 C25        8.1547    2.5793    2.6713 C.ar      2 RES2    0.0000
     50 H17        7.8240    2.2097    1.8613 H         2 RES2    0.0000
     51 C26        9.5312    2.5113    2.9648 C.ar      2 RES2    0.0000
     52 H18       10.1267    2.0918    2.3550 H         2 RES2    0.0000
     53 C27       10.0082    3.0532    4.1298 C.ar      2 RES2    0.0000
     54 H19       10.9365    3.0090    4.3255 H         2 RES2    0.0000
     55 C28        9.1572    3.6563    5.0104 C.ar      2 RES2    0.0000
     56 H20        9.5085    4.0418    5.8045 H         2 RES2    0.0000
     57 C29        7.7828    3.7187    4.7737 C.ar      2 RES2    0.0000
     58 C30        6.9246    4.3048    5.8455 C.ar      2 RES2    0.0000
     59 C31        7.2347    5.5293    6.4052 C.ar      2 RES2    0.0000
     60 H21        7.9652    6.0372    6.0707 H         2 RES2    0.0000
     61 C32        6.4795    6.0089    7.4541 C.ar      2 RES2    0.0000
     62 H22        6.6835    6.8456    7.8569 H         2 RES2    0.0000
     63 C33        5.4234    5.2493    7.9069 C.ar      2 RES2    0.0000
     64 H23        4.8846    5.5497    8.6282 H         2 RES2    0.0000
     65 C34        5.1638    4.0498    7.2903 C.ar      2 RES2    0.0000
     66 H24        4.4282    3.5362    7.6043 H         2 RES2    0.0000
@<TRIPOS>BOND
     1    1    3 2
     2    2    3 2
     3    3    5 1
     4    4   25 ar
     5    5    6 ar
     6    6    7 1
     7    8    6 ar
     8    9    8 ar
     9   10    9 1
    10   11    9 ar
    11   12   11 1
    12   13    5 ar
    13   14   13 1
    14   15    8 1
    15   16   15 ar
    16   17   16 1
    17   18   16 ar
    18   19   18 1
    19   20   18 ar
    20   21   20 1
    21   22   20 ar
    22   23   22 1
    23   24   15 ar
    24   25   24 1
    25   26   25 ar
    26   27   26 1
    27   28   26 ar
    28   29   28 1
    29   30   28 ar
    30   31   30 1
    31   32    4 ar
    32   33   32 1
    33   34   36 2
    34   35   36 2
    35   36   38 1
    36   37   58 ar
    37   38   39 ar
    38   39   40 1
    39   41   39 ar
    40   42   41 1
    41   43   41 ar
    42   44   43 1
    43   45   43 ar
    44   46   38 ar
    45   47   46 1
    46   48   45 1
    47   49   48 ar
    48   50   49 1
    49   51   49 ar
    50   52   51 1
    51   53   51 ar
    52   54   53 1
    53   55   53 ar
    54   56   55 1
    55   57   48 ar
    56   58   57 1
    57   59   58 ar
    58   60   59 1
    59   61   59 ar
    60   62   61 1
    61   63   61 ar
    62   64   63 1
    63   65   37 ar
    64   66   65 1
    65   11   13 ar
    66   22   24 ar
    67   30   32 ar
    68   45   46 ar
    69   55   57 ar
    70   63   65 ar
@<TRIPOS>SUBSTRUCTURE
     1 RES1 1
     2 RES2 34

@<TRIPOS>CRYSIN
  10.3029   11.3375   22.7538  90.0000  90.0000  90.0000  29 1

