# MOL2 file generated by ConQuest
# Please check atom types

@<TRIPOS>MOLECULE
PUSMAS
    44    46     1
SMALL
NO_CHARGES
****
Generated from CSD

@<TRIPOS>ATOM
      1 O1         1.3901    2.5875    1.7423 O.3       1 RES1    0.0000
      2 O2        -2.7855    0.3642    2.2154 O.3       1 RES1    0.0000
      3 O3        -4.9460    1.1166    1.6382 O.3       1 RES1    0.0000
      4 O4         1.2441    1.1610    0.0351 O.2       1 RES1    0.0000
      5 N1        -0.5152    1.2620    1.4896 N.am      1 RES1    0.0000
      6 H1        -0.8718    0.5323    1.1518 H         1 RES1    0.0000
      7 N2        -2.4327    1.5894    2.8770 N.2       1 RES1    0.0000
      8 C1         1.7603    3.9995    3.6610 C.ar      1 RES1    0.0000
      9 C2        -0.5901    3.1718    3.0421 C.3       1 RES1    0.0000
     10 H2        -0.9399    3.3580    3.9480 H         1 RES1    0.0000
     11 H3        -0.7576    3.9622    2.4704 H         1 RES1    0.0000
     12 C3        -1.2560    1.9566    2.4630 C.2       1 RES1    0.0000
     13 C4         2.3336    4.9323    2.8286 C.ar      1 RES1    0.0000
     14 H4         2.2238    4.8470    1.8887 H         1 RES1    0.0000
     15 C5        -4.2078    0.0951    2.3042 C.3       1 RES1    0.0000
     16 C6         1.9358    4.1052    5.0946 C.ar      1 RES1    0.0000
     17 C7         0.7143    1.6332    1.0304 C.2       1 RES1    0.0000
     18 C8         1.4197    3.1566    6.0448 C.ar      1 RES1    0.0000
     19 H5         0.9210    2.4101    5.7359 H         1 RES1    0.0000
     20 C9         0.9050    2.8683    3.1031 C.3       1 RES1    0.0000
     21 H6         1.0423    2.0540    3.6668 H         1 RES1    0.0000
     22 C10        2.6639    5.2352    5.6025 C.ar      1 RES1    0.0000
     23 C11        3.0839    6.0162    3.3430 C.ar      1 RES1    0.0000
     24 H7         3.4823    6.6373    2.7419 H         1 RES1    0.0000
     25 C12        3.2472    6.1826    4.6872 C.ar      1 RES1    0.0000
     26 H8         3.7433    6.9209    5.0184 H         1 RES1    0.0000
     27 C13       -4.7040    0.1453    3.7518 C.3       1 RES1    0.0000
     28 H9        -4.5935    1.0530    4.1051 H         1 RES1    0.0000
     29 H10       -4.1865   -0.4827    4.2971 H         1 RES1    0.0000
     30 H11       -5.6508   -0.1027    3.7813 H         1 RES1    0.0000
     31 C14        2.3491    4.4367    7.8825 C.ar      1 RES1    0.0000
     32 H12        2.4798    4.5441    8.8171 H         1 RES1    0.0000
     33 C15        2.8489    5.3648    7.0110 C.ar      1 RES1    0.0000
     34 H13        3.3283    6.1113    7.3511 H         1 RES1    0.0000
     35 C16        1.6386    3.3148    7.3897 C.ar      1 RES1    0.0000
     36 H14        1.3097    2.6634    7.9988 H         1 RES1    0.0000
     37 C17       -4.3464   -1.2754    1.6638 C.3       1 RES1    0.0000
     38 H15       -5.2980   -1.4908    1.5571 H         1 RES1    0.0000
     39 H16       -3.9211   -1.9478    2.2358 H         1 RES1    0.0000
     40 H17       -3.9108   -1.2719    0.7853 H         1 RES1    0.0000
     41 C18       -4.5687    1.3524    0.2705 C.3       1 RES1    0.0000
     42 H18       -3.6265    1.6168    0.2327 H         1 RES1    0.0000
     43 H19       -5.1235    2.0675   -0.1028 H         1 RES1    0.0000
     44 H20       -4.6973    0.5318   -0.2501 H         1 RES1    0.0000
@<TRIPOS>BOND
     1    1   17 1
     2    2    7 1
     3    3   15 1
     4    4   17 2
     5    5    6 1
     6    7   12 2
     7    8   13 ar
     8    9   10 1
     9   11    9 1
    10   12    5 1
    11   13   14 1
    12   15    2 1
    13   16    8 ar
    14   17    5 1
    15   18   16 ar
    16   19   18 1
    17   20    1 1
    18   21   20 1
    19   22   16 ar
    20   23   13 ar
    21   24   23 1
    22   25   22 ar
    23   26   25 1
    24   27   15 1
    25   28   27 1
    26   29   27 1
    27   30   27 1
    28   31   32 1
    29   33   22 ar
    30   34   33 1
    31   35   18 ar
    32   36   35 1
    33   37   15 1
    34   38   37 1
    35   39   37 1
    36   40   37 1
    37   41    3 1
    38   42   41 1
    39   43   41 1
    40   44   41 1
    41    8   20 1
    42    9   12 1
    43    9   20 1
    44   23   25 ar
    45   31   33 ar
    46   31   35 ar
@<TRIPOS>SUBSTRUCTURE
     1 RES1 1

@<TRIPOS>CRYSIN
  29.7990    5.8370   22.8930  90.0000 122.1100  90.0000  15 1

