# MOL2 file generated by ConQuest
# Please check atom types

@<TRIPOS>MOLECULE
PUTCUC
    24    26     1
SMALL
USER_CHARGES
****
Generated from CSD

@<TRIPOS>ATOM
      1 C1         7.1649    4.4302    1.8224 C.ar      1 RES1    0.0000
      2 N1         6.0457    4.9455    2.4410 N.pl3     1 RES1    0.0000
      3 N2         4.7022    4.8645    2.3242 N.2       1 RES1   -1.0000
      4 C2         4.2971    5.5343    3.4100 C.2       1 RES1    0.0000
      5 C3         5.3236    6.0147    4.1777 C.2       1 RES1    0.0000
      6 N3         5.3424    6.7391    5.3737 N.pl3     1 RES1    0.0000
      7 O1         4.2343    6.9378    5.8999 O.2       1 RES1    0.0000
      8 O2         6.4028    7.1385    5.8154 O.2       1 RES1    0.0000
      9 N4         6.4678    5.6021    3.5324 N.pl3     1 RES1    1.0000
     10 N5         7.8055    5.5832    3.7315 N.2       1 RES1    0.0000
     11 C4         8.2143    4.8362    2.6501 C.ar      1 RES1    0.0000
     12 C5         9.5257    4.4133    2.2685 C.ar      1 RES1    0.0000
     13 N6        10.6784    4.6921    3.0929 N.pl3     1 RES1    0.0000
     14 O3        11.7876    4.3502    2.6835 O.2       1 RES1    0.0000
     15 O4        10.5170    5.2403    4.1743 O.2       1 RES1    0.0000
     16 C6         9.6829    3.6766    1.1370 C.ar      1 RES1    0.0000
     17 C7         8.5848    3.3337    0.3749 C.ar      1 RES1    0.0000
     18 N7         8.7998    2.5236   -0.8411 N.pl3     1 RES1    0.0000
     19 O5         7.8159    2.0366   -1.3874 O.2       1 RES1    0.0000
     20 O6         9.9553    2.3964   -1.2349 O.2       1 RES1    0.0000
     21 C8         7.2783    3.6766    0.6776 C.ar      1 RES1    0.0000
     22 H1         3.3921    5.6077    3.5101 H         1 RES1    0.0000
     23 H2        10.5166    3.3262    0.9045 H         1 RES1    0.0000
     24 H3         6.4903    3.4703    0.1724 H         1 RES1    0.0000
@<TRIPOS>BOND
     1    1    2 1
     2    2    3 1
     3    3    4 1
     4    4    5 2
     5    5    6 1
     6    6    7 2
     7    8    6 2
     8    9    2 1
     9   10    9 2
    10   11    1 ar
    11   12   11 ar
    12   13   12 1
    13   14   13 2
    14   15   13 2
    15   16   12 ar
    16   17   16 ar
    17   18   17 1
    18   19   18 2
    19   20   18 2
    20   21    1 ar
    21   22    4 1
    22   23   16 1
    23   24   21 1
    24    5    9 1
    25   10   11 1
    26   17   21 ar
@<TRIPOS>SUBSTRUCTURE
     1 RES1 1

@<TRIPOS>CRYSIN
  10.4390    9.4200   11.6560  90.0000 107.3500  90.0000  14 1

