# MOL2 file generated by ConQuest
# Please check atom types

@<TRIPOS>MOLECULE
PUTNOJ
    55    60     1
SMALL
NO_CHARGES
****
Generated from CSD

@<TRIPOS>ATOM
      1 O1        -0.1545    0.5490    3.2818 O.2       1 RES1    0.0000
      2 O2         0.0411    5.0778    2.7658 O.2       1 RES1    0.0000
      3 O3         2.3860    4.6084    8.9018 O.2       1 RES1    0.0000
      4 O4         3.7325    2.9805    8.4902 O.2       1 RES1    0.0000
      5 N1        -3.6061    4.1739   -0.9600 N.3       1 RES1    0.0000
      6 N2         0.1424    2.8303    3.3118 N.am      1 RES1    0.0000
      7 N3         2.7642    3.6803    8.2135 N.pl3     1 RES1    0.0000
      8 C1        -4.6054    2.4408    0.0940 C.ar      1 RES1    0.0000
      9 C2        -5.6653    1.5713    0.3691 C.ar      1 RES1    0.0000
     10 H1        -5.5873    0.9203    1.0274 H         1 RES1    0.0000
     11 C3        -6.8289    1.7006   -0.3572 C.ar      1 RES1    0.0000
     12 H2        -7.5430    1.1337   -0.1766 H         1 RES1    0.0000
     13 C4        -6.9576    2.6576   -1.3542 C.ar      1 RES1    0.0000
     14 H3        -7.7565    2.7179   -1.8272 H         1 RES1    0.0000
     15 C5        -5.9277    3.5219   -1.6579 C.ar      1 RES1    0.0000
     16 H4        -6.0109    4.1502   -2.3378 H         1 RES1    0.0000
     17 C6        -4.7626    3.4184   -0.9126 C.ar      1 RES1    0.0000
     18 C7        -2.7336    3.6833    0.0006 C.2       1 RES1    0.0000
     19 C8        -3.2899    2.6227    0.6413 C.2       1 RES1    0.0000
     20 C9        -2.6063    1.8795    1.7513 C.3       1 RES1    0.0000
     21 H5        -2.8721    0.9387    1.6869 H         1 RES1    0.0000
     22 C10       -1.0629    1.9559    1.4935 C.3       1 RES1    0.0000
     23 H6        -0.8154    1.3212    0.7892 H         1 RES1    0.0000
     24 C11       -0.3113    1.6252    2.7636 C.2       1 RES1    0.0000
     25 C12       -0.1147    3.9185    2.4626 C.2       1 RES1    0.0000
     26 C13       -0.5424    3.3537    1.1342 C.3       1 RES1    0.0000
     27 H7         0.2848    3.2072    0.6296 H         1 RES1    0.0000
     28 C14       -1.4004    4.2838    0.2667 C.3       1 RES1    0.0000
     29 H8        -1.5135    5.1341    0.7190 H         1 RES1    0.0000
     30 H9        -0.9475    4.4498   -0.5743 H         1 RES1    0.0000
     31 C15        0.7600    2.9722    4.5973 C.ar      1 RES1    0.0000
     32 C16        1.8678    2.2168    4.9170 C.ar      1 RES1    0.0000
     33 H10        2.1825    1.5734    4.3246 H         1 RES1    0.0000
     34 C17        2.5082    2.4226    6.1261 C.ar      1 RES1    0.0000
     35 H11        3.2513    1.9151    6.3581 H         1 RES1    0.0000
     36 C18        2.0322    3.3829    6.9750 C.ar      1 RES1    0.0000
     37 C19        0.8960    4.1028    6.6889 C.ar      1 RES1    0.0000
     38 H12        0.5667    4.7278    7.2941 H         1 RES1    0.0000
     39 C20        0.2572    3.8840    5.4930 C.ar      1 RES1    0.0000
     40 H13       -0.5190    4.3539    5.2903 H         1 RES1    0.0000
     41 C21       -3.3746    5.3130   -1.8285 C.3       1 RES1    0.0000
     42 H14       -4.1330    5.4369   -2.4037 H         1 RES1    0.0000
     43 H15       -2.5915    5.1546   -2.3612 H         1 RES1    0.0000
     44 H16       -3.2451    6.1008   -1.2955 H         1 RES1    0.0000
     45 C22       -3.0111    2.3816    3.1338 C.ar      1 RES1    0.0000
     46 C23       -3.1196    1.5045    4.1984 C.ar      1 RES1    0.0000
     47 H17       -2.9715    0.5970    4.0608 H         1 RES1    0.0000
     48 C24       -3.4454    1.9571    5.4643 C.ar      1 RES1    0.0000
     49 H18       -3.4984    1.3568    6.1731 H         1 RES1    0.0000
     50 C25       -3.6907    3.2977    5.6808 C.ar      1 RES1    0.0000
     51 H19       -3.9091    3.6027    6.5326 H         1 RES1    0.0000
     52 C26       -3.6112    4.1771    4.6302 C.ar      1 RES1    0.0000
     53 H20       -3.7898    5.0802    4.7649 H         1 RES1    0.0000
     54 C27       -3.2665    3.7202    3.3741 C.ar      1 RES1    0.0000
     55 H21       -3.2032    4.3269    2.6717 H         1 RES1    0.0000
@<TRIPOS>BOND
     1    1   24 2
     2    2   25 2
     3    3    7 2
     4    4    7 2
     5    5   17 1
     6    6   24 1
     7    7   36 1
     8    8    9 ar
     9    9   10 1
    10   11    9 ar
    11   12   11 1
    12   13   11 ar
    13   14   13 1
    14   15   13 ar
    15   16   15 1
    16   17    8 ar
    17   18    5 1
    18   19    8 1
    19   20   19 1
    20   21   20 1
    21   22   20 1
    22   23   22 1
    23   24   22 1
    24   25    6 1
    25   26   22 1
    26   27   26 1
    27   28   18 1
    28   29   28 1
    29   30   28 1
    30   31    6 1
    31   32   31 ar
    32   33   32 1
    33   34   32 ar
    34   35   34 1
    35   36   34 ar
    36   37   36 ar
    37   38   37 1
    38   39   31 ar
    39   40   39 1
    40   41    5 1
    41   42   41 1
    42   43   41 1
    43   44   41 1
    44   45   20 1
    45   46   45 ar
    46   47   46 1
    47   48   46 ar
    48   49   48 1
    49   50   48 ar
    50   51   50 1
    51   52   50 ar
    52   53   52 1
    53   54   45 ar
    54   55   54 1
    55   15   17 ar
    56   18   19 2
    57   25   26 1
    58   26   28 1
    59   37   39 ar
    60   52   54 ar
@<TRIPOS>SUBSTRUCTURE
     1 RES1 1

@<TRIPOS>CRYSIN
   9.5446   10.7769   21.2770  90.0000  91.2690  90.0000 231 1

