# MOL2 file generated by ConQuest
# Please check atom types

@<TRIPOS>MOLECULE
PUTTOO
   116   120     2
SMALL
NO_CHARGES
****
Generated from CSD

@<TRIPOS>ATOM
      1 C1         7.9965   -1.3703    1.6103 C.3       1 RES1    0.0000
      2 H1         7.7113   -1.2481    0.7019 H         1 RES1    0.0000
      3 H2         8.8548   -0.9583    1.7338 H         1 RES1    0.0000
      4 H3         7.3593   -0.9666    2.2036 H         1 RES1    0.0000
      5 C2         8.0885   -2.6967    1.8804 C.3       1 RES1    0.0000
      6 H4         8.7165   -3.1026    1.2627 H         1 RES1    0.0000
      7 H5         7.2226   -3.1100    1.7379 H         1 RES1    0.0000
      8 H6        12.5311   -0.3584    5.2272 H         1 RES1    0.0000
      9 N1        12.1613   -0.5065    4.3986 N.pl3     1 RES1    0.0000
     10 C3        11.9739    1.8977    4.0839 C.ar      1 RES1    0.0000
     11 N2        12.0046   -1.7773    3.8904 N.2       1 RES1    0.0000
     12 O1        12.2991    3.3845    5.8072 O.2       1 RES1    0.0000
     13 O2        12.4908    1.2826    6.2564 O.2       1 RES1    0.0000
     14 C4        12.2398   -2.7196    4.6828 C.2       1 RES1    0.0000
     15 H7        12.5466   -2.5345    5.5408 H         1 RES1    0.0000
     16 C5        10.0820   -7.1170    5.8042 C.3       1 RES1    0.0000
     17 H8        10.5154   -7.0956    6.6827 H         1 RES1    0.0000
     18 C6        11.4413    2.7294    1.9225 C.ar      1 RES1    0.0000
     19 C7        11.6412    0.3801    2.2305 C.ar      1 RES1    0.0000
     20 H9        11.6166   -0.4817    1.8791 H         1 RES1    0.0000
     21 C8         8.7483   -6.4298    5.9454 C.2       1 RES1    0.0000
     22 H10        8.0465   -6.9219    6.3080 H         1 RES1    0.0000
     23 C9         9.4529   -2.9652    5.6424 C.1       1 RES1    0.0000
     24 N3        12.2787    2.2057    5.4601 N.pl3     1 RES1    0.0000
     25 C10       10.2869   -9.5756    6.3058 C.ar      1 RES1    0.0000
     26 H11       10.6011   -9.3432    7.1497 H         1 RES1    0.0000
     27 C11       11.7360    2.9631    3.2409 C.ar      1 RES1    0.0000
     28 H12       11.7749    3.8338    3.5654 H         1 RES1    0.0000
     29 C12        9.1346   -4.0617    3.4622 C.2       1 RES1    0.0000
     30 C13       10.9576   -4.8504    5.1071 C.3       1 RES1    0.0000
     31 H13       11.2081   -4.7269    6.0473 H         1 RES1    0.0000
     32 N4         9.4088   -2.0043    6.2478 N.1       1 RES1    0.0000
     33 C14        9.7265  -11.2716    4.7058 C.ar      1 RES1    0.0000
     34 H14        9.6706  -12.1682    4.4669 H         1 RES1    0.0000
     35 C15        9.4606   -8.9488    4.1641 C.ar      1 RES1    0.0000
     36 H15        9.2110   -8.2906    3.5559 H         1 RES1    0.0000
     37 O3        11.1904    4.9760    1.5139 O.2       1 RES1    0.0000
     38 N5        11.1743    3.8604    1.0509 N.pl3     1 RES1    0.0000
     39 C16       11.9364    0.5609    3.6117 C.ar      1 RES1    0.0000
     40 O4        10.9468    3.6310   -0.1317 O.2       1 RES1    0.0000
     41 O5         8.5279   -2.9628    3.2572 O.3       1 RES1    0.0000
     42 C17       10.9763   -6.3495    4.8375 C.3       1 RES1    0.0000
     43 H16       11.8864   -6.6769    4.9163 H         1 RES1    0.0000
     44 H17       10.6789   -6.5133    3.9292 H         1 RES1    0.0000
     45 C18        8.5038   -5.1879    5.5952 C.2       1 RES1    0.0000
     46 H18        7.6529   -4.8490    5.7554 H         1 RES1    0.0000
     47 C19        9.9304   -8.5817    5.4083 C.ar      1 RES1    0.0000
     48 C20        9.5277   -4.2657    4.9405 C.3       1 RES1    0.0000
     49 C21       11.3960    1.4394    1.4130 C.ar      1 RES1    0.0000
     50 H19       11.1974    1.2995    0.5146 H         1 RES1    0.0000
     51 C22       12.0315   -4.1334    4.2605 C.3       1 RES1    0.0000
     52 H20       12.8706   -4.6146    4.3365 H         1 RES1    0.0000
     53 H21       11.7634   -4.1503    3.3278 H         1 RES1    0.0000
     54 C23        9.3554  -10.2894    3.8070 C.ar      1 RES1    0.0000
     55 H22        9.0363  -10.5244    2.9653 H         1 RES1    0.0000
     56 C24       10.1802  -10.9155    5.9577 C.ar      1 RES1    0.0000
     57 H23       10.4151  -11.5752    6.5714 H         1 RES1    0.0000
     58 O6         9.4335   -4.8035    2.5932 O.2       1 RES1    0.0000
     59 H24        4.6940    4.9603    8.7152 H         2 RES2    0.0000
     60 C25        3.9709    5.7551   10.3180 C.ar      2 RES2    0.0000
     61 N6         4.5448    3.4689   10.0868 N.2       2 RES2    0.0000
     62 N7         4.1697    7.4609    8.5047 N.pl3     2 RES2    0.0000
     63 C26        3.2021    6.5377   12.4833 C.ar      2 RES2    0.0000
     64 H25        2.9476    6.3574   13.3599 H         2 RES2    0.0000
     65 C27        8.2524   -2.8463   10.1104 C.ar      2 RES2    0.0000
     66 O7         4.5361    6.5835    7.7008 O.2       2 RES2    0.0000
     67 O8         6.9405    2.7550   12.3717 O.3       2 RES2    0.0000
     68 C28        3.5148    8.1309   10.7113 C.ar      2 RES2    0.0000
     69 H26        3.4874    9.0079   10.4028 H         2 RES2    0.0000
     70 N8         2.8328    8.9468   12.8997 N.pl3     2 RES2    0.0000
     71 N9         4.4064    4.7363    9.5494 N.pl3     2 RES2    0.0000
     72 C29        8.6195   -5.1853    9.6473 C.ar      2 RES2    0.0000
     73 H27        8.8108   -5.8585    9.0343 H         2 RES2    0.0000
     74 C30        8.1749   -4.4826   11.8716 C.ar      2 RES2    0.0000
     75 H28        8.0636   -4.6838   12.7720 H         2 RES2    0.0000
     76 C31        6.7633   -0.8139    9.8501 C.3       2 RES2    0.0000
     77 H29        6.4859   -0.9954   10.7613 H         2 RES2    0.0000
     78 H30        6.1328   -1.2472    9.2542 H         2 RES2    0.0000
     79 C32        5.0933    2.6313    9.3105 C.2       2 RES2    0.0000
     80 H31        5.3783    2.9042    8.4681 H         2 RES2    0.0000
     81 C33        6.7243    0.6982    9.6065 C.3       2 RES2    0.0000
     82 H32        7.0224    0.8596    8.6867 H         2 RES2    0.0000
     83 C34        8.5255   -3.8707    9.2194 C.ar      2 RES2    0.0000
     84 H33        8.6479   -3.6733    8.3187 H         2 RES2    0.0000
     85 C35        5.2880    1.2161    9.7280 C.3       2 RES2    0.0000
     86 H34        4.7106    0.6538    9.1890 H         2 RES2    0.0000
     87 H35        5.0049    1.1259   10.6513 H         2 RES2    0.0000
     88 N10        8.2560    3.7636    9.5270 N.1       2 RES2    0.0000
     89 O9         6.9714    0.5689   12.6675 O.2       2 RES2    0.0000
     90 C36        7.9977    2.7731   10.0201 C.1       2 RES2    0.0000
     91 O10        4.0379    8.6268    8.1525 O.2       2 RES2    0.0000
     92 C37        9.0452    0.6915   10.6581 C.2       2 RES2    0.0000
     93 H36        9.7736    1.1379   11.0260 H         2 RES2    0.0000
     94 C38        9.2139   -0.5527   10.2426 C.2       2 RES2    0.0000
     95 H37       10.0597   -0.9267   10.3444 H         2 RES2    0.0000
     96 C39        8.4317   -5.5018   10.9717 C.ar      2 RES2    0.0000
     97 H38        8.4767   -6.3850   11.2582 H         2 RES2    0.0000
     98 C40        3.5813    5.5185   11.6571 C.ar      2 RES2    0.0000
     99 H39        3.5837    4.6469   11.9832 H         2 RES2    0.0000
    100 C41        7.7201    1.4284   10.5643 C.3       2 RES2    0.0000
    101 C42        3.8779    7.0937    9.8593 C.ar      2 RES2    0.0000
    102 O11        2.4602    8.6587   14.0298 O.2       2 RES2    0.0000
    103 C43        8.0827   -3.1675   11.4480 C.ar      2 RES2    0.0000
    104 H40        7.9054   -2.4955   12.0660 H         2 RES2    0.0000
    105 O12        2.9187   10.0888   12.4924 O.2       2 RES2    0.0000
    106 C44        3.1971    7.8412   12.0110 C.ar      2 RES2    0.0000
    107 C45        7.1655    1.5202   12.0015 C.2       2 RES2    0.0000
    108 C46        8.1541   -1.4076    9.6236 C.3       2 RES2    0.0000
    109 H41        8.3139   -1.4160    8.6568 H         2 RES2    0.0000
    110 C47        6.4284    4.3670   14.0279 C.3       2 RES2    0.0000
    111 H42        6.1002    4.4999   14.9200 H         2 RES2    0.0000
    112 H43        5.8609    4.8256   13.4047 H         2 RES2    0.0000
    113 H44        7.3218    4.7108   13.9600 H         2 RES2    0.0000
    114 C48        6.4330    2.9294   13.7184 C.3       2 RES2    0.0000
    115 H45        6.9970    2.4556   14.3497 H         2 RES2    0.0000
    116 H46        5.5333    2.5724   13.7822 H         2 RES2    0.0000
@<TRIPOS>BOND
     1    1    2 1
     2    3    1 1
     3    4    1 1
     4    5    1 1
     5    6    5 1
     6    7    5 1
     7    8    9 1
     8    9   11 1
     9   10   24 1
    10   11   14 2
    11   12   24 2
    12   13   24 2
    13   14   15 1
    14   16   17 1
    15   18   27 ar
    16   19   20 1
    17   21   16 1
    18   22   21 1
    19   23   32 3
    20   25   26 1
    21   27   10 ar
    22   28   27 1
    23   29   41 1
    24   30   31 1
    25   33   34 1
    26   35   36 1
    27   37   38 2
    28   38   18 1
    29   39    9 1
    30   40   38 2
    31   41    5 1
    32   42   16 1
    33   43   42 1
    34   44   42 1
    35   45   21 2
    36   46   45 1
    37   47   16 1
    38   48   23 1
    39   49   18 ar
    40   50   49 1
    41   51   14 1
    42   52   51 1
    43   53   51 1
    44   54   33 ar
    45   55   54 1
    46   56   25 ar
    47   57   56 1
    48   58   29 2
    49   59   71 1
    50   60   71 1
    51   61   71 1
    52   62   66 2
    53   63   64 1
    54   65   83 ar
    55   67  107 1
    56   68   69 1
    57   70  102 2
    58   72   73 1
    59   74   75 1
    60   76   77 1
    61   78   76 1
    62   79   61 2
    63   80   79 1
    64   81   76 1
    65   82   81 1
    66   83   72 ar
    67   84   83 1
    68   85   79 1
    69   86   85 1
    70   87   85 1
    71   88   90 3
    72   89  107 2
    73   90  100 1
    74   91   62 2
    75   92   93 1
    76   94   92 2
    77   95   94 1
    78   96   72 ar
    79   97   96 1
    80   98   60 ar
    81   99   98 1
    82  100   81 1
    83  101   60 ar
    84  103   65 ar
    85  104  103 1
    86  105   70 2
    87  106   63 ar
    88  107  100 1
    89  108   65 1
    90  109  108 1
    91  110  111 1
    92  112  110 1
    93  113  110 1
    94  114   67 1
    95  115  114 1
    96  116  114 1
    97   10   39 ar
    98   19   39 ar
    99   19   49 ar
   100   25   47 ar
   101   29   48 1
   102   30   42 1
   103   30   48 1
   104   30   51 1
   105   33   56 ar
   106   35   47 ar
   107   35   54 ar
   108   45   48 1
   109   62  101 1
   110   63   98 ar
   111   68  101 ar
   112   68  106 ar
   113   70  106 1
   114   74   96 ar
   115   74  103 ar
   116   76  108 1
   117   81   85 1
   118   92  100 1
   119   94  108 1
   120  110  114 1
@<TRIPOS>SUBSTRUCTURE
     1 RES1 1
     2 RES2 59

@<TRIPOS>CRYSIN
   7.1925   12.2825   13.6432  92.9220  94.5100  95.5980   1 1

