# MOL2 file generated by ConQuest
# Please check atom types

@<TRIPOS>MOLECULE
PUVCOY
    43    45     1
SMALL
NO_CHARGES
****
Generated from CSD

@<TRIPOS>ATOM
      1 O1         4.7192   11.2106    4.5915 O.2       1 RES1    0.0000
      2 O2         4.0912    9.8905    6.1644 O.2       1 RES1    0.0000
      3 O3         6.5960    5.6547    0.8586 O.2       1 RES1    0.0000
      4 O4         5.1823    4.4885    2.1761 O.3       1 RES1    0.0000
      5 O5         6.9968    3.5022    4.1419 O.3       1 RES1    0.0000
      6 O6         6.6477    1.2872    4.5796 O.3       1 RES1    0.0000
      7 N1         4.5428   10.0903    5.0557 N.pl3     1 RES1    0.0000
      8 C1         4.8833    8.9264    4.2118 C.ar      1 RES1    0.0000
      9 C2         5.5132    9.1426    3.0054 C.ar      1 RES1    0.0000
     10 C3         5.8136    8.0461    2.2219 C.ar      1 RES1    0.0000
     11 C4         5.4601    6.7570    2.6436 C.ar      1 RES1    0.0000
     12 C5         4.8239    6.5787    3.8613 C.ar      1 RES1    0.0000
     13 C6         4.5435    7.6629    4.6693 C.ar      1 RES1    0.0000
     14 C7         5.8267    5.5964    1.7790 C.2       1 RES1    0.0000
     15 C8         5.5110    3.2151    1.5223 C.3       1 RES1    0.0000
     16 C9         5.5906    2.1819    2.6343 C.3       1 RES1    0.0000
     17 C10        6.8383    2.2266    3.5148 C.3       1 RES1    0.0000
     18 C11        8.1173    1.9012    2.7859 C.3       1 RES1    0.0000
     19 C12        6.2495    3.4243    5.3643 C.3       1 RES1    0.0000
     20 C13        6.4818    2.0012    5.7946 C.3       1 RES1    0.0000
     21 C14        4.4358    2.9005    0.5267 C.3       1 RES1    0.0000
     22 C15        4.5129    3.5058   -0.8752 C.3       1 RES1    0.0000
     23 C16        4.7831    2.0883   -0.6391 C.2       1 RES1    0.0000
     24 C17        5.1479    0.9182   -1.0973 C.2       1 RES1    0.0000
     25 H1         5.7618   10.0848    2.7400 H         1 RES1    0.0000
     26 H2         6.2411    8.1431    1.3434 H         1 RES1    0.0000
     27 H3         4.6420    5.6354    4.1632 H         1 RES1    0.0000
     28 H4         4.0746    7.5611    5.5399 H         1 RES1    0.0000
     29 H5         6.3721    3.2950    1.0641 H         1 RES1    0.0000
     30 H6         4.7758    2.3262    3.2322 H         1 RES1    0.0000
     31 H7         5.5721    1.3195    2.1681 H         1 RES1    0.0000
     32 H8         8.2660    2.5328    2.0085 H         1 RES1    0.0000
     33 H9         8.8896    1.8712    3.4583 H         1 RES1    0.0000
     34 H10        8.0300    1.0377    2.3609 H         1 RES1    0.0000
     35 H11        5.2933    3.5639    5.1542 H         1 RES1    0.0000
     36 H12        6.6100    4.1574    5.9722 H         1 RES1    0.0000
     37 H13        5.7051    1.5577    6.3313 H         1 RES1    0.0000
     38 H14        7.3365    1.8731    6.3114 H         1 RES1    0.0000
     39 H15        3.5408    2.7255    0.9510 H         1 RES1    0.0000
     40 H16        5.2808    4.1375   -1.1040 H         1 RES1    0.0000
     41 H17        3.6994    3.7092   -1.2969 H         1 RES1    0.0000
     42 H18        5.3500    0.7327   -2.1149 H         1 RES1    0.0000
     43 H19        5.1553    0.1366   -0.4589 H         1 RES1    0.0000
@<TRIPOS>BOND
     1    1    7 2
     2    2    7 2
     3    3   14 2
     4    4   14 1
     5    5   17 1
     6    6   17 1
     7    7    8 1
     8    8    9 ar
     9    9   10 ar
    10   10   11 ar
    11   11   12 ar
    12   12   13 ar
    13   13    8 ar
    14   14   11 1
    15   15    4 1
    16   16   15 1
    17   17   16 1
    18   18   17 1
    19   19    5 1
    20   20    6 1
    21   21   15 1
    22   22   21 1
    23   23   21 1
    24   24   23 2
    25   25    9 1
    26   26   10 1
    27   27   12 1
    28   28   13 1
    29   29   15 1
    30   30   16 1
    31   31   16 1
    32   32   18 1
    33   33   18 1
    34   34   18 1
    35   35   19 1
    36   36   19 1
    37   37   20 1
    38   38   20 1
    39   39   21 1
    40   40   22 1
    41   41   22 1
    42   42   24 1
    43   43   24 1
    44   19   20 1
    45   22   23 1
@<TRIPOS>SUBSTRUCTURE
     1 RES1 1

@<TRIPOS>CRYSIN
   7.8370   15.8070    7.0200  90.4100 108.6600  86.7300   2 1

