# MOL2 file generated by ConQuest
# Please check atom types

@<TRIPOS>MOLECULE
PUVPUR
    38    40     1
SMALL
NO_CHARGES
****
Generated from CSD

@<TRIPOS>ATOM
      1 O1         2.1225    1.3941    1.5794 O.3       1 RES1    0.0000
      2 O2         1.8522    2.9832    3.7812 O.3       1 RES1    0.0000
      3 O3         3.7219   -2.0764    0.8140 O.2       1 RES1    0.0000
      4 O4         3.8475   -0.4737    2.2399 O.2       1 RES1    0.0000
      5 O5         1.3919    1.1766    5.5978 O.2       1 RES1    0.0000
      6 O6         2.7569   -0.4791    5.5560 O.2       1 RES1    0.0000
      7 N1         3.2139   -1.1687    1.4571 N.pl3     1 RES1    0.0000
      8 N2         2.4723    0.6725    5.2991 N.pl3     1 RES1    0.0000
      9 C1         1.6137    2.6914    1.4159 C.ar      1 RES1    0.0000
     10 C2         1.5311    3.4936    2.5346 C.ar      1 RES1    0.0000
     11 C3         1.0557    4.7972    2.4181 C.ar      1 RES1    0.0000
     12 C4         0.7011    5.2745    1.1650 C.ar      1 RES1    0.0000
     13 C5         0.8466    4.4844    0.0403 C.ar      1 RES1    0.0000
     14 C6         1.3077    3.1714    0.1628 C.ar      1 RES1    0.0000
     15 C7         1.2489    0.3476    1.4398 C.ar      1 RES1    0.0000
     16 C8         1.7751   -0.9386    1.3263 C.ar      1 RES1    0.0000
     17 C9         0.9587   -2.0403    1.1082 C.ar      1 RES1    0.0000
     18 C10       -0.4022   -1.8772    1.0724 C.ar      1 RES1    0.0000
     19 C11       -0.9404   -0.6083    1.2232 C.ar      1 RES1    0.0000
     20 C12       -0.1288    0.4974    1.3890 C.ar      1 RES1    0.0000
     21 C13        3.1694    2.6513    3.9684 C.ar      1 RES1    0.0000
     22 C14        3.5049    1.5336    4.7331 C.ar      1 RES1    0.0000
     23 C15        4.8277    1.1659    4.9362 C.ar      1 RES1    0.0000
     24 C16        5.8388    1.9213    4.3895 C.ar      1 RES1    0.0000
     25 C17        5.5073    3.0417    3.6338 C.ar      1 RES1    0.0000
     26 C18        4.2005    3.3960    3.4202 C.ar      1 RES1    0.0000
     27 H1         0.9754    5.3521    3.1857 H         1 RES1    0.0000
     28 H2         0.3545    6.1543    1.0798 H         1 RES1    0.0000
     29 H3         0.6336    4.8360   -0.8170 H         1 RES1    0.0000
     30 H4         1.4086    2.6206   -0.6049 H         1 RES1    0.0000
     31 H5         1.3403   -2.9013    0.9842 H         1 RES1    0.0000
     32 H6        -0.9714   -2.6272    0.9469 H         1 RES1    0.0000
     33 H7        -1.8840   -0.4960    1.2128 H         1 RES1    0.0000
     34 H8        -0.5151    1.3611    1.4682 H         1 RES1    0.0000
     35 H9         5.0344    0.3958    5.4515 H         1 RES1    0.0000
     36 H10        6.7482    1.6820    4.5270 H         1 RES1    0.0000
     37 H11        6.2005    3.5712    3.2574 H         1 RES1    0.0000
     38 H12        4.0001    4.1595    2.8915 H         1 RES1    0.0000
@<TRIPOS>BOND
     1    1    9 1
     2    2   10 1
     3    3    7 2
     4    4    7 2
     5    5    8 2
     6    6    8 2
     7    7   16 1
     8    8   22 1
     9    9   10 ar
    10   10   11 ar
    11   11   12 ar
    12   12   13 ar
    13   13   14 ar
    14   14    9 ar
    15   15    1 1
    16   16   15 ar
    17   17   16 ar
    18   18   17 ar
    19   19   18 ar
    20   20   15 ar
    21   21    2 1
    22   22   21 ar
    23   23   22 ar
    24   24   23 ar
    25   25   24 ar
    26   26   21 ar
    27   27   11 1
    28   28   12 1
    29   29   13 1
    30   30   14 1
    31   31   17 1
    32   32   18 1
    33   33   19 1
    34   34   20 1
    35   35   23 1
    36   36   24 1
    37   37   25 1
    38   38   26 1
    39   19   20 ar
    40   25   26 ar
@<TRIPOS>SUBSTRUCTURE
     1 RES1 1

@<TRIPOS>CRYSIN
   7.9494   13.3702   14.9355  90.0000  90.0000  90.0000  19 1

