# MOL2 file generated by ConQuest
# Please check atom types

@<TRIPOS>MOLECULE
PUVSOO
    19    20     1
SMALL
NO_CHARGES
****
Generated from CSD

@<TRIPOS>ATOM
      1 C1         0.3780    6.2029    2.7586 C.2       1 RES1    0.0000
      2 H1         0.0471    5.7260    1.9950 H         1 RES1    0.0000
      3 C2         1.2797    4.2580    4.2275 C.ar      1 RES1    0.0000
      4 H2         1.0479    3.5223    3.6558 H         1 RES1    0.0000
      5 C3         1.9103    4.0679    5.4263 C.ar      1 RES1    0.0000
      6 C4         2.2603    5.1057    6.2828 C.ar      1 RES1    0.0000
      7 H3         2.7112    4.9094    7.1068 H         1 RES1    0.0000
      8 C5         1.9690    6.4077    5.9644 C.ar      1 RES1    0.0000
      9 H4         2.1945    7.1338    6.5499 H         1 RES1    0.0000
     10 C6         1.3297    6.6195    4.7492 C.ar      1 RES1    0.0000
     11 C7         0.9933    5.5693    3.8832 C.ar      1 RES1    0.0000
     12 N1         0.8808    7.7504    4.0989 N.pl3     1 RES1    0.0000
     13 N2         0.3180    7.4914    2.8811 N.2       1 RES1    0.0000
     14 N3         1.0183    9.0781    4.4977 N.pl3     1 RES1    0.0000
     15 N4         2.2624    2.6984    5.8112 N.pl3     1 RES1    0.0000
     16 O1         1.5194    9.2352    5.5866 O.2       1 RES1    0.0000
     17 O2         0.6391    9.9319    3.7267 O.2       1 RES1    0.0000
     18 O3         1.7044    1.7825    5.2453 O.2       1 RES1    0.0000
     19 O4         3.0992    2.5476    6.6805 O.2       1 RES1    0.0000
@<TRIPOS>BOND
     1    1    2 1
     2    3    4 1
     3    5    3 ar
     4    6    5 ar
     5    7    6 1
     6    8    6 ar
     7    9    8 1
     8   10    8 ar
     9   11    1 1
    10   12   10 1
    11   13    1 2
    12   14   12 1
    13   15    5 1
    14   16   14 2
    15   17   14 2
    16   18   15 2
    17   19   15 2
    18    3   11 ar
    19   10   11 ar
    20   12   13 1
@<TRIPOS>SUBSTRUCTURE
     1 RES1 1

@<TRIPOS>CRYSIN
   7.6310   10.8880    9.9170  90.0000  94.1400  90.0000 231 1

