# MOL2 file generated by ConQuest
# Please check atom types

@<TRIPOS>MOLECULE
PUWGIX
    39    40     1
SMALL
NO_CHARGES
****
Generated from CSD

@<TRIPOS>ATOM
      1 O1         5.7817    4.0112    4.3327 O.2       1 RES1    0.0000
      2 O2         4.6207    5.8205    4.9415 O.3       1 RES1    0.0000
      3 O3         3.2168    3.4607    1.2732 O.2       1 RES1    0.0000
      4 O4         5.2852    3.9906    1.6211 O.2       1 RES1    0.0000
      5 N1         1.5347    5.3462    2.6108 N.3       1 RES1    0.0000
      6 N2         4.0923    3.9803    1.9672 N.pl3     1 RES1    0.0000
      7 C1         3.7473    4.5679    3.2074 C.2       1 RES1    0.0000
      8 C2         2.4110    4.8978    3.5048 C.2       1 RES1    0.0000
      9 C3         1.9563    4.7659    4.9224 C.ar      1 RES1    0.0000
     10 C4         2.1601    3.5783    5.6042 C.ar      1 RES1    0.0000
     11 C5         1.7783    3.4607    6.9209 C.ar      1 RES1    0.0000
     12 C6         1.2285    4.5349    7.5714 C.ar      1 RES1    0.0000
     13 C7         1.0477    5.7277    6.9070 C.ar      1 RES1    0.0000
     14 C8         1.4067    5.8452    5.5764 C.ar      1 RES1    0.0000
     15 C9         0.0684    5.1968    2.7482 C.3       1 RES1    0.0000
     16 C10       -0.6430    6.5194    2.5708 C.3       1 RES1    0.0000
     17 C11       -0.2416    7.2019    1.2802 C.3       1 RES1    0.0000
     18 C12        1.2700    7.2926    1.1741 C.3       1 RES1    0.0000
     19 C13        1.9375    5.9462    1.3341 C.3       1 RES1    0.0000
     20 C14        4.8203    4.7246    4.1779 C.2       1 RES1    0.0000
     21 C15        5.5477    6.0462    6.0199 C.3       1 RES1    0.0000
     22 H1         2.5649    2.8412    5.1606 H         1 RES1    0.0000
     23 H2         1.8955    2.6370    7.3783 H         1 RES1    0.0000
     24 H3         0.9722    4.4555    8.4828 H         1 RES1    0.0000
     25 H4         0.6743    6.4720    7.3644 H         1 RES1    0.0000
     26 H5         1.2748    6.6668    5.1172 H         1 RES1    0.0000
     27 H6        -0.2437    4.5885    2.0890 H         1 RES1    0.0000
     28 H7        -0.1272    4.8545    3.6126 H         1 RES1    0.0000
     29 H8        -1.5804    6.3658    2.5603 H         1 RES1    0.0000
     30 H9        -0.4243    7.0864    3.3013 H         1 RES1    0.0000
     31 H10       -0.5780    6.7029    0.5462 H         1 RES1    0.0000
     32 H11       -0.6092    8.0781    1.2628 H         1 RES1    0.0000
     33 H12        1.4951    7.6452    0.3200 H         1 RES1    0.0000
     34 H13        1.5905    7.8750    1.8524 H         1 RES1    0.0000
     35 H14        2.8807    6.0565    1.3202 H         1 RES1    0.0000
     36 H15        1.6751    5.3761    0.6209 H         1 RES1    0.0000
     37 H16        5.5237    5.3091    6.6182 H         1 RES1    0.0000
     38 H17        6.4255    6.1411    5.6685 H         1 RES1    0.0000
     39 H18        5.3064    6.8390    6.4843 H         1 RES1    0.0000
@<TRIPOS>BOND
     1    1   20 2
     2    2   20 1
     3    3    6 2
     4    4    6 2
     5    5    8 1
     6    6    7 1
     7    7    8 2
     8    8    9 1
     9    9   10 ar
    10   10   11 ar
    11   11   12 ar
    12   12   13 ar
    13   13   14 ar
    14   14    9 ar
    15   15    5 1
    16   16   15 1
    17   17   16 1
    18   18   17 1
    19   19    5 1
    20   20    7 1
    21   21    2 1
    22   22   10 1
    23   23   11 1
    24   24   12 1
    25   25   13 1
    26   26   14 1
    27   27   15 1
    28   28   15 1
    29   29   16 1
    30   30   16 1
    31   31   17 1
    32   32   17 1
    33   33   18 1
    34   34   18 1
    35   35   19 1
    36   36   19 1
    37   37   21 1
    38   38   21 1
    39   39   21 1
    40   18   19 1
@<TRIPOS>SUBSTRUCTURE
     1 RES1 1

@<TRIPOS>CRYSIN
   8.3440   10.3090   17.7690  90.0000 101.8000  90.0000  14 1

