# MOL2 file generated by ConQuest
# Please check atom types

@<TRIPOS>MOLECULE
PUWRAA
   208   222     2
SMALL
NO_CHARGES
****
Generated from CSD

@<TRIPOS>ATOM
      1 O1        -1.5569   10.6064    9.2415 O.2       1 RES1    0.0000
      2 O2        -0.8996   10.5220   11.4162 O.3       1 RES1    0.0000
      3 O3        -1.0382    7.5091   10.2783 O.2       1 RES1    0.0000
      4 O4        -2.6524    5.9899    9.7425 O.3       1 RES1    0.0000
      5 N1         0.1049   11.5578   11.1562 N.3       1 RES1    0.0000
      6 N2        -1.6108    4.9566    9.6726 N.3       1 RES1    0.0000
      7 C1        -2.9695    9.5118   10.9031 C.3       1 RES1    0.0000
      8 C2        -2.8905    9.2611   12.4146 C.ar      1 RES1    0.0000
      9 C3        -1.9857    8.5015   13.1406 C.ar      1 RES1    0.0000
     10 C4        -2.1260    8.4248   14.5194 C.ar      1 RES1    0.0000
     11 C5        -3.1421    9.1153   15.1704 C.ar      1 RES1    0.0000
     12 C6        -4.0304    9.8928   14.4566 C.ar      1 RES1    0.0000
     13 C7        -3.9139    9.9542   13.0708 C.ar      1 RES1    0.0000
     14 C8        -4.7164   10.6806   12.0795 C.ar      1 RES1    0.0000
     15 C9        -5.8473   11.4811   12.2278 C.ar      1 RES1    0.0000
     16 C10       -6.3650   12.1154   11.1160 C.ar      1 RES1    0.0000
     17 C11       -5.7657   11.9875    9.8734 C.ar      1 RES1    0.0000
     18 C12       -4.6488   11.1691    9.7110 C.ar      1 RES1    0.0000
     19 C13       -4.1462   10.4990   10.8158 C.ar      1 RES1    0.0000
     20 C14       -3.3644    8.1895   10.1247 C.3       1 RES1    0.0000
     21 C15       -3.7842    8.3685    8.6551 C.ar      1 RES1    0.0000
     22 C16       -2.9922    8.7266    7.5765 C.ar      1 RES1    0.0000
     23 C17       -3.5635    8.7368    6.3076 C.ar      1 RES1    0.0000
     24 C18       -4.8879    8.3864    6.1314 C.ar      1 RES1    0.0000
     25 C19       -5.6715    7.9874    7.1978 C.ar      1 RES1    0.0000
     26 C20       -5.1076    7.9644    8.4719 C.ar      1 RES1    0.0000
     27 C21       -5.6426    7.4810    9.7494 C.ar      1 RES1    0.0000
     28 C22       -6.8809    6.9286   10.0496 C.ar      1 RES1    0.0000
     29 C23       -7.1003    6.4401   11.3272 C.ar      1 RES1    0.0000
     30 C24       -6.1106    6.5014   12.2889 C.ar      1 RES1    0.0000
     31 C25       -4.8704    7.0564   11.9974 C.ar      1 RES1    0.0000
     32 C26       -4.6365    7.5577   10.7233 C.ar      1 RES1    0.0000
     33 C27       -1.7234   10.2483   10.3708 C.2       1 RES1    0.0000
     34 C28       -0.2329   12.6448   12.1301 C.3       1 RES1    0.0000
     35 C29        0.8607   13.7088   11.9503 C.3       1 RES1    0.0000
     36 C30        2.2636   13.1487   12.1161 C.3       1 RES1    0.0000
     37 C31        2.4764   12.0131   11.1265 C.3       1 RES1    0.0000
     38 C32        1.4395   10.8877   11.2522 C.3       1 RES1    0.0000
     39 C33       -1.5680   13.2382   11.6693 C.3       1 RES1    0.0000
     40 C34       -0.3727   12.2075   13.5979 C.3       1 RES1    0.0000
     41 C35        1.5479    9.9772   10.0269 C.3       1 RES1    0.0000
     42 C36        1.6908   10.0540   12.5140 C.3       1 RES1    0.0000
     43 C37       -2.1794    7.2125   10.0915 C.2       1 RES1    0.0000
     44 C38       -1.5661    4.4988    8.2572 C.3       1 RES1    0.0000
     45 C39       -0.5209    3.3684    8.2415 C.3       1 RES1    0.0000
     46 C40       -0.7846    2.2763    9.2660 C.3       1 RES1    0.0000
     47 C41       -0.8795    2.8901   10.6465 C.3       1 RES1    0.0000
     48 C42       -1.9489    3.9873   10.7513 C.3       1 RES1    0.0000
     49 C43       -2.9045    4.0436    7.6376 C.3       1 RES1    0.0000
     50 C44       -1.0422    5.6728    7.4281 C.3       1 RES1    0.0000
     51 C45       -3.3734    3.4016   10.7216 C.3       1 RES1    0.0000
     52 C46       -1.7776    4.7290   12.0725 C.3       1 RES1    0.0000
     53 O5         1.8149   10.4402    0.3857 O.2       2 RES2    0.0000
     54 O6         2.5365   10.4939    2.5412 O.3       2 RES2    0.0000
     55 O7         2.3983    7.4120    1.3299 O.2       2 RES2    0.0000
     56 O8         0.7765    5.8825    0.8587 O.3       2 RES2    0.0000
     57 N3         3.5096   11.5374    2.1939 N.3       2 RES2    0.0000
     58 N4         1.8233    4.8697    0.6580 N.3       2 RES2    0.0000
     59 C47        0.5064    9.3634    2.1572 C.3       2 RES2    0.0000
     60 C48        0.7329    9.1000    3.6495 C.ar      2 RES2    0.0000
     61 C49        1.6913    8.3225    4.2796 C.ar      2 RES2    0.0000
     62 C50        1.7008    8.2457    5.6654 C.ar      2 RES2    0.0000
     63 C51        0.7784    8.9542    6.4211 C.ar      2 RES2    0.0000
     64 C52       -0.1667    9.7522    5.8067 C.ar      2 RES2    0.0000
     65 C53       -0.2007    9.8084    4.4157 C.ar      2 RES2    0.0000
     66 C54       -1.0853   10.5629    3.5116 C.ar      2 RES2    0.0000
     67 C55       -2.1626   11.3993    3.7856 C.ar      2 RES2    0.0000
     68 C56       -2.7720   12.0591    2.7314 C.ar      2 RES2    0.0000
     69 C57       -2.3161   11.9082    1.4294 C.ar      2 RES2    0.0000
     70 C58       -1.2584   11.0463    1.1467 C.ar      2 RES2    0.0000
     71 C59       -0.6604   10.3634    2.1939 C.ar      2 RES2    0.0000
     72 C60        0.0577    8.0539    1.3893 C.3       2 RES2    0.0000
     73 C61       -0.5107    8.2483   -0.0314 C.ar      2 RES2    0.0000
     74 C62        0.1540    8.6294   -1.1833 C.ar      2 RES2    0.0000
     75 C63       -0.5380    8.6166   -2.3929 C.ar      2 RES2    0.0000
     76 C64       -1.8603    8.2150   -2.4435 C.ar      2 RES2    0.0000
     77 C65       -2.5230    7.8109   -1.2968 C.ar      2 RES2    0.0000
     78 C66       -1.8416    7.8212   -0.0873 C.ar      2 RES2    0.0000
     79 C67       -2.2495    7.3403    1.2235 C.ar      2 RES2    0.0000
     80 C68       -3.4647    6.8160    1.6546 C.ar      2 RES2    0.0000
     81 C69       -3.5774    6.3352    2.9496 C.ar      2 RES2    0.0000
     82 C70       -2.4872    6.3710    3.7996 C.ar      2 RES2    0.0000
     83 C71       -1.2671    6.8953    3.3877 C.ar      2 RES2    0.0000
     84 C72       -1.1518    7.4017    2.0996 C.ar      2 RES2    0.0000
     85 C73        1.6983   10.1281    1.5324 C.2       2 RES2    0.0000
     86 C74        3.1433   12.6857    3.0823 C.3       2 RES2    0.0000
     87 C75        4.2208   13.7599    2.8397 C.3       2 RES2    0.0000
     88 C76        5.6305   13.2382    3.0561 C.3       2 RES2    0.0000
     89 C77        5.8708   12.0540    2.1363 C.3       2 RES2    0.0000
     90 C78        4.8608   10.9108    2.3335 C.3       2 RES2    0.0000
     91 C79        1.8033   13.2126    2.5709 C.3       2 RES2    0.0000
     92 C80        3.0050   12.3635    4.5780 C.3       2 RES2    0.0000
     93 C81        4.9974    9.9312    1.1676 C.3       2 RES2    0.0000
     94 C82        5.1327   10.1614    3.6425 C.3       2 RES2    0.0000
     95 C83        1.2433    7.1025    1.2235 C.2       2 RES2    0.0000
     96 C84        1.7938    4.5142   -0.7941 C.3       2 RES2    0.0000
     97 C85        2.8210    3.3786   -0.9495 C.3       2 RES2    0.0000
     98 C86        2.5891    2.2072   -0.0105 C.3       2 RES2    0.0000
     99 C87        2.5754    2.7085    1.4207 C.3       2 RES2    0.0000
    100 C88        1.5380    3.8160    1.6790 C.3       2 RES2    0.0000
    101 C89        0.4266    4.1254   -1.3718 C.3       2 RES2    0.0000
    102 C90        2.3125    5.7265   -1.5603 C.3       2 RES2    0.0000
    103 C91        0.1118    3.2584    1.7034 C.3       2 RES2    0.0000
    104 C92        1.8303    4.4426    3.0351 C.3       2 RES2    0.0000
    105 H1        -1.2802    8.0386   12.7025 H         1 RES1    0.0000
    106 H2        -1.5232    7.8928   15.0256 H         1 RES1    0.0000
    107 H3        -3.2253    9.0539   16.1147 H         1 RES1    0.0000
    108 H4        -4.7128   10.3788   14.9034 H         1 RES1    0.0000
    109 H5        -6.2577   11.5860   13.0795 H         1 RES1    0.0000
    110 H6        -7.1456   12.6499   11.2033 H         1 RES1    0.0000
    111 H7        -6.1151   12.4632    9.1281 H         1 RES1    0.0000
    112 H8        -4.2413   11.0693    8.8576 H         1 RES1    0.0000
    113 H9        -2.0799    8.9593    7.7004 H         1 RES1    0.0000
    114 H10       -3.0378    8.9849    5.5554 H         1 RES1    0.0000
    115 H11       -5.2685    8.4222    5.2622 H         1 RES1    0.0000
    116 H12       -6.5769    7.7291    7.0651 H         1 RES1    0.0000
    117 H13       -7.5642    6.8851    9.3916 H         1 RES1    0.0000
    118 H14       -7.9429    6.0590   11.5454 H         1 RES1    0.0000
    119 H15       -6.2797    6.1613   13.1581 H         1 RES1    0.0000
    120 H16       -4.1916    7.0923   12.6624 H         1 RES1    0.0000
    121 H17        0.7761   14.1103   11.0497 H         1 RES1    0.0000
    122 H18        0.7203   14.4300   12.6153 H         1 RES1    0.0000
    123 H19        2.3836   12.8136   13.0394 H         1 RES1    0.0000
    124 H20        2.9312   13.8622   11.9555 H         1 RES1    0.0000
    125 H21        3.3804   11.6320   11.2626 H         1 RES1    0.0000
    126 H22        2.4401   12.3788   10.2067 H         1 RES1    0.0000
    127 H23       -1.5333   13.4070   10.7041 H         1 RES1    0.0000
    128 H24       -1.7323   14.0796   12.1423 H         1 RES1    0.0000
    129 H25       -2.2912   12.6039   11.8630 H         1 RES1    0.0000
    130 H26        0.5159   12.0438   13.9766 H         1 RES1    0.0000
    131 H27       -0.9035   11.3839   13.6450 H         1 RES1    0.0000
    132 H28       -0.8191   12.9134   14.1075 H         1 RES1    0.0000
    133 H29        1.3289   10.4888    9.2206 H         1 RES1    0.0000
    134 H30        0.9219    9.2304   10.1177 H         1 RES1    0.0000
    135 H31        2.4618    9.6320    9.9571 H         1 RES1    0.0000
    136 H32        0.9055    9.4964   12.6990 H         1 RES1    0.0000
    137 H33        1.8515   10.6524   13.2750 H         1 RES1    0.0000
    138 H34        2.4736    9.4811   12.3762 H         1 RES1    0.0000
    139 H35       -0.5020    2.9617    7.3391 H         1 RES1    0.0000
    140 H36        0.3722    3.7571    8.4143 H         1 RES1    0.0000
    141 H37       -1.6248    1.8108    9.0304 H         1 RES1    0.0000
    142 H38       -0.0530    1.6113    9.2450 H         1 RES1    0.0000
    143 H39       -0.0006    3.2737   10.8874 H         1 RES1    0.0000
    144 H40       -1.0867    2.1765   11.3010 H         1 RES1    0.0000
    145 H41       -3.6018    4.6958    7.8557 H         1 RES1    0.0000
    146 H42       -3.1515    3.1663    8.0006 H         1 RES1    0.0000
    147 H43       -2.8085    3.9796    6.6654 H         1 RES1    0.0000
    148 H44       -1.7574    6.3326    7.3077 H         1 RES1    0.0000
    149 H45       -0.7474    5.3480    6.5502 H         1 RES1    0.0000
    150 H46       -0.2865    6.0897    7.8924 H         1 RES1    0.0000
    151 H47       -3.4414    2.7469    9.9955 H         1 RES1    0.0000
    152 H48       -4.0202    4.1229   10.5715 H         1 RES1    0.0000
    153 H49       -3.5653    2.9643   11.5768 H         1 RES1    0.0000
    154 H50       -0.9116    5.1868   12.0795 H         1 RES1    0.0000
    155 H51       -1.8134    4.0896   12.8142 H         1 RES1    0.0000
    156 H52       -2.4964    5.3863   12.1737 H         1 RES1    0.0000
    157 H53        2.3359    7.8467    3.7664 H         2 RES2    0.0000
    158 H54        2.3505    7.7010    6.1017 H         2 RES2    0.0000
    159 H55        0.7966    8.8877    7.3688 H         2 RES2    0.0000
    160 H56       -0.7850   10.2560    6.3251 H         2 RES2    0.0000
    161 H57       -2.4746   11.5144    4.6757 H         2 RES2    0.0000
    162 H58       -3.5146   12.6269    2.9025 H         2 RES2    0.0000
    163 H59       -2.7298   12.3942    0.7261 H         2 RES2    0.0000
    164 H60       -0.9528   10.9287    0.2548 H         2 RES2    0.0000
    165 H61        1.0665    8.8928   -1.1502 H         2 RES2    0.0000
    166 H62       -0.0957    8.8877   -3.1905 H         2 RES2    0.0000
    167 H63       -2.3191    8.2150   -3.2760 H         2 RES2    0.0000
    168 H64       -3.4303    7.5322   -1.3387 H         2 RES2    0.0000
    169 H65       -4.2108    6.7853    1.0664 H         2 RES2    0.0000
    170 H66       -4.4040    5.9822    3.2533 H         2 RES2    0.0000
    171 H67       -2.5749    6.0308    4.6827 H         2 RES2    0.0000
    172 H68       -0.5241    6.9107    3.9794 H         2 RES2    0.0000
    173 H69        4.1383   14.0950    1.9111 H         2 RES2    0.0000
    174 H70        4.0584   14.5196    3.4523 H         2 RES2    0.0000
    175 H71        5.7440   12.9594    4.0003 H         2 RES2    0.0000
    176 H72        6.2863   13.9543    2.8623 H         2 RES2    0.0000
    177 H73        6.7836   11.7062    2.2951 H         2 RES2    0.0000
    178 H74        5.8243   12.3635    1.1973 H         2 RES2    0.0000
    179 H75        1.0882   12.5937    2.8344 H         2 RES2    0.0000
    180 H76        1.8297   13.2842    1.5952 H         2 RES2    0.0000
    181 H77        1.6300   14.0950    2.9583 H         2 RES2    0.0000
    182 H78        3.8948   12.2356    4.9672 H         2 RES2    0.0000
    183 H79        2.4814   11.5425    4.6880 H         2 RES2    0.0000
    184 H80        2.5522   13.1052    5.0318 H         2 RES2    0.0000
    185 H81        4.3772    9.1844    1.2933 H         2 RES2    0.0000
    186 H82        5.9142    9.5910    1.1310 H         2 RES2    0.0000
    187 H83        4.7860   10.3916    0.3281 H         2 RES2    0.0000
    188 H84        5.2747   10.8085    4.3651 H         2 RES2    0.0000
    189 H85        5.9337    9.6064    3.5395 H         2 RES2    0.0000
    190 H86        4.3651    9.5910    3.8589 H         2 RES2    0.0000
    191 H87        2.7938    3.0487   -1.8832 H         2 RES2    0.0000
    192 H88        3.7272    3.7443   -0.7871 H         2 RES2    0.0000
    193 H89        1.7259    1.7724   -0.2234 H         2 RES2    0.0000
    194 H90        3.3081    1.5371   -0.1257 H         2 RES2    0.0000
    195 H91        3.4764    3.0538    1.6458 H         2 RES2    0.0000
    196 H92        2.3871    1.9463    2.0228 H         2 RES2    0.0000
    197 H93        0.1734    3.2379   -1.0385 H         2 RES2    0.0000
    198 H94        0.4785    4.1050   -2.3492 H         2 RES2    0.0000
    199 H95       -0.2444    4.7827   -1.0943 H         2 RES2    0.0000
    200 H96        3.1287    6.0590   -1.1327 H         2 RES2    0.0000
    201 H97        1.6321    6.4324   -1.5568 H         2 RES2    0.0000
    202 H98        2.5106    5.4682   -2.4854 H         2 RES2    0.0000
    203 H99       -0.5297    4.0001    1.6528 H         2 RES2    0.0000
    204 H100      -0.0316    2.7597    2.5342 H         2 RES2    0.0000
    205 H101      -0.0185    2.6625    0.9372 H         2 RES2    0.0000
    206 H102       1.1487    5.1178    3.2358 H         2 RES2    0.0000
    207 H103       2.7137    4.8671    3.0159 H         2 RES2    0.0000
    208 H104       1.8144    3.7495    3.7263 H         2 RES2    0.0000
@<TRIPOS>BOND
     1    1   33 2
     2    2    5 1
     3    3   43 2
     4    4    6 1
     5    5   34 1
     6    6   44 1
     7    7    8 1
     8    8    9 ar
     9    9   10 ar
    10   10   11 ar
    11   11   12 ar
    12   12   13 ar
    13   13    8 ar
    14   14   13 1
    15   15   14 ar
    16   16   15 ar
    17   17   16 ar
    18   18   17 ar
    19   19    7 1
    20   20    7 1
    21   21   20 1
    22   22   21 ar
    23   23   22 ar
    24   24   23 ar
    25   25   24 ar
    26   26   21 ar
    27   27   26 1
    28   28   27 ar
    29   29   28 ar
    30   30   29 ar
    31   31   30 ar
    32   32   20 1
    33   33    2 1
    34   34   35 1
    35   35   36 1
    36   36   37 1
    37   37   38 1
    38   38    5 1
    39   39   34 1
    40   40   34 1
    41   41   38 1
    42   42   38 1
    43   43    4 1
    44   44   45 1
    45   45   46 1
    46   46   47 1
    47   47   48 1
    48   48    6 1
    49   49   44 1
    50   50   44 1
    51   51   48 1
    52   52   48 1
    53   53   85 2
    54   54   57 1
    55   55   95 2
    56   56   58 1
    57   57   86 1
    58   58   96 1
    59   59   60 1
    60   60   61 ar
    61   61   62 ar
    62   62   63 ar
    63   63   64 ar
    64   64   65 ar
    65   65   60 ar
    66   66   65 1
    67   67   66 ar
    68   68   67 ar
    69   69   68 ar
    70   70   69 ar
    71   71   59 1
    72   72   59 1
    73   73   72 1
    74   74   73 ar
    75   75   74 ar
    76   76   75 ar
    77   77   76 ar
    78   78   73 ar
    79   79   78 1
    80   80   79 ar
    81   81   80 ar
    82   82   81 ar
    83   83   82 ar
    84   84   72 1
    85   85   54 1
    86   86   87 1
    87   87   88 1
    88   88   89 1
    89   89   90 1
    90   90   57 1
    91   91   86 1
    92   92   86 1
    93   93   90 1
    94   94   90 1
    95   95   56 1
    96   96   97 1
    97   97   98 1
    98   98   99 1
    99   99  100 1
   100  100   58 1
   101  101   96 1
   102  102   96 1
   103  103  100 1
   104  104  100 1
   105  105    9 1
   106  106   10 1
   107  107   11 1
   108  108   12 1
   109  109   15 1
   110  110   16 1
   111  111   17 1
   112  112   18 1
   113  113   22 1
   114  114   23 1
   115  115   24 1
   116  116   25 1
   117  117   28 1
   118  118   29 1
   119  119   30 1
   120  120   31 1
   121  121   35 1
   122  122   35 1
   123  123   36 1
   124  124   36 1
   125  125   37 1
   126  126   37 1
   127  127   39 1
   128  128   39 1
   129  129   39 1
   130  130   40 1
   131  131   40 1
   132  132   40 1
   133  133   41 1
   134  134   41 1
   135  135   41 1
   136  136   42 1
   137  137   42 1
   138  138   42 1
   139  139   45 1
   140  140   45 1
   141  141   46 1
   142  142   46 1
   143  143   47 1
   144  144   47 1
   145  145   49 1
   146  146   49 1
   147  147   49 1
   148  148   50 1
   149  149   50 1
   150  150   50 1
   151  151   51 1
   152  152   51 1
   153  153   51 1
   154  154   52 1
   155  155   52 1
   156  156   52 1
   157  157   61 1
   158  158   62 1
   159  159   63 1
   160  160   64 1
   161  161   67 1
   162  162   68 1
   163  163   69 1
   164  164   70 1
   165  165   74 1
   166  166   75 1
   167  167   76 1
   168  168   77 1
   169  169   80 1
   170  170   81 1
   171  171   82 1
   172  172   83 1
   173  173   87 1
   174  174   87 1
   175  175   88 1
   176  176   88 1
   177  177   89 1
   178  178   89 1
   179  179   91 1
   180  180   91 1
   181  181   91 1
   182  182   92 1
   183  183   92 1
   184  184   92 1
   185  185   93 1
   186  186   93 1
   187  187   93 1
   188  188   94 1
   189  189   94 1
   190  190   94 1
   191  191   97 1
   192  192   97 1
   193  193   98 1
   194  194   98 1
   195  195   99 1
   196  196   99 1
   197  197  101 1
   198  198  101 1
   199  199  101 1
   200  200  102 1
   201  201  102 1
   202  202  102 1
   203  203  103 1
   204  204  103 1
   205  205  103 1
   206  206  104 1
   207  207  104 1
   208  208  104 1
   209    7   33 1
   210   14   19 ar
   211   18   19 ar
   212   20   43 1
   213   25   26 ar
   214   27   32 ar
   215   31   32 ar
   216   59   85 1
   217   66   71 ar
   218   70   71 ar
   219   72   95 1
   220   77   78 ar
   221   79   84 ar
   222   83   84 ar
@<TRIPOS>SUBSTRUCTURE
     1 RES1 1
     2 RES2 53

@<TRIPOS>CRYSIN
  17.7299   25.5761   18.7487  90.0000 111.4230  90.0000 231 1

