# MOL2 file generated by ConQuest
# Please check atom types

@<TRIPOS>MOLECULE
PUYPOQ
    43    44     1
SMALL
NO_CHARGES
****
Generated from CSD

@<TRIPOS>ATOM
      1 O1         3.2550    5.1043   -0.0424 O.2       1 RES1    0.0000
      2 O2         0.1328    4.5925    1.9227 O.3       1 RES1    0.0000
      3 O3        -0.5264    6.2009    3.3473 O.2       1 RES1    0.0000
      4 O4         2.1347    7.3881   -1.3613 O.3       1 RES1    0.0000
      5 O5         2.0225    6.3093   -3.3201 O.2       1 RES1    0.0000
      6 N1         2.5986    5.9168    1.9894 N.2       1 RES1    0.0000
      7 N2         2.4353    5.6449    0.7569 N.pl3     1 RES1    0.0000
      8 C1         7.0350    4.5790    5.3466 C.3       1 RES1    0.0000
      9 H1         7.3791    3.7082    5.1362 H         1 RES1    0.0000
     10 H2         6.7251    4.5887    6.2555 H         1 RES1    0.0000
     11 H3         7.7289    5.2329    5.2389 H         1 RES1    0.0000
     12 C2         5.8904    4.9044    4.4225 C.ar      1 RES1    0.0000
     13 C3         4.7913    5.6174    4.8642 C.ar      1 RES1    0.0000
     14 H4         4.7520    5.8925    5.7526 H         1 RES1    0.0000
     15 C4         3.7480    5.9297    4.0116 C.ar      1 RES1    0.0000
     16 H5         3.0180    6.4064    4.3337 H         1 RES1    0.0000
     17 C5         3.7790    5.5388    2.6730 C.ar      1 RES1    0.0000
     18 C6         4.8932    4.8339    2.2086 C.ar      1 RES1    0.0000
     19 H6         4.9470    4.5734    1.3183 H         1 RES1    0.0000
     20 C7         5.9091    4.5305    3.0845 C.ar      1 RES1    0.0000
     21 H7         6.6413    4.0530    2.7671 H         1 RES1    0.0000
     22 C8         1.1190    5.9686    0.2399 C.ar      1 RES1    0.0000
     23 C9        -0.0177    5.4547    0.8404 C.ar      1 RES1    0.0000
     24 C10       -1.2539    5.7015    0.3037 C.ar      1 RES1    0.0000
     25 H8        -2.0104    5.3422    0.7084 H         1 RES1    0.0000
     26 C11       -1.3910    6.4849   -0.8440 C.ar      1 RES1    0.0000
     27 C12       -0.2599    7.0272   -1.4176 C.ar      1 RES1    0.0000
     28 H9        -0.3380    7.5718   -2.1679 H         1 RES1    0.0000
     29 C13        0.9813    6.7666   -0.8871 C.ar      1 RES1    0.0000
     30 C14       -2.7556    6.7277   -1.4184 C.3       1 RES1    0.0000
     31 H10       -2.7132    7.4488   -2.0502 H         1 RES1    0.0000
     32 H11       -3.3634    6.9567   -0.7126 H         1 RES1    0.0000
     33 H12       -3.0630    5.9330   -1.8597 H         1 RES1    0.0000
     34 C15       -0.0807    5.1099    3.1718 C.2       1 RES1    0.0000
     35 C16        0.3492    4.1210    4.1946 C.3       1 RES1    0.0000
     36 H13        0.2554    4.5038    5.0699 H         1 RES1    0.0000
     37 H14        1.2677    3.8846    4.0448 H         1 RES1    0.0000
     38 H15       -0.1977    3.3343    4.1282 H         1 RES1    0.0000
     39 C17        2.5787    7.0668   -2.6043 C.2       1 RES1    0.0000
     40 C18        3.8424    7.7952   -2.8827 C.3       1 RES1    0.0000
     41 H16        4.1462    7.5823   -3.7687 H         1 RES1    0.0000
     42 H17        4.5107    7.5338   -2.2450 H         1 RES1    0.0000
     43 H18        3.6887    8.7404   -2.8164 H         1 RES1    0.0000
@<TRIPOS>BOND
     1    1    7 1
     2    2   23 1
     3    3   34 2
     4    4   29 1
     5    5   39 2
     6    6    7 2
     7    7   22 1
     8    8    9 1
     9   10    8 1
    10   11    8 1
    11   12    8 1
    12   13   12 ar
    13   14   13 1
    14   15   13 ar
    15   16   15 1
    16   17    6 1
    17   18   17 ar
    18   19   18 1
    19   20   12 ar
    20   21   20 1
    21   22   23 ar
    22   23   24 ar
    23   24   25 1
    24   26   24 ar
    25   27   26 ar
    26   28   27 1
    27   29   22 ar
    28   30   26 1
    29   31   30 1
    30   32   30 1
    31   33   30 1
    32   34    2 1
    33   35   34 1
    34   36   35 1
    35   37   35 1
    36   38   35 1
    37   39    4 1
    38   40   39 1
    39   41   40 1
    40   42   40 1
    41   43   40 1
    42   15   17 ar
    43   18   20 ar
    44   27   29 ar
@<TRIPOS>SUBSTRUCTURE
     1 RES1 1

@<TRIPOS>CRYSIN
  10.1540    8.0930   21.7200  90.0000  99.8340  90.0000  14 1

