# MOL2 file generated by ConQuest
# Please check atom types

@<TRIPOS>MOLECULE
PUYROQ
    42    39     3
SMALL
NO_CHARGES
****
Generated from CSD

@<TRIPOS>ATOM
      1 O1         6.2448    1.6018   -1.3409 O.3       1 RES1    0.0000
      2 H1         7.0483    1.6412   -1.5800 H         1 RES1    0.0000
      3 O2         3.7339    1.4706    2.4767 O.2       1 RES1    0.0000
      4 N1         6.1745    1.6234    0.0502 N.2       1 RES1    0.0000
      5 C1         3.7205    1.5114   -0.3373 C.3       1 RES1    0.0000
      6 H2         3.9559    1.4962   -1.2885 H         1 RES1    0.0000
      7 H3         3.1669    2.2977   -0.1516 H         1 RES1    0.0000
      8 H4         3.2209    0.6985   -0.1110 H         1 RES1    0.0000
      9 C2         4.9666    1.5763    0.4836 C.2       1 RES1    0.0000
     10 C3         4.8465    1.5598    1.9600 C.2       1 RES1    0.0000
     11 C4         6.0853    1.6247    2.7959 C.3       1 RES1    0.0000
     12 H5         5.8387    1.6603    3.7439 H         1 RES1    0.0000
     13 H6         6.5960    2.4275    2.5611 H         1 RES1    0.0000
     14 H7         6.6342    0.8295    2.6315 H         1 RES1    0.0000
     15 O3         1.0661    1.5865    1.9205 O.3       2 RES2    0.0000
     16 H8         1.8983    1.4822    1.9664 H         2 RES2    0.0000
     17 O4        -2.6280    1.4916    4.5745 O.2       2 RES2    0.0000
     18 N2         0.5261    1.5534    3.2037 N.2       2 RES2    0.0000
     19 C5        -1.6259    1.6666    1.9739 C.3       2 RES2    0.0000
     20 H9        -1.8187    0.7621    1.6494 H         2 RES2    0.0000
     21 H10       -2.4658    2.1170    2.2024 H         2 RES2    0.0000
     22 H11       -1.1639    2.1730    1.2736 H         2 RES2    0.0000
     23 C6        -0.7624    1.5840    3.1824 C.2       2 RES2    0.0000
     24 C7        -1.3911    1.5420    4.5126 C.2       2 RES2    0.0000
     25 C8        -0.5451    1.5623    5.7381 C.3       2 RES2    0.0000
     26 H12       -1.1082    1.4275    6.5270 H         2 RES2    0.0000
     27 H13        0.1225    0.8473    5.6869 H         2 RES2    0.0000
     28 H14       -0.0901    2.4287    5.8054 H         2 RES2    0.0000
     29 O5         4.6290    4.6019    1.6504 O.3       3 RES3    0.0000
     30 H15        4.9962    4.6730    0.8989 H         3 RES3    0.0000
     31 O6         0.5303    4.7155    3.5977 O.2       3 RES3    0.0000
     32 N3         3.2462    4.7290    1.5063 N.2       3 RES3    0.0000
     33 C9         3.2621    4.3854    3.9574 C.3       3 RES3    0.0000
     34 H16        4.2066    4.1552    3.8379 H         3 RES3    0.0000
     35 H17        3.1902    5.1971    4.5019 H         3 RES3    0.0000
     36 H18        2.8003    3.6475    4.4101 H         3 RES3    0.0000
     37 C10        2.6384    4.6208    2.6337 C.2       3 RES3    0.0000
     38 C11        1.1658    4.7875    2.5504 C.2       3 RES3    0.0000
     39 C12        0.5250    5.0597    1.2426 C.3       3 RES3    0.0000
     40 H19        0.7465    5.9707    0.9555 H         3 RES3    0.0000
     41 H20        0.8544    4.4198    0.5775 H         3 RES3    0.0000
     42 H21       -0.4471    4.9720    1.3291 H         3 RES3    0.0000
@<TRIPOS>BOND
     1    1    2 1
     2    3   10 2
     3    4    1 1
     4    5    6 1
     5    7    5 1
     6    8    5 1
     7    9    4 2
     8   10    9 1
     9   11   10 1
    10   12   11 1
    11   13   11 1
    12   14   11 1
    13   15   16 1
    14   17   24 2
    15   18   15 1
    16   19   20 1
    17   21   19 1
    18   22   19 1
    19   23   18 2
    20   24   23 1
    21   25   24 1
    22   26   25 1
    23   27   25 1
    24   28   25 1
    25   29   30 1
    26   31   38 2
    27   32   29 1
    28   33   34 1
    29   35   33 1
    30   36   33 1
    31   37   32 2
    32   38   37 1
    33   39   38 1
    34   40   39 1
    35   41   39 1
    36   42   39 1
    37    5    9 1
    38   19   23 1
    39   33   37 1
@<TRIPOS>SUBSTRUCTURE
     1 RES1 1
     2 RES2 15
     3 RES3 29

@<TRIPOS>CRYSIN
  11.5354   12.7225   11.8884  90.0000 116.1060  90.0000 231 1

