# MOL2 file generated by ConQuest
# Please check atom types

@<TRIPOS>MOLECULE
PUYYUD
    84    90     1
SMALL
NO_CHARGES
****
Generated from CSD

@<TRIPOS>ATOM
      1 O1         7.0813    1.2420    3.4603 O.2       1 RES1    0.0000
      2 O2         2.8528    4.3166    3.4519 O.2       1 RES1    0.0000
      3 O3         5.5500   -1.8070    8.7199 O.3       1 RES1    0.0000
      4 O4         5.2538    9.5655    4.9565 O.2       1 RES1    0.0000
      5 O5         3.7329    8.1362    4.5812 O.2       1 RES1    0.0000
      6 N1         4.7056    2.6496    1.7969 N.3       1 RES1    0.0000
      7 N2         4.8979    8.4445    4.6985 N.pl3     1 RES1    0.0000
      8 C1         5.4378    3.9078    1.8382 C.3       1 RES1    0.0000
      9 H1         4.8090    4.6589    1.8308 H         1 RES1    0.0000
     10 C2         6.1601    3.8433    3.1949 C.3       1 RES1    0.0000
     11 H2         7.0253    3.4193    3.0159 H         1 RES1    0.0000
     12 C3         5.3593    2.8223    4.0763 C.3       1 RES1    0.0000
     13 C4         4.1843    2.3566    3.1418 C.3       1 RES1    0.0000
     14 H3         4.0526    1.3902    3.2381 H         1 RES1    0.0000
     15 C5         6.2235    1.5536    4.2751 C.2       1 RES1    0.0000
     16 C6         5.9856    0.7071    5.4491 C.ar      1 RES1    0.0000
     17 C7         6.7357   -0.4659    5.6120 C.ar      1 RES1    0.0000
     18 H4         7.3563   -0.6970    4.9590 H         1 RES1    0.0000
     19 C8         6.5840   -1.2767    6.6971 C.ar      1 RES1    0.0000
     20 H5         7.0913   -2.0516    6.7761 H         1 RES1    0.0000
     21 C9         5.6573   -0.9366    7.6934 C.ar      1 RES1    0.0000
     22 C10        4.9192    0.2332    7.5588 C.ar      1 RES1    0.0000
     23 H6         4.3200    0.4728    8.2279 H         1 RES1    0.0000
     24 C11        5.0575    1.0505    6.4465 C.ar      1 RES1    0.0000
     25 C12        4.2434    2.3023    6.3033 C.3       1 RES1    0.0000
     26 H7         4.0627    2.6680    7.1835 H         1 RES1    0.0000
     27 H8         3.3933    2.0843    5.8910 H         1 RES1    0.0000
     28 C13        4.9500    3.3507    5.4639 C.3       1 RES1    0.0000
     29 H9         5.7417    3.6523    5.9342 H         1 RES1    0.0000
     30 H10        4.3620    4.1151    5.3503 H         1 RES1    0.0000
     31 C14        4.4871   -1.5950    9.6562 C.3       1 RES1    0.0000
     32 H11        4.5176   -2.2741   10.3327 H         1 RES1    0.0000
     33 H12        3.6444   -1.6373    9.1982 H         1 RES1    0.0000
     34 H13        4.5878   -0.7324   10.0636 H         1 RES1    0.0000
     35 C15        6.4815    5.1975    3.7985 C.ar      1 RES1    0.0000
     36 C16        5.5240    6.1853    3.9812 C.ar      1 RES1    0.0000
     37 H14        4.6357    6.0267    3.7590 H         1 RES1    0.0000
     38 C17        5.9111    7.4057    4.4985 C.ar      1 RES1    0.0000
     39 C18        7.2016    7.7004    4.8454 C.ar      1 RES1    0.0000
     40 H15        7.4297    8.5322    5.1935 H         1 RES1    0.0000
     41 C19        8.1473    6.7236    4.6578 C.ar      1 RES1    0.0000
     42 H16        9.0349    6.8948    4.8775 H         1 RES1    0.0000
     43 C20        7.7935    5.4831    4.1442 C.ar      1 RES1    0.0000
     44 H17        8.4486    4.8329    4.0294 H         1 RES1    0.0000
     45 C21        6.4248    4.0479    0.6901 C.ar      1 RES1    0.0000
     46 C22        6.4596    5.1752   -0.0876 C.ar      1 RES1    0.0000
     47 H18        5.8286    5.8467    0.0358 H         1 RES1    0.0000
     48 C23        7.4544    5.3157   -1.0765 C.ar      1 RES1    0.0000
     49 H19        7.4667    6.0739   -1.6160 H         1 RES1    0.0000
     50 C24        8.3885    4.3598   -1.2456 C.ar      1 RES1    0.0000
     51 H20        9.0564    4.4750   -1.8826 H         1 RES1    0.0000
     52 C25        8.3652    3.2356   -0.5000 C.ar      1 RES1    0.0000
     53 H21        8.9995    2.5710   -0.6395 H         1 RES1    0.0000
     54 C26        7.3913    3.0724    0.4765 C.ar      1 RES1    0.0000
     55 H22        7.3855    2.3002    0.9938 H         1 RES1    0.0000
     56 C27        2.8656    3.0905    3.4529 C.2       1 RES1    0.0000
     57 C28        1.6023    2.3190    3.6344 C.ar      1 RES1    0.0000
     58 C29        1.5680    0.9714    3.9022 C.ar      1 RES1    0.0000
     59 H23        2.3683    0.5068    3.9899 H         1 RES1    0.0000
     60 C30        0.3723    0.2878    4.0454 C.ar      1 RES1    0.0000
     61 H24        0.3701   -0.6236    4.2294 H         1 RES1    0.0000
     62 C31       -0.7997    0.9674    3.9121 C.ar      1 RES1    0.0000
     63 H25       -1.6069    0.5176    4.0146 H         1 RES1    0.0000
     64 C32       -0.8005    2.3005    3.6282 C.ar      1 RES1    0.0000
     65 H26       -1.6066    2.7483    3.5072 H         1 RES1    0.0000
     66 C33        0.3962    2.9863    3.5233 C.ar      1 RES1    0.0000
     67 H27        0.3904    3.9043    3.3751 H         1 RES1    0.0000
     68 C34        3.8858    2.3964    0.5975 C.3       1 RES1    0.0000
     69 H28        4.5084    2.4533   -0.1580 H         1 RES1    0.0000
     70 C35        2.7889    3.4162    0.2901 C.3       1 RES1    0.0000
     71 H29        2.1279    3.4027    1.0012 H         1 RES1    0.0000
     72 H30        3.1745    4.3049    0.2543 H         1 RES1    0.0000
     73 C36        2.1124    3.0981   -1.0419 C.3       1 RES1    0.0000
     74 H31        1.4014    3.7386   -1.2012 H         1 RES1    0.0000
     75 H32        2.7590    3.1835   -1.7592 H         1 RES1    0.0000
     76 C37        1.5462    1.7237   -1.0506 C.3       1 RES1    0.0000
     77 H33        1.1503    1.5420   -1.9172 H         1 RES1    0.0000
     78 H34        0.8483    1.6563   -0.3802 H         1 RES1    0.0000
     79 C38        2.6200    0.6987   -0.7629 C.3       1 RES1    0.0000
     80 H35        3.2655    0.6982   -1.4876 H         1 RES1    0.0000
     81 H36        2.2189   -0.1826   -0.7197 H         1 RES1    0.0000
     82 C39        3.3396    0.9953    0.5568 C.3       1 RES1    0.0000
     83 H37        2.7192    0.8726    1.2925 H         1 RES1    0.0000
     84 H38        4.0678    0.3650    0.6716 H         1 RES1    0.0000
@<TRIPOS>BOND
     1    1   15 2
     2    2   56 2
     3    3   21 1
     4    4    7 2
     5    5    7 2
     6    6    8 1
     7    7   38 1
     8    8    9 1
     9   10    8 1
    10   11   10 1
    11   12   10 1
    12   13    6 1
    13   14   13 1
    14   15   12 1
    15   16   15 1
    16   17   16 ar
    17   18   17 1
    18   19   17 ar
    19   20   19 1
    20   21   19 ar
    21   22   21 ar
    22   23   22 1
    23   24   16 ar
    24   25   24 1
    25   26   25 1
    26   27   25 1
    27   28   12 1
    28   29   28 1
    29   30   28 1
    30   31    3 1
    31   32   31 1
    32   33   31 1
    33   34   31 1
    34   35   10 1
    35   36   35 ar
    36   37   36 1
    37   38   36 ar
    38   39   38 ar
    39   40   39 1
    40   41   39 ar
    41   42   41 1
    42   43   35 ar
    43   44   43 1
    44   45    8 1
    45   46   45 ar
    46   47   46 1
    47   48   46 ar
    48   49   48 1
    49   50   48 ar
    50   51   50 1
    51   52   50 ar
    52   53   52 1
    53   54   45 ar
    54   55   54 1
    55   56   13 1
    56   57   56 1
    57   58   57 ar
    58   59   58 1
    59   60   58 ar
    60   61   60 1
    61   62   60 ar
    62   63   62 1
    63   64   62 ar
    64   65   64 1
    65   66   57 ar
    66   67   66 1
    67   68    6 1
    68   69   68 1
    69   70   68 1
    70   71   70 1
    71   72   70 1
    72   73   70 1
    73   74   73 1
    74   75   73 1
    75   76   73 1
    76   77   76 1
    77   78   76 1
    78   79   76 1
    79   80   79 1
    80   81   79 1
    81   82   68 1
    82   83   82 1
    83   84   82 1
    84   12   13 1
    85   22   24 ar
    86   25   28 1
    87   41   43 ar
    88   52   54 ar
    89   64   66 ar
    90   79   82 1
@<TRIPOS>SUBSTRUCTURE
     1 RES1 1

@<TRIPOS>CRYSIN
  11.2284   12.6346   12.9056 102.4530  96.4120 109.7750   2 1

