# MOL2 file generated by ConQuest
# Please check atom types

@<TRIPOS>MOLECULE
PXAZBZ01
    57    58     1
SMALL
USER_CHARGES
****
Generated from CSD

@<TRIPOS>ATOM
      1 C1        -1.2467    5.7366    8.9784 C.3       1 RES1    0.0000
      2 C2        -0.3841    4.5217    8.7817 C.3       1 RES1    0.0000
      3 C3        -0.7957    3.6498    7.6344 C.3       1 RES1    0.0000
      4 C4         0.0571    2.4260    7.4324 C.3       1 RES1    0.0000
      5 C5        -0.3522    1.6186    6.2398 C.3       1 RES1    0.0000
      6 O1         0.5590    0.5158    6.1127 O.3       1 RES1    0.0000
      7 C6         0.3369   -0.3885    5.1168 C.ar      1 RES1    0.0000
      8 C7         1.2002   -1.4587    5.0594 C.ar      1 RES1    0.0000
      9 C8         1.0455   -2.4471    4.1140 C.ar      1 RES1    0.0000
     10 C9         0.0125   -2.3625    3.1808 C.ar      1 RES1    0.0000
     11 C10       -0.8189   -1.2694    3.2226 C.ar      1 RES1    0.0000
     12 C11       -0.6725   -0.2984    4.1750 C.ar      1 RES1    0.0000
     13 N1        -0.3285   -3.2570    2.1084 N.2       1 RES1    0.0000
     14 N2         0.2046   -4.3819    2.0631 N.pl3     1 RES1    1.0000
     15 O2         1.0492   -4.9030    2.8605 O.2       1 RES1   -1.0000
     16 C12       -0.2484   -5.2272    0.9262 C.ar      1 RES1    0.0000
     17 C13        0.2402   -6.5038    0.8479 C.ar      1 RES1    0.0000
     18 C14       -0.1772   -7.3374   -0.1637 C.ar      1 RES1    0.0000
     19 C15       -1.0877   -6.9042   -1.1055 C.ar      1 RES1    0.0000
     20 C16       -1.5664   -5.5995   -1.0307 C.ar      1 RES1    0.0000
     21 C17       -1.1479   -4.7673   -0.0157 C.ar      1 RES1    0.0000
     22 O3        -1.5761   -7.6429   -2.1362 O.3       1 RES1    0.0000
     23 C18       -1.0306   -8.9563   -2.3591 C.3       1 RES1    0.0000
     24 C19       -1.7147   -9.5279   -3.5604 C.3       1 RES1    0.0000
     25 C20       -1.2146  -10.8972   -3.9678 C.3       1 RES1    0.0000
     26 C21       -1.9332  -11.4709   -5.1569 C.3       1 RES1    0.0000
     27 C22       -1.4178  -12.7946   -5.6270 C.3       1 RES1    0.0000
     28 H1        -1.3131    6.3138    8.1706 H         1 RES1    0.0000
     29 H2        -1.0280    6.1384    9.7462 H         1 RES1    0.0000
     30 H3        -2.2051    5.5283    9.1247 H         1 RES1    0.0000
     31 H4        -0.3880    4.0240    9.6504 H         1 RES1    0.0000
     32 H5         0.4896    4.7741    8.6999 H         1 RES1    0.0000
     33 H6        -0.8346    4.1418    6.8457 H         1 RES1    0.0000
     34 H7        -1.6849    3.3814    7.7527 H         1 RES1    0.0000
     35 H8         0.0399    1.7917    8.2472 H         1 RES1    0.0000
     36 H9         0.9444    2.6747    7.3488 H         1 RES1    0.0000
     37 H10       -0.3309    2.1644    5.4215 H         1 RES1    0.0000
     38 H11       -1.2397    1.2483    6.3425 H         1 RES1    0.0000
     39 H12        1.9016   -1.4785    5.6618 H         1 RES1    0.0000
     40 H13        1.6295   -3.0400    4.1436 H         1 RES1    0.0000
     41 H14       -1.5767   -1.2151    2.5280 H         1 RES1    0.0000
     42 H15       -1.4442    0.3700    4.1784 H         1 RES1    0.0000
     43 H16        0.8632   -6.7822    1.5164 H         1 RES1    0.0000
     44 H17        0.1829   -8.1424   -0.1880 H         1 RES1    0.0000
     45 H18       -2.2023   -5.3342   -1.7079 H         1 RES1    0.0000
     46 H19       -1.5041   -3.9464    0.0104 H         1 RES1    0.0000
     47 H20       -1.1619   -9.5107   -1.5234 H         1 RES1    0.0000
     48 H21       -0.0447   -8.8608   -2.4809 H         1 RES1    0.0000
     49 H22       -1.6390   -8.9616   -4.3142 H         1 RES1    0.0000
     50 H23       -2.7624   -9.1952   -3.3776 H         1 RES1    0.0000
     51 H24       -1.2867  -11.4759   -3.2313 H         1 RES1    0.0000
     52 H25       -0.3122  -10.8899   -4.1523 H         1 RES1    0.0000
     53 H26       -1.9177  -10.8295   -5.9038 H         1 RES1    0.0000
     54 H27       -2.8902  -11.4839   -4.9723 H         1 RES1    0.0000
     55 H28       -0.5322  -12.7169   -5.9856 H         1 RES1    0.0000
     56 H29       -1.3814  -13.4129   -4.9671 H         1 RES1    0.0000
     57 H30       -1.9047  -13.0489   -6.4278 H         1 RES1    0.0000
@<TRIPOS>BOND
     1    1    2 1
     2    2    3 1
     3    3    4 1
     4    4    5 1
     5    5    6 1
     6    6    7 1
     7    7    8 ar
     8    8    9 ar
     9    9   10 ar
    10   10   11 ar
    11   11   12 ar
    12   12    7 ar
    13   13   10 1
    14   14   13 2
    15   15   14 1
    16   16   14 1
    17   17   16 ar
    18   18   17 ar
    19   19   18 ar
    20   20   19 ar
    21   21   16 ar
    22   22   19 1
    23   23   22 1
    24   24   23 1
    25   25   24 1
    26   26   25 1
    27   27   26 1
    28   28    1 1
    29   29    1 1
    30   30    1 1
    31   31    2 1
    32   32    2 1
    33   33    3 1
    34   34    3 1
    35   35    4 1
    36   36    4 1
    37   37    5 1
    38   38    5 1
    39   39    8 1
    40   40    9 1
    41   41   11 1
    42   42   12 1
    43   43   17 1
    44   44   18 1
    45   45   20 1
    46   46   21 1
    47   47   23 1
    48   48   23 1
    49   49   24 1
    50   50   24 1
    51   51   25 1
    52   52   25 1
    53   53   26 1
    54   54   26 1
    55   55   27 1
    56   56   27 1
    57   57   27 1
    58   20   21 ar
@<TRIPOS>SUBSTRUCTURE
     1 RES1 1

@<TRIPOS>CRYSIN
   7.4280    8.2670   17.8680  97.7300  98.6600 101.2500   2 1

