# MOL2 file generated by ConQuest
# Please check atom types

@<TRIPOS>MOLECULE
PXTZOP
    28    30     1
SMALL
USER_CHARGES
****
Generated from CSD

@<TRIPOS>ATOM
      1 C1         0.8550   -4.4141   -0.3338 C.ar      1 RES1    0.0000
      2 C2         0.9987   -4.4071   -1.7231 C.ar      1 RES1    0.0000
      3 C3         0.1041   -3.7091   -2.5247 C.ar      1 RES1    0.0000
      4 C4        -5.3362    0.7361   -3.1770 C.ar      1 RES1    0.0000
      5 C5        -6.2630    1.2898   -2.2940 C.ar      1 RES1    0.0000
      6 C6        -7.2225    2.1569   -2.8134 C.ar      1 RES1    0.0000
      7 C7        -7.2577    2.4392   -4.1849 C.ar      1 RES1    0.0000
      8 C8        -6.3165    1.8669   -5.0417 C.ar      1 RES1    0.0000
      9 C9        -5.3389    1.0071   -4.5386 C.ar      1 RES1    0.0000
     10 C10       -2.7267   -1.5150   -2.5578 C.2       1 RES1    0.0000
     11 C11       -0.9624   -2.9799   -1.9466 C.ar      1 RES1    0.0000
     12 C12       -1.0949   -2.9805   -0.5462 C.ar      1 RES1    0.0000
     13 C13       -0.1899   -3.6980    0.2396 C.ar      1 RES1    0.0000
     14 H1        -1.8272   -2.4877   -0.1457 H         1 RES1    0.0000
     15 H2        -0.2682   -3.6750    1.1768 H         1 RES1    0.0000
     16 H3         1.4608   -4.8811    0.2017 H         1 RES1    0.0000
     17 H4         1.7398   -4.8623   -2.1295 H         1 RES1    0.0000
     18 H5         0.1557   -3.7315   -3.4745 H         1 RES1    0.0000
     19 H6        -6.1744    1.0931   -1.3786 H         1 RES1    0.0000
     20 H7        -7.8124    2.5631   -2.2528 H         1 RES1    0.0000
     21 H8        -7.9532    3.0154   -4.5056 H         1 RES1    0.0000
     22 H9        -6.3419    2.0542   -5.9739 H         1 RES1    0.0000
     23 H10       -4.6484    0.6219   -5.1109 H         1 RES1    0.0000
     24 N1        -4.1415   -0.2147   -1.3744 N.2       1 RES1    0.0000
     25 N2        -4.3260   -0.1461   -2.6605 N.pl3     1 RES1    1.0000
     26 N3        -3.5511   -0.8679   -3.4438 N.2       1 RES1    0.0000
     27 N4        -1.7864   -2.3130   -2.8648 N.2       1 RES1   -1.0000
     28 O1        -3.1102   -1.1151   -1.2556 O.2       1 RES1    0.0000
@<TRIPOS>BOND
     1    1    2 ar
     2    2    3 ar
     3    3   11 ar
     4    4    5 ar
     5    5    6 ar
     6    6    7 ar
     7    7    8 ar
     8    8    9 ar
     9    9    4 ar
    10   10   26 un
    11   11   12 ar
    12   12   13 ar
    13   13    1 ar
    14   14   12 1
    15   15   13 1
    16   16    1 1
    17   17    2 1
    18   18    3 1
    19   19    5 1
    20   20    6 1
    21   21    7 1
    22   22    8 1
    23   23    9 1
    24   24   25 un
    25   25    4 1
    26   26   25 un
    27   27   10 1
    28   28   10 un
    29   11   27 1
    30   24   28 un
@<TRIPOS>SUBSTRUCTURE
     1 RES1 1

@<TRIPOS>CRYSIN
   5.2330   18.8460   11.6430  90.0000 105.7100  90.0000  14 1

