# MOL2 file generated by ConQuest
# Please check atom types

@<TRIPOS>MOLECULE
PYBZNO10
    55    56     1
SMALL
NO_CHARGES
****
Generated from CSD

@<TRIPOS>ATOM
      1 C1         3.9632    0.3156    0.1030 C.3       1 RES1    0.0000
      2 C2         2.5400    2.5652    1.5489 C.3       1 RES1    0.0000
      3 C3         7.1450   -0.4797    1.2011 C.3       1 RES1    0.0000
      4 C4         7.7397   -1.2358    2.4249 C.3       1 RES1    0.0000
      5 C5         7.8902   -0.9375   -0.0671 C.3       1 RES1    0.0000
      6 C6         7.2556    1.0739    1.4081 C.3       1 RES1    0.0000
      7 C7         2.3696   -0.6381   -1.5687 C.3       1 RES1    0.0000
      8 C8         3.4284   -1.2728   -2.5109 C.3       1 RES1    0.0000
      9 C9         1.0824   -1.4831   -1.5640 C.3       1 RES1    0.0000
     10 C10        2.0070    0.7953   -2.0336 C.3       1 RES1    0.0000
     11 C11        3.9850    0.5734    1.5914 C.2       1 RES1    0.0000
     12 C12        4.8335   -0.5479    2.1612 C.3       1 RES1    0.0000
     13 C13        3.9705   -1.7352    2.5317 C.2       1 RES1    0.0000
     14 C14        2.8591   -2.2241    1.6056 C.3       1 RES1    0.0000
     15 C15        2.8500   -3.7824    1.6027 C.3       1 RES1    0.0000
     16 C16        1.4848   -1.6993    2.0733 C.3       1 RES1    0.0000
     17 C17        3.3541    1.5144    2.2586 C.2       1 RES1    0.0000
     18 C18        3.3577    1.6022    3.7630 C.3       1 RES1    0.0000
     19 H1         3.9777    1.2462   -0.3289 H         1 RES1    0.0000
     20 H2         3.8127    2.5305    4.1108 H         1 RES1    0.0000
     21 H3         4.0122    0.8647    3.9813 H         1 RES1    0.0000
     22 H4         2.9207    3.4969    1.8267 H         1 RES1    0.0000
     23 H5         1.6680    2.3374    1.5489 H         1 RES1    0.0000
     24 H6         2.9697    2.6241    0.4489 H         1 RES1    0.0000
     25 H7         7.4823   -0.7502    3.4370 H         1 RES1    0.0000
     26 H8         8.7876   -0.7919    2.5468 H         1 RES1    0.0000
     27 H9         7.5439   -2.3629    2.0922 H         1 RES1    0.0000
     28 H10        8.9290   -0.6300    0.0302 H         1 RES1    0.0000
     29 H11        7.6454   -0.3433   -0.7891 H         1 RES1    0.0000
     30 H12        5.1942   -0.2300    2.9361 H         1 RES1    0.0000
     31 H13        7.9083   -2.0218    0.0123 H         1 RES1    0.0000
     32 H14        6.7988    1.5502    0.6454 H         1 RES1    0.0000
     33 H15        8.3362    1.3479    1.2909 H         1 RES1    0.0000
     34 H16        6.7933    1.3618    2.3644 H         1 RES1    0.0000
     35 H17        3.7910   -2.3120   -2.1830 H         1 RES1    0.0000
     36 H18        3.1800   -1.3051   -3.4313 H         1 RES1    0.0000
     37 H19        4.4002   -0.4659   -2.2935 H         1 RES1    0.0000
     38 H20        1.2890   -2.4773   -1.3306 H         1 RES1    0.0000
     39 H21        0.2266   -0.7711   -0.9327 H         1 RES1    0.0000
     40 H22        0.6055   -1.4554   -2.4343 H         1 RES1    0.0000
     41 H23        2.1702   -4.2182    1.1435 H         1 RES1    0.0000
     42 H24        2.8192    1.1988   -2.1688 H         1 RES1    0.0000
     43 H25        1.3090    1.3745   -1.4780 H         1 RES1    0.0000
     44 H26        1.4123    0.6751   -2.9078 H         1 RES1    0.0000
     45 H27        3.8762   -4.0587    1.2087 H         1 RES1    0.0000
     46 H28        2.9044   -3.9165    2.5307 H         1 RES1    0.0000
     47 H29        1.2165   -2.0334    3.0183 H         1 RES1    0.0000
     48 H30        1.4830   -0.5722    2.1348 H         1 RES1    0.0000
     49 H31        0.7361   -1.9490    1.4846 H         1 RES1    0.0000
     50 H32        2.4856    1.5641    4.1504 H         1 RES1    0.0000
     51 N1         5.7309   -0.9757    1.0452 N.3       1 RES1    0.0000
     52 N2         2.7956   -0.5445   -0.1625 N.3       1 RES1    0.0000
     53 O1         5.2106   -0.3098   -0.1720 O.3       1 RES1    0.0000
     54 O2         3.1637   -1.8889    0.2391 O.3       1 RES1    0.0000
     55 O3         4.1155   -2.2530    3.6118 O.2       1 RES1    0.0000
@<TRIPOS>BOND
     1    1   11 1
     2    2   17 1
     3    3    4 1
     4    4   25 1
     5    5    3 1
     6    6    3 1
     7    7    8 1
     8    8   35 1
     9    9    7 1
    10   10    7 1
    11   11   12 1
    12   12   13 1
    13   13   14 1
    14   14   15 1
    15   15   41 1
    16   16   14 1
    17   17   11 2
    18   18   17 1
    19   19    1 1
    20   20   18 1
    21   21   18 1
    22   22    2 1
    23   23    2 1
    24   24    2 1
    25   26    4 1
    26   27    4 1
    27   28    5 1
    28   29    5 1
    29   30   12 1
    30   31    5 1
    31   32    6 1
    32   33    6 1
    33   34    6 1
    34   36    8 1
    35   37    8 1
    36   38    9 1
    37   39    9 1
    38   40    9 1
    39   42   10 1
    40   43   10 1
    41   44   10 1
    42   45   15 1
    43   46   15 1
    44   47   16 1
    45   48   16 1
    46   49   16 1
    47   50   18 1
    48   51    3 1
    49   52    1 1
    50   53    1 1
    51   54   14 1
    52   55   13 2
    53    7   52 1
    54   12   51 1
    55   51   53 1
    56   52   54 1
@<TRIPOS>SUBSTRUCTURE
     1 RES1 1

@<TRIPOS>CRYSIN
  18.1300   11.5600    9.4500  90.0000  90.0000  90.0000  33 1

