# MOL2 file generated by ConQuest
# Please check atom types

@<TRIPOS>MOLECULE
PYDSYD10
    30    32     2
SMALL
NO_CHARGES
****
Generated from CSD

@<TRIPOS>ATOM
      1 O1        -4.6438    0.4107   12.0570 O.3       1 RES1    0.0000
      2 N1        -4.3592    1.6034   11.4143 N.2       1 RES1    0.0000
      3 N2        -4.6370    2.5134   12.3194 N.pl3     1 RES1    0.0000
      4 C1        -5.0965    2.0290   13.4724 C.2       1 RES1    0.0000
      5 C2        -5.1125    0.6384   13.3464 C.2       1 RES1    0.0000
      6 O2        -5.4063   -0.3183   14.0510 O.2       1 RES1    0.0000
      7 C3        -4.4333    3.9031   11.9805 C.ar      1 RES1    0.0000
      8 C4        -3.5422    4.2334   11.0011 C.ar      1 RES1    0.0000
      9 N3        -3.2989    5.5093   10.6539 N.ar      1 RES1    0.0000
     10 C5        -4.0153    6.4491   11.2532 C.ar      1 RES1    0.0000
     11 C6        -4.9595    6.1868   12.2161 C.ar      1 RES1    0.0000
     12 C7        -5.1934    4.8578   12.5777 C.ar      1 RES1    0.0000
     13 H1        -5.2672    2.6132   14.2783 H         1 RES1    0.0000
     14 H2        -3.9087    7.3451   10.9928 H         1 RES1    0.0000
     15 H3        -5.9064    4.7132   13.2864 H         1 RES1    0.0000
     16 O3        -2.1011    4.2661    7.0172 O.3       2 RES2    0.0000
     17 N4        -2.4956    3.0752    7.5979 N.2       2 RES2    0.0000
     18 N5        -1.8152    2.1811    6.9470 N.pl3     2 RES2    0.0000
     19 C8        -1.0367    2.6608    5.9820 C.2       2 RES2    0.0000
     20 C9        -1.1663    4.0440    5.9882 C.2       2 RES2    0.0000
     21 O4        -0.7279    4.9969    5.3745 O.2       2 RES2    0.0000
     22 C10       -1.9899    0.8008    7.3354 C.ar      2 RES2    0.0000
     23 C11       -2.5066    0.5208    8.5876 C.ar      2 RES2    0.0000
     24 N6        -2.7187   -0.7420    8.9802 N.ar      2 RES2    0.0000
     25 C12       -2.4671   -1.7257    8.1516 C.ar      2 RES2    0.0000
     26 C13       -1.9534   -1.5203    6.8870 C.ar      2 RES2    0.0000
     27 C14       -1.6610   -0.2063    6.4758 C.ar      2 RES2    0.0000
     28 H4        -2.7477    1.3253    9.2158 H         2 RES2    0.0000
     29 H5        -2.6255   -2.6039    8.4099 H         2 RES2    0.0000
     30 H6        -1.3337    0.0000    5.5171 H         2 RES2    0.0000
@<TRIPOS>BOND
     1    1    2 1
     2    2    3 un
     3    3    4 un
     4    4    5 1
     5    5    1 1
     6    6    5 2
     7    7    3 1
     8    8    7 ar
     9    9    8 ar
    10   10    9 ar
    11   11   10 ar
    12   12    7 ar
    13   13    4 1
    14   14   10 1
    15   15   12 1
    16   16   17 1
    17   17   18 un
    18   18   19 un
    19   19   20 1
    20   20   16 1
    21   21   20 2
    22   22   18 1
    23   23   22 ar
    24   24   23 ar
    25   25   24 ar
    26   26   25 ar
    27   27   22 ar
    28   28   23 1
    29   29   25 1
    30   30   27 1
    31   11   12 ar
    32   26   27 ar
@<TRIPOS>SUBSTRUCTURE
     1 RES1 1
     2 RES2 16

@<TRIPOS>CRYSIN
   7.3430    9.3330   23.3400  90.0000 117.7100  90.0000  13 1

