# MOL2 file generated by ConQuest
# Please check atom types

@<TRIPOS>MOLECULE
PYDSYD12
    34    36     2
SMALL
USER_CHARGES
****
Generated from CSD

@<TRIPOS>ATOM
      1 C1         3.4701   11.9777    1.2942 C.2       1 RES1    0.0000
      2 C2         2.6792   12.0594    0.1468 C.2       1 RES1    0.0000
      3 H1         2.4674   12.8301   -0.3285 H         1 RES1    0.0000
      4 C3         1.4288   10.3842   -1.2174 C.ar      1 RES1    0.0000
      5 C4         0.4716   11.2435   -1.7029 C.ar      1 RES1    0.0000
      6 H2         0.3687   12.1023   -1.3586 H         1 RES1    0.0000
      7 C5        -0.3313   10.7753   -2.7262 C.ar      1 RES1    0.0000
      8 H3        -0.9954   11.3145   -3.0911 H         1 RES1    0.0000
      9 C6        -0.1333    9.4934   -3.1967 C.ar      1 RES1    0.0000
     10 H4        -0.6929    9.1847   -3.8729 H         1 RES1    0.0000
     11 C7         1.5889    9.1210   -1.7578 C.ar      1 RES1    0.0000
     12 H5         2.2602    8.5727   -1.4231 H         1 RES1    0.0000
     13 N1         2.2863   10.8118   -0.1357 N.pl3     1 RES1    1.0000
     14 N2         2.7108    9.8884    0.6982 N.2       1 RES1   -1.0000
     15 N3         0.8164    8.6648   -2.7399 N.ar      1 RES1    0.0000
     16 O1         3.4721   10.5970    1.6020 O.3       1 RES1    0.0000
     17 O2         4.0997   12.7499    1.9971 O.2       1 RES1    0.0000
     18 C8        -0.5932   15.0166   -1.3799 C.2       2 RES2    0.0000
     19 C9        -1.4697   14.9307   -2.4676 C.2       2 RES2    0.0000
     20 H6        -1.6527   14.1720   -2.9738 H         2 RES2    0.0000
     21 C10       -2.9872   16.5582   -3.6020 C.ar      2 RES2    0.0000
     22 C11       -3.7360   15.6135   -4.2673 C.ar      2 RES2    0.0000
     23 H7        -3.6007   14.7039   -4.1232 H         2 RES2    0.0000
     24 C12       -4.6940   16.0602   -5.1547 C.ar      2 RES2    0.0000
     25 H8        -5.2217   15.4562   -5.6252 H         2 RES2    0.0000
     26 C13       -4.8522   17.4182   -5.3296 C.ar      2 RES2    0.0000
     27 H9        -5.5007   17.7106   -5.9284 H         2 RES2    0.0000
     28 C14       -3.2007   17.9013   -3.8324 C.ar      2 RES2    0.0000
     29 H10       -2.6811   18.5229   -3.3757 H         2 RES2    0.0000
     30 N4        -1.9916   16.1494   -2.6397 N.pl3     2 RES2    1.0000
     31 N5        -1.5659   17.0614   -1.7962 N.2       2 RES2   -1.0000
     32 N6        -4.1255   18.3402   -4.6870 N.ar      2 RES2    0.0000
     33 O3        -0.6777   16.3793   -0.9932 O.3       2 RES2    0.0000
     34 O4         0.1319   14.2649   -0.7617 O.2       2 RES2    0.0000
@<TRIPOS>BOND
     1    1    2 1
     2    2    3 1
     3    4    5 ar
     4    5    6 1
     5    7    5 ar
     6    8    7 1
     7    9    7 ar
     8   10    9 1
     9   11    4 ar
    10   12   11 1
    11   13    2 2
    12   14   13 1
    13   15    9 ar
    14   16    1 1
    15   17    1 2
    16   18   19 1
    17   19   20 1
    18   21   22 ar
    19   22   23 1
    20   24   22 ar
    21   25   24 1
    22   26   24 ar
    23   27   26 1
    24   28   21 ar
    25   29   28 1
    26   30   19 2
    27   31   30 1
    28   32   26 ar
    29   33   18 1
    30   34   18 2
    31    4   13 1
    32   11   15 ar
    33   14   16 1
    34   21   30 1
    35   28   32 ar
    36   31   33 1
@<TRIPOS>SUBSTRUCTURE
     1 RES1 1
     2 RES2 18

@<TRIPOS>CRYSIN
   8.9488   22.2551    7.3482  90.0000 111.0390  90.0000  14 1

