# MOL2 file generated by ConQuest
# Please check atom types

@<TRIPOS>MOLECULE
PYDSYD14
    34    36     2
SMALL
USER_CHARGES
****
Generated from CSD

@<TRIPOS>ATOM
      1 C1         1.1591    0.6175    5.9735 C.2       1 RES1    0.0000
      2 C2         1.0179    2.0028    5.9653 C.2       1 RES1    0.0000
      3 H1         0.4816    2.5014    5.3928 H         1 RES1    0.0000
      4 C3         1.9828    3.8524    7.3232 C.ar      1 RES1    0.0000
      5 C4         1.6623    4.8552    6.4565 C.ar      1 RES1    0.0000
      6 H2         1.3141    4.6723    5.6133 H         1 RES1    0.0000
      7 C5         1.8754    6.1552    6.8771 C.ar      1 RES1    0.0000
      8 H3         1.6661    6.8748    6.3263 H         1 RES1    0.0000
      9 C6         2.3966    6.3557    8.1129 C.ar      1 RES1    0.0000
     10 H4         2.5551    7.2332    8.3787 H         1 RES1    0.0000
     11 C7         2.4854    4.1375    8.5718 C.ar      1 RES1    0.0000
     12 H5         2.6832    3.4355    9.1494 H         1 RES1    0.0000
     13 N1         1.7968    2.4736    6.9340 N.pl3     1 RES1    1.0000
     14 N2         2.4740    1.5720    7.5831 N.2       1 RES1   -1.0000
     15 N3         2.6972    5.3826    8.9759 N.ar      1 RES1    0.0000
     16 O1         2.0847    0.3881    7.0036 O.3       1 RES1    0.0000
     17 O2         0.7167   -0.3268    5.3607 O.2       1 RES1    0.0000
     18 C8        -0.3104   -4.0121    3.0160 C.2       2 RES2    0.0000
     19 C9        -0.3455   -2.6221    3.1454 C.2       2 RES2    0.0000
     20 H6        -0.1131   -2.1282    3.8988 H         2 RES2    0.0000
     21 C10       -0.9788   -0.7595    1.6310 C.ar      2 RES2    0.0000
     22 C11       -0.2380    0.2080    2.2418 C.ar      2 RES2    0.0000
     23 H7         0.4030   -0.0037    2.8808 H         2 RES2    0.0000
     24 C12       -0.4784    1.5116    1.8730 C.ar      2 RES2    0.0000
     25 H8        -0.0103    2.2052    2.2771 H         2 RES2    0.0000
     26 C13       -1.4035    1.7790    0.9149 C.ar      2 RES2    0.0000
     27 H9        -1.5375    2.6639    0.6635 H         2 RES2    0.0000
     28 C14       -1.9113   -0.4299    0.6889 C.ar      2 RES2    0.0000
     29 H10       -2.4116   -1.1059    0.2926 H         2 RES2    0.0000
     30 N4        -0.7776   -2.1412    1.9815 N.pl3     2 RES2    1.0000
     31 N5        -1.0652   -3.0493    1.0800 N.2       2 RES2   -1.0000
     32 N6        -2.1258    0.8357    0.3188 N.ar      2 RES2    0.0000
     33 O3        -0.7824   -4.2387    1.7124 O.3       2 RES2    0.0000
     34 O4        -0.0189   -4.9629    3.7113 O.2       2 RES2    0.0000
@<TRIPOS>BOND
     1    1    2 1
     2    2    3 1
     3    4    5 ar
     4    5    6 1
     5    7    5 ar
     6    8    7 1
     7    9    7 ar
     8   10    9 1
     9   11    4 ar
    10   12   11 1
    11   13    2 2
    12   14   13 1
    13   15    9 ar
    14   16    1 1
    15   17    1 2
    16   18   19 1
    17   19   20 1
    18   21   22 ar
    19   22   23 1
    20   24   22 ar
    21   25   24 1
    22   26   24 ar
    23   27   26 1
    24   28   21 ar
    25   29   28 1
    26   30   19 2
    27   31   30 1
    28   32   26 ar
    29   33   18 1
    30   34   18 2
    31    4   13 1
    32   11   15 ar
    33   14   16 1
    34   21   30 1
    35   28   32 ar
    36   31   33 1
@<TRIPOS>SUBSTRUCTURE
     1 RES1 1
     2 RES2 18

@<TRIPOS>CRYSIN
   7.3225    9.2852   20.9610  90.0000 100.5480  90.0000  13 1

