# MOL2 file generated by ConQuest
# Please check atom types

@<TRIPOS>MOLECULE
PYDSYD13
    34    36     2
SMALL
USER_CHARGES
****
Generated from CSD

@<TRIPOS>ATOM
      1 C1         3.4773   12.0022    1.3035 C.2       1 RES1    0.0000
      2 C2         2.6871   12.0783    0.1548 C.2       1 RES1    0.0000
      3 H1         2.4645   12.8510   -0.3123 H         1 RES1    0.0000
      4 C3         1.4645   10.4066   -1.2362 C.ar      1 RES1    0.0000
      5 C4         0.5136   11.2578   -1.7235 C.ar      1 RES1    0.0000
      6 H2         0.4015   12.1130   -1.3750 H         1 RES1    0.0000
      7 C5        -0.2733   10.7898   -2.7549 C.ar      1 RES1    0.0000
      8 H3        -0.9331   11.3305   -3.1255 H         1 RES1    0.0000
      9 C6        -0.0678    9.5139   -3.2310 C.ar      1 RES1    0.0000
     10 H4        -0.6187    9.2057   -3.9134 H         1 RES1    0.0000
     11 C7         1.6360    9.1540   -1.7741 C.ar      1 RES1    0.0000
     12 H5         2.3055    8.6082   -1.4319 H         1 RES1    0.0000
     13 N1         2.3125   10.8366   -0.1465 N.pl3     1 RES1    1.0000
     14 N2         2.7530    9.9105    0.6795 N.2       1 RES1   -1.0000
     15 N3         0.8800    8.6963   -2.7653 N.ar      1 RES1    0.0000
     16 O1         3.4973   10.6190    1.5912 O.3       1 RES1    0.0000
     17 O2         4.0933   12.7714    2.0101 O.2       1 RES1    0.0000
     18 C8        -0.5824   15.0433   -1.4132 C.2       2 RES2    0.0000
     19 C9        -1.4526   14.9648   -2.5009 C.2       2 RES2    0.0000
     20 H6        -1.6330   14.2066   -3.0096 H         2 RES2    0.0000
     21 C10       -2.9613   16.5828   -3.6489 C.ar      2 RES2    0.0000
     22 C11       -3.7020   15.6502   -4.3173 C.ar      2 RES2    0.0000
     23 H7        -3.5735   14.7417   -4.1709 H         2 RES2    0.0000
     24 C12       -4.6446   16.0981   -5.2148 C.ar      2 RES2    0.0000
     25 H8        -5.1674   15.4952   -5.6909 H         2 RES2    0.0000
     26 C13       -4.7989   17.4499   -5.3960 C.ar      2 RES2    0.0000
     27 H9        -5.4418   17.7426   -6.0012 H         2 RES2    0.0000
     28 C14       -3.1713   17.9223   -3.8807 C.ar      2 RES2    0.0000
     29 H10       -2.6590   18.5430   -3.4122 H         2 RES2    0.0000
     30 N4        -1.9772   16.1752   -2.6765 N.pl3     2 RES2    1.0000
     31 N5        -1.5598   17.0795   -1.8269 N.2       2 RES2   -1.0000
     32 N6        -4.0761   18.3664   -4.7484 N.ar      2 RES2    0.0000
     33 O3        -0.6772   16.3953   -1.0217 O.3       2 RES2    0.0000
     34 O4         0.1444   14.2949   -0.7958 O.2       2 RES2    0.0000
@<TRIPOS>BOND
     1    1    2 1
     2    2    3 1
     3    4    5 ar
     4    5    6 1
     5    7    5 ar
     6    8    7 1
     7    9    7 ar
     8   10    9 1
     9   11    4 ar
    10   12   11 1
    11   13    2 2
    12   14   13 1
    13   15    9 ar
    14   16    1 1
    15   17    1 2
    16   18   19 1
    17   19   20 1
    18   21   22 ar
    19   22   23 1
    20   24   22 ar
    21   25   24 1
    22   26   24 ar
    23   27   26 1
    24   28   21 ar
    25   29   28 1
    26   30   19 2
    27   31   30 1
    28   32   26 ar
    29   33   18 1
    30   34   18 2
    31    4   13 1
    32   11   15 ar
    33   14   16 1
    34   21   30 1
    35   28   32 ar
    36   31   33 1
@<TRIPOS>SUBSTRUCTURE
     1 RES1 1
     2 RES2 18

@<TRIPOS>CRYSIN
   9.0692   22.2953    7.4882  90.0000 112.0390  90.0000  14 1

