# MOL2 file generated by ConQuest
# Please check atom types

@<TRIPOS>MOLECULE
PYDSYD11
    34    36     2
SMALL
USER_CHARGES
****
Generated from CSD

@<TRIPOS>ATOM
      1 C1         3.4710   11.9634    1.2932 C.2       1 RES1    0.0000
      2 C2         2.6787   12.0488    0.1442 C.2       1 RES1    0.0000
      3 H1         2.4701   12.8197   -0.3329 H         1 RES1    0.0000
      4 C3         1.4203   10.3727   -1.2166 C.ar      1 RES1    0.0000
      5 C4         0.4634   11.2343   -1.6992 C.ar      1 RES1    0.0000
      6 H2         0.3645   12.0928   -1.3554 H         1 RES1    0.0000
      7 C5        -0.3449   10.7661   -2.7176 C.ar      1 RES1    0.0000
      8 H3        -1.0092   11.3059   -3.0813 H         1 RES1    0.0000
      9 C6        -0.1483    9.4822   -3.1872 C.ar      1 RES1    0.0000
     10 H4        -0.7107    9.1741   -3.8605 H         1 RES1    0.0000
     11 C7         1.5829    9.1061   -1.7505 C.ar      1 RES1    0.0000
     12 H5         2.2540    8.5561   -1.4149 H         1 RES1    0.0000
     13 N1         2.2798   10.8010   -0.1326 N.pl3     1 RES1    1.0000
     14 N2         2.7026    9.8734    0.7029 N.2       1 RES1   -1.0000
     15 N3         0.8027    8.6517   -2.7323 N.ar      1 RES1    0.0000
     16 O1         3.4675   10.5794    1.6050 O.3       1 RES1    0.0000
     17 O2         4.1031   12.7372    1.9930 O.2       1 RES1    0.0000
     18 C8        -0.5944   14.9966   -1.3657 C.2       2 RES2    0.0000
     19 C9        -1.4778   14.9095   -2.4579 C.2       2 RES2    0.0000
     20 H6        -1.6655   14.1512   -2.9630 H         2 RES2    0.0000
     21 C10       -2.9928   16.5349   -3.5891 C.ar      2 RES2    0.0000
     22 C11       -3.7450   15.5917   -4.2466 C.ar      2 RES2    0.0000
     23 H7        -3.6114   14.6825   -4.1004 H         2 RES2    0.0000
     24 C12       -4.7051   16.0378   -5.1332 C.ar      2 RES2    0.0000
     25 H8        -5.2338   15.4339   -5.6020 H         2 RES2    0.0000
     26 C13       -4.8649   17.3956   -5.3115 C.ar      2 RES2    0.0000
     27 H9        -5.5142   17.6857   -5.9110 H         2 RES2    0.0000
     28 C14       -3.2110   17.8807   -3.8153 C.ar      2 RES2    0.0000
     29 H10       -2.6926   18.5015   -3.3567 H         2 RES2    0.0000
     30 N4        -1.9934   16.1330   -2.6267 N.pl3     2 RES2    1.0000
     31 N5        -1.5661   17.0482   -1.7835 N.2       2 RES2   -1.0000
     32 N6        -4.1380   18.3235   -4.6678 N.ar      2 RES2    0.0000
     33 O3        -0.6767   16.3619   -0.9841 O.3       2 RES2    0.0000
     34 O4         0.1312   14.2439   -0.7476 O.2       2 RES2    0.0000
@<TRIPOS>BOND
     1    1    2 1
     2    2    3 1
     3    4    5 ar
     4    5    6 1
     5    7    5 ar
     6    8    7 1
     7    9    7 ar
     8   10    9 1
     9   11    4 ar
    10   12   11 1
    11   13    2 2
    12   14   13 1
    13   15    9 ar
    14   16    1 1
    15   17    1 2
    16   18   19 1
    17   19   20 1
    18   21   22 ar
    19   22   23 1
    20   24   22 ar
    21   25   24 1
    22   26   24 ar
    23   27   26 1
    24   28   21 ar
    25   29   28 1
    26   30   19 2
    27   31   30 1
    28   32   26 ar
    29   33   18 1
    30   34   18 2
    31    4   13 1
    32   11   15 ar
    33   14   16 1
    34   21   30 1
    35   28   32 ar
    36   31   33 1
@<TRIPOS>SUBSTRUCTURE
     1 RES1 1
     2 RES2 18

@<TRIPOS>CRYSIN
   8.9236   22.2294    7.3140  90.0000 110.8490  90.0000  14 1

