# MOL2 file generated by ConQuest
# Please check atom types

@<TRIPOS>MOLECULE
PYRDNO16
    12    12     1
SMALL
USER_CHARGES
****
Generated from CSD

@<TRIPOS>ATOM
      1 O1         4.7591    4.7591    0.0000 O.2       1 RES1   -1.0000
      2 N1         5.6827    5.6827    0.0000 N.pl3     1 RES1    1.0000
      3 C1         6.4994    7.7856    0.7668 C.ar      1 RES1    0.0000
      4 C2         5.5354    6.8055    0.7649 C.ar      1 RES1    0.0000
      5 C3         7.6512    7.6512    0.0000 C.ar      1 RES1    0.0000
      6 H1         4.7232    6.8429    1.2567 H         1 RES1    0.0000
      7 H2         8.3290    8.3290    0.0000 H         1 RES1    0.0000
      8 H3         6.3418    8.5939    1.2951 H         1 RES1    0.0000
      9 C1D        7.7856    6.4994   -0.7668 C.ar      1 RES1    0.0000
     10 C2D        6.8055    5.5354   -0.7649 C.ar      1 RES1    0.0000
     11 H1D        6.8429    4.7232   -1.2567 H         1 RES1    0.0000
     12 H3D        8.5939    6.3418   -1.2951 H         1 RES1    0.0000
@<TRIPOS>BOND
     1    1    2 1
     2    2    4 ar
     3    3    4 ar
     4    4    6 1
     5    5    3 ar
     6    7    5 1
     7    8    3 1
     8    9    5 ar
     9   10    2 ar
    10   11   10 1
    11   12    9 1
    12    9   10 ar
@<TRIPOS>SUBSTRUCTURE
     1 RES1 1

@<TRIPOS>CRYSIN
   5.7600    5.7600   13.6900  90.0000  90.0000  90.0000  92 1

