# MOL2 file generated by ConQuest
# Please check atom types

@<TRIPOS>MOLECULE
PYRDNO10
    14    14     2
SMALL
USER_CHARGES
****
Generated from CSD

@<TRIPOS>ATOM
      1 C1         5.0228   -0.5426    4.1956 C.ar      1 RES1    0.0000
      2 C2         5.0211   -1.9196    4.2176 C.ar      1 RES1    0.0000
      3 C3         4.1150   -2.6373    3.4367 C.ar      1 RES1    0.0000
      4 N1         4.1150    0.0904    3.4367 N.pl3     1 RES1    1.0000
      5 O1         4.1150    1.4600    3.4367 O.2       1 RES1   -1.0000
      6 C4        -0.5572   -0.8961    0.7423 C.ar      2 RES2    0.0000
      7 C5        -1.9258   -0.8895    0.7423 C.ar      2 RES2    0.0000
      8 C6        -2.6287    0.0000    0.0000 C.ar      2 RES2    0.0000
      9 N2         0.1202    0.0000    0.0000 N.pl3     2 RES2    1.0000
     10 O2         1.4460    0.0000    0.0000 O.2       2 RES2   -1.0000
     11 C1D        3.2072   -0.5426    2.6779 C.ar      1 RES1    0.0000
     12 C2D        3.2089   -1.9196    2.6559 C.ar      1 RES1    0.0000
     13 C4B       -0.5572    0.8961   -0.7423 C.ar      2 RES2    0.0000
     14 C5B       -1.9258    0.8895   -0.7423 C.ar      2 RES2    0.0000
@<TRIPOS>BOND
     1    1    2 ar
     2    2    3 ar
     3    3   12 ar
     4    4    1 ar
     5    5    4 1
     6    6    7 ar
     7    7    8 ar
     8    8   14 ar
     9    9    6 ar
    10   10    9 1
    11   11    4 ar
    12   12   11 ar
    13   13    9 ar
    14   14   13 ar
@<TRIPOS>SUBSTRUCTURE
     1 RES1 1
     2 RES2 6

@<TRIPOS>CRYSIN
   8.2300    8.2210   13.7470  90.0000  90.0000  90.0000  20 1

