# MOL2 file generated by ConQuest
# Please check atom types

@<TRIPOS>MOLECULE
PZACOX10
    42    42     2
SMALL
NO_CHARGES
****
Generated from CSD

@<TRIPOS>ATOM
      1 O1        -5.2963   -0.9936    2.5698 O.3       1 RES1    0.0000
      2 N1        -2.5495    0.7368    5.6181 N.2       1 RES1    0.0000
      3 N2        -2.9763   -0.3110    5.0712 N.2       1 RES1    0.0000
      4 N3        -4.4101   -1.1585    3.6233 N.2       1 RES1    0.0000
      5 C1        -1.5947    0.4780    6.6558 C.ar      1 RES1    0.0000
      6 C2        -1.3920    1.4987    7.5656 C.ar      1 RES1    0.0000
      7 C3        -0.8601   -0.6909    6.7224 C.ar      1 RES1    0.0000
      8 C4         0.0829   -0.8433    7.7146 C.ar      1 RES1    0.0000
      9 C5        -0.4642    1.3317    8.5770 C.ar      1 RES1    0.0000
     10 C6         0.2663    0.1670    8.6489 C.ar      1 RES1    0.0000
     11 C7        -3.8755   -0.0522    3.9966 C.2       1 RES1    0.0000
     12 C8        -4.1040    1.2941    3.4147 C.3       1 RES1    0.0000
     13 O1'       -0.0747    3.6110   12.6087 O.3       2 RES2    0.0000
     14 N1'        2.2180    5.2600    9.1695 N.2       2 RES2    0.0000
     15 N2'        1.9076    4.2414    9.8303 N.2       2 RES2    0.0000
     16 N3'        0.7760    3.4169   11.5359 N.2       2 RES2    0.0000
     17 C1'        3.1471    4.9928    8.1002 C.ar      2 RES2    0.0000
     18 C2'        3.6604    3.7425    7.8355 C.ar      2 RES2    0.0000
     19 C3'        3.4957    6.0761    7.3447 C.ar      2 RES2    0.0000
     20 C4'        4.3998    5.9196    6.3000 C.ar      2 RES2    0.0000
     21 C5'        4.5674    3.5860    6.7943 C.ar      2 RES2    0.0000
     22 C6'        4.9211    4.6881    6.0493 C.ar      2 RES2    0.0000
     23 C7'        1.0135    4.5127   10.9048 C.2       2 RES2    0.0000
     24 C8'        0.5023    5.8674   11.2396 C.3       2 RES2    0.0000
     25 H2        -1.9016    2.3420    7.5585 H         1 RES1    0.0000
     26 H5        -0.3321    2.0476    9.3132 H         1 RES1    0.0000
     27 H6         0.9768    0.0772    9.2887 H         1 RES1    0.0000
     28 H4         0.5841   -1.7283    7.7251 H         1 RES1    0.0000
     29 H3        -0.9800   -1.4089    6.0230 H         1 RES1    0.0000
     30 H81       -4.3836    1.2461    2.5312 H         1 RES1    0.0000
     31 H82       -4.5449    1.8389    3.9756 H         1 RES1    0.0000
     32 H83       -3.2983    1.8055    3.3253 H         1 RES1    0.0000
     33 H1        -5.7713   -1.8744    2.4909 H         1 RES1    0.0000
     34 H2'        3.3266    2.8846    8.4034 H         2 RES2    0.0000
     35 H5'        4.9384    2.6634    6.5541 H         2 RES2    0.0000
     36 H6'        5.5018    4.5524    5.3797 H         2 RES2    0.0000
     37 H4'        4.6453    6.7336    5.7934 H         2 RES2    0.0000
     38 H3'        3.1668    6.9570    7.5848 H         2 RES2    0.0000
     39 H81'       0.3624    6.4184   10.4649 H         2 RES2    0.0000
     40 H82'       1.0971    6.2890   11.7112 H         2 RES2    0.0000
     41 H83'      -0.2900    5.7985   11.6603 H         2 RES2    0.0000
     42 H1'       -0.0013    2.8095   13.0469 H         2 RES2    0.0000
@<TRIPOS>BOND
     1    1    4 1
     2    2    3 2
     3    3   11 1
     4    4   11 2
     5    5    2 1
     6    6    5 ar
     7    7    5 ar
     8    8    7 ar
     9    9    6 ar
    10   10    8 ar
    11   11   12 1
    12   12   30 1
    13   13   16 1
    14   14   15 2
    15   15   23 1
    16   16   23 2
    17   17   14 1
    18   18   17 ar
    19   19   17 ar
    20   20   19 ar
    21   21   18 ar
    22   22   20 ar
    23   23   24 1
    24   24   39 1
    25   25    6 1
    26   26    9 1
    27   27   10 1
    28   28    8 1
    29   29    7 1
    30   31   12 1
    31   32   12 1
    32   33    1 1
    33   34   18 1
    34   35   21 1
    35   36   22 1
    36   37   20 1
    37   38   19 1
    38   40   24 1
    39   41   24 1
    40   42   13 1
    41    9   10 ar
    42   21   22 ar
@<TRIPOS>SUBSTRUCTURE
     1 RES1 1
     2 RES2 13

@<TRIPOS>CRYSIN
   9.5390   20.8730   18.0340  90.0000 103.5900  90.0000  15 1

