# MOL2 file generated by ConQuest
# Please check atom types

@<TRIPOS>MOLECULE
QABBIG
    25    25     1
SMALL
NO_CHARGES
****
Generated from CSD

@<TRIPOS>ATOM
      1 O1        -0.0081    0.7086    8.4160 O.2       1 RES1    0.0000
      2 O2        -1.8107   -1.3350    9.7422 O.2       1 RES1    0.0000
      3 O3        -3.8395   -0.5857    8.9819 O.3       1 RES1    0.0000
      4 N1        -0.4776   -0.1932    7.6271 N.pl3     1 RES1    0.0000
      5 C1         1.7479   -1.0039    6.8259 C.ar      1 RES1    0.0000
      6 C2         0.2591   -0.9752    6.8977 C.2       1 RES1    0.0000
      7 H1        -0.2149   -1.5768    6.3686 H         1 RES1    0.0000
      8 C3         2.3110   -1.8538    5.8803 C.ar      1 RES1    0.0000
      9 H2         1.7343   -2.3472    5.3331 H         1 RES1    0.0000
     10 C4        -2.4965   -0.8022    8.9083 C.2       1 RES1    0.0000
     11 C5        -1.9815   -0.2964    7.6044 C.3       1 RES1    0.0000
     12 H3        -2.2687   -0.8912    6.9009 H         1 RES1    0.0000
     13 H4        -2.3769    0.5648    7.4236 H         1 RES1    0.0000
     14 C6         2.6374   -0.2627    7.6222 C.ar      1 RES1    0.0000
     15 H5         2.2889    0.3112    8.2518 H         1 RES1    0.0000
     16 C7         4.0465   -0.3810    7.4758 C.ar      1 RES1    0.0000
     17 H6         4.6325    0.1224    8.0056 H         1 RES1    0.0000
     18 C8         3.7167   -1.9663    5.7533 C.ar      1 RES1    0.0000
     19 H7         4.0758   -2.5360    5.1258 H         1 RES1    0.0000
     20 C9         4.5859   -1.2353    6.5548 C.ar      1 RES1    0.0000
     21 H8         5.5283   -1.3176    6.4755 H         1 RES1    0.0000
     22 C10       -4.5068   -1.1931   10.1005 C.3       1 RES1    0.0000
     23 H9        -5.4655   -0.9864   10.0712 H         1 RES1    0.0000
     24 H10       -4.1080   -0.8616   10.9080 H         1 RES1    0.0000
     25 H11       -4.3881   -2.1336   10.0626 H         1 RES1    0.0000
@<TRIPOS>BOND
     1    1    4 1
     2    2   10 2
     3    3   10 1
     4    4    6 2
     5    5    6 1
     6    6    7 1
     7    8    5 ar
     8    9    8 1
     9   10   11 1
    10   11    4 1
    11   12   11 1
    12   13   11 1
    13   14    5 ar
    14   15   14 1
    15   16   14 ar
    16   17   16 1
    17   18    8 ar
    18   19   18 1
    19   20   16 ar
    20   21   20 1
    21   22    3 1
    22   23   22 1
    23   24   22 1
    24   25   22 1
    25   18   20 ar
@<TRIPOS>SUBSTRUCTURE
     1 RES1 1

@<TRIPOS>CRYSIN
  11.0000    8.0000   11.0000  90.0000 101.0000  90.0000  14 1

