# MOL2 file generated by ConQuest
# Please check atom types

@<TRIPOS>MOLECULE
QABCAZ
    35    36     1
SMALL
NO_CHARGES
****
Generated from CSD

@<TRIPOS>ATOM
      1 O1         6.9676    4.5212    8.7143 O.2       1 RES1    0.0000
      2 O2         5.0533    2.5086    9.8803 O.2       1 RES1    0.0000
      3 O3         3.1694    3.3178    8.9773 O.3       1 RES1    0.0000
      4 N1         6.5477    3.6565    7.8484 N.pl3     1 RES1    0.0000
      5 C1         7.3039    2.9059    7.1010 C.2       1 RES1    0.0000
      6 H1         6.8617    2.3095    6.5083 H         1 RES1    0.0000
      7 C2         8.7458    2.8875    7.0805 C.ar      1 RES1    0.0000
      8 C3         9.5740    3.5543    7.9806 C.ar      1 RES1    0.0000
      9 H2         9.1900    4.0680    8.6799 H         1 RES1    0.0000
     10 C4        10.9462    3.4757    7.8677 C.ar      1 RES1    0.0000
     11 H3        11.4840    3.9283    8.5069 H         1 RES1    0.0000
     12 C5        11.5703    2.7586    6.8520 C.ar      1 RES1    0.0000
     13 C6        10.7329    2.0999    5.9514 C.ar      1 RES1    0.0000
     14 H4        11.1174    1.5981    5.2424 H         1 RES1    0.0000
     15 C7         9.3656    2.1586    6.0656 C.ar      1 RES1    0.0000
     16 H5         8.8286    1.6910    5.4373 H         1 RES1    0.0000
     17 C8        13.0507    2.7210    6.7292 C.ar      1 RES1    0.0000
     18 C9        13.6815    1.8323    5.8687 C.ar      1 RES1    0.0000
     19 H6        13.1562    1.2290    5.3562 H         1 RES1    0.0000
     20 C10       15.0592    1.8069    5.7421 C.ar      1 RES1    0.0000
     21 H7        15.4665    1.1893    5.1471 H         1 RES1    0.0000
     22 C11       15.8393    2.6675    6.4700 C.ar      1 RES1    0.0000
     23 H8        16.7853    2.6429    6.3900 H         1 RES1    0.0000
     24 C12       15.2352    3.5662    7.3188 C.ar      1 RES1    0.0000
     25 H9        15.7668    4.1704    7.8236 H         1 RES1    0.0000
     26 C13       13.8626    3.5940    7.4405 C.ar      1 RES1    0.0000
     27 H10       13.4625    4.2260    8.0262 H         1 RES1    0.0000
     28 C14        5.0859    3.5869    7.7270 C.3       1 RES1    0.0000
     29 H11        4.8458    2.9883    6.9759 H         1 RES1    0.0000
     30 H12        4.7271    4.4880    7.5279 H         1 RES1    0.0000
     31 C15        4.4706    3.0710    8.9973 C.2       1 RES1    0.0000
     32 C16        2.4165    2.7271   10.0622 C.3       1 RES1    0.0000
     33 H13        1.4694    2.9565    9.9656 H         1 RES1    0.0000
     34 H14        2.7499    3.0708   10.9173 H         1 RES1    0.0000
     35 H15        2.5201    1.7522   10.0390 H         1 RES1    0.0000
@<TRIPOS>BOND
     1    1    4 1
     2    2   31 2
     3    3   31 1
     4    4    5 2
     5    5    6 1
     6    7    5 1
     7    8    7 ar
     8    9    8 1
     9   10    8 ar
    10   11   10 1
    11   12   10 ar
    12   13   12 ar
    13   14   13 1
    14   15    7 ar
    15   16   15 1
    16   17   12 1
    17   18   17 ar
    18   19   18 1
    19   20   18 ar
    20   21   20 1
    21   22   20 ar
    22   23   22 1
    23   24   22 ar
    24   25   24 1
    25   26   17 ar
    26   27   26 1
    27   28    4 1
    28   29   28 1
    29   30   28 1
    30   31   28 1
    31   32    3 1
    32   33   32 1
    33   34   32 1
    34   35   32 1
    35   13   15 ar
    36   24   26 ar
@<TRIPOS>SUBSTRUCTURE
     1 RES1 1

@<TRIPOS>CRYSIN
  15.0306    7.9391   11.2751  90.0000 103.7660  90.0000  14 1

