# MOL2 file generated by ConQuest
# Please check atom types

@<TRIPOS>MOLECULE
QABCUS
    76    79     1
SMALL
NO_CHARGES
****
Generated from CSD

@<TRIPOS>ATOM
      1 C1         8.6451   13.4921   14.6344 C.ar      1 RES1    0.0000
      2 C2         9.2827   12.9027   13.5439 C.ar      1 RES1    0.0000
      3 C3         8.9450   13.3343   12.2652 C.ar      1 RES1    0.0000
      4 C4         7.9957   14.3305   12.0699 C.ar      1 RES1    0.0000
      5 C5         7.4101   14.9260   13.1605 C.ar      1 RES1    0.0000
      6 C6         7.7413   14.5486   14.4752 C.ar      1 RES1    0.0000
      7 C7         7.1633   15.3669   15.6200 C.3       1 RES1    0.0000
      8 C8         7.1655   14.6956   16.9999 C.2       1 RES1    0.0000
      9 C9         6.2595   13.5199   17.2368 C.3       1 RES1    0.0000
     10 C10        6.6752   12.1184   16.8914 C.3       1 RES1    0.0000
     11 C11        8.0087   11.7642   16.3000 C.3       1 RES1    0.0000
     12 C12        9.5186   12.6645   11.0590 C.2       1 RES1    0.0000
     13 C13        7.8864   16.7050   15.6725 C.3       1 RES1    0.0000
     14 C14       11.2678   11.3898   10.1167 C.3       1 RES1    0.0000
     15 C15        5.7475   15.9903   11.8113 C.3       1 RES1    0.0000
     16 C16        4.0709   14.4465   12.3484 C.3       1 RES1    0.0000
     17 C17        4.3231   12.5191   16.1770 C.2       1 RES1    0.0000
     18 C18        2.7179   10.9691   15.4572 C.3       1 RES1    0.0000
     19 C19        9.7881   13.3234   16.8118 C.2       1 RES1    0.0000
     20 C20       11.6044   14.7930   17.1410 C.3       1 RES1    0.0000
     21 C21       12.4433   15.7150   16.2964 C.ar      1 RES1    0.0000
     22 C22       12.0341   16.0568   15.0069 C.ar      1 RES1    0.0000
     23 C23       12.7528   16.9123   14.1913 C.ar      1 RES1    0.0000
     24 C24       13.9695   17.4599   14.6543 C.ar      1 RES1    0.0000
     25 C25       14.4143   17.1180   15.9076 C.ar      1 RES1    0.0000
     26 C26       13.6621   16.2471   16.7033 C.ar      1 RES1    0.0000
     27 C27       11.2678   16.6060   12.3683 C.3       1 RES1    0.0000
     28 C28       15.6612   19.1073   14.3432 C.3       1 RES1    0.0000
     29 N1         8.8216   12.9213   15.9401 N.am      1 RES1    0.0000
     30 N2         5.6880   12.8687   16.0758 N.am      1 RES1    0.0000
     31 N3        14.2509   15.8882   18.0018 N.pl3     1 RES1    0.0000
     32 O1         8.9655   12.6722    9.9920 O.2       1 RES1    0.0000
     33 O2        10.6660   12.0473   11.2887 O.3       1 RES1    0.0000
     34 O3         6.4608   15.9253   13.0465 O.3       1 RES1    0.0000
     35 O4         5.1436   14.7930   11.4822 O.3       1 RES1    0.0000
     36 O5         7.1417   17.7120   16.3344 O.3       1 RES1    0.0000
     37 O6         7.7630   15.1890   17.9313 O.2       1 RES1    0.0000
     38 O7         3.4929   13.1471   16.7648 O.2       1 RES1    0.0000
     39 O8         4.0915   11.4270   15.4392 O.3       1 RES1    0.0000
     40 O9         9.9700   12.8486   17.9060 O.2       1 RES1    0.0000
     41 O10       10.5339   14.3166   16.2783 O.3       1 RES1    0.0000
     42 O11       12.4054   17.2448   12.9272 O.3       1 RES1    0.0000
     43 O12       14.5864   18.3230   13.8097 O.3       1 RES1    0.0000
     44 O13       15.4329   16.1589   18.2026 O.2       1 RES1    0.0000
     45 O14       13.5462   15.3190   18.8211 O.2       1 RES1    0.0000
     46 H1         9.9321   12.2221   13.6705 H         1 RES1    0.0000
     47 H2         7.7543   14.5965   11.1910 H         1 RES1    0.0000
     48 H3         6.2086   15.5587   15.3885 H         1 RES1    0.0000
     49 H4         5.6490   13.6019   18.0253 H         1 RES1    0.0000
     50 H5         6.2790   11.4099   17.4773 H         1 RES1    0.0000
     51 H6         8.5098   11.2104   16.9493 H         1 RES1    0.0000
     52 H7         7.8615   11.2135   15.4898 H         1 RES1    0.0000
     53 H8         8.7512   16.5843   16.1391 H         1 RES1    0.0000
     54 H9         8.0801   17.0020   14.7483 H         1 RES1    0.0000
     55 H10       12.1164   10.9737   10.3754 H         1 RES1    0.0000
     56 H11       11.4312   12.0550    9.4151 H         1 RES1    0.0000
     57 H12       10.6573   10.7030    9.7768 H         1 RES1    0.0000
     58 H13        5.0548   16.6957   11.8746 H         1 RES1    0.0000
     59 H14        6.3743   16.2471   11.0897 H         1 RES1    0.0000
     60 H15        3.6845   13.5911   12.0645 H         1 RES1    0.0000
     61 H16        3.3825   15.1426   12.3123 H         1 RES1    0.0000
     62 H17        4.4054   14.3645   13.2672 H         1 RES1    0.0000
     63 H18        2.6313   10.1740   14.8912 H         1 RES1    0.0000
     64 H19        2.1334   11.6775   15.1154 H         1 RES1    0.0000
     65 H20        2.4592   10.7479   16.3760 H         1 RES1    0.0000
     66 H21       12.1489   14.0350   17.4701 H         1 RES1    0.0000
     67 H22       11.2331   15.2787   17.9186 H         1 RES1    0.0000
     68 H23       11.2245   15.6871   14.6760 H         1 RES1    0.0000
     69 H24       15.2315   17.4738   16.2367 H         1 RES1    0.0000
     70 H25       11.1292   16.9293   11.4532 H         1 RES1    0.0000
     71 H26       10.4787   16.8133   12.9109 H         1 RES1    0.0000
     72 H27       11.4107   15.6376   12.3557 H         1 RES1    0.0000
     73 H28       16.0260   19.6843   13.6415 H         1 RES1    0.0000
     74 H29       16.3648   18.5118   14.6760 H         1 RES1    0.0000
     75 H30       15.3268   19.6611   15.0811 H         1 RES1    0.0000
     76 H31        6.9847   17.4707   17.1229 H         1 RES1    0.0000
@<TRIPOS>BOND
     1    1    2 ar
     2    2    3 ar
     3    3    4 ar
     4    4    5 ar
     5    5    6 ar
     6    6    1 ar
     7    7    6 1
     8    8    7 1
     9    9    8 1
    10   10    9 1
    11   11   10 1
    12   12    3 1
    13   13    7 1
    14   14   33 1
    15   15   34 1
    16   16   35 1
    17   17   30 1
    18   18   39 1
    19   19   29 1
    20   20   21 1
    21   21   22 ar
    22   22   23 ar
    23   23   24 ar
    24   24   25 ar
    25   25   26 ar
    26   26   21 ar
    27   27   42 1
    28   28   43 1
    29   29    1 1
    30   30    9 1
    31   31   26 1
    32   32   12 2
    33   33   12 1
    34   34    5 1
    35   35   15 1
    36   36   13 1
    37   37    8 2
    38   38   17 2
    39   39   17 1
    40   40   19 2
    41   41   19 1
    42   42   23 1
    43   43   24 1
    44   44   31 2
    45   45   31 2
    46   46    2 1
    47   47    4 1
    48   48    7 1
    49   49    9 1
    50   50   10 1
    51   51   11 1
    52   52   11 1
    53   53   13 1
    54   54   13 1
    55   55   14 1
    56   56   14 1
    57   57   14 1
    58   58   15 1
    59   59   15 1
    60   60   16 1
    61   61   16 1
    62   62   16 1
    63   63   18 1
    64   64   18 1
    65   65   18 1
    66   66   20 1
    67   67   20 1
    68   68   22 1
    69   69   25 1
    70   70   27 1
    71   71   27 1
    72   72   27 1
    73   73   28 1
    74   74   28 1
    75   75   28 1
    76   76   36 1
    77   10   30 1
    78   11   29 1
    79   20   41 1
@<TRIPOS>SUBSTRUCTURE
     1 RES1 1

@<TRIPOS>CRYSIN
  10.8240   15.4690   18.0850  90.0000  90.0000  90.0000  19 1

