# MOL2 file generated by ConQuest
# Please check atom types

@<TRIPOS>MOLECULE
QABCON
    35    36     1
SMALL
NO_CHARGES
****
Generated from CSD

@<TRIPOS>ATOM
      1 O1        -1.1040   -2.3881    4.1655 O.2       1 RES1    0.0000
      2 O2        -1.0270    0.6405    3.3337 O.2       1 RES1    0.0000
      3 O3         0.4615    1.3437    4.9857 O.3       1 RES1    0.0000
      4 N1         0.0540   -2.0383    3.5256 N.pl3     1 RES1    0.0000
      5 C1        -0.1045   -3.7702    1.7149 C.ar      1 RES1    0.0000
      6 C2         0.4200   -4.0730    0.4250 C.ar      1 RES1    0.0000
      7 H1         1.1555   -3.5030    0.0496 H         1 RES1    0.0000
      8 C3        -0.0975   -5.1730   -0.3193 C.ar      1 RES1    0.0000
      9 H2         0.2710   -5.3560   -1.1997 H         1 RES1    0.0000
     10 C4        -1.1530   -6.0080    0.2235 C.ar      1 RES1    0.0000
     11 H3        -1.5265   -6.7660   -0.2852 H         1 RES1    0.0000
     12 C5        -1.6670   -5.7415    1.5050 C.ar      1 RES1    0.0000
     13 H4        -2.3815   -6.3350    1.8817 H         1 RES1    0.0000
     14 C6        -1.1690   -4.6348    2.2528 C.ar      1 RES1    0.0000
     15 H5        -1.5480   -4.4590    3.1310 H         1 RES1    0.0000
     16 C7         0.5265   -2.6149    2.4301 C.2       1 RES1    0.0000
     17 H6         1.3840   -2.2360    2.0553 H         1 RES1    0.0000
     18 C8         0.8330   -0.8860    4.1636 C.3       1 RES1    0.0000
     19 H7         1.7700   -0.7510    3.7014 H         1 RES1    0.0000
     20 H8         1.0300   -1.1140    5.1243 H         1 RES1    0.0000
     21 C9        -0.0345    0.4380    4.0846 C.2       1 RES1    0.0000
     22 C10       -0.3000    2.6780    5.0487 C.3       1 RES1    0.0000
     23 H9        -1.2900    2.5450    5.4033 H         1 RES1    0.0000
     24 H10       -0.3650    3.0980    4.1323 H         1 RES1    0.0000
     25 C11        0.5465    3.5966    5.9737 C.ar      1 RES1    0.0000
     26 C12        1.3110    4.7093    5.4625 C.ar      1 RES1    0.0000
     27 H11        1.2675    4.9100    4.5198 H         1 RES1    0.0000
     28 C13        2.1360    5.5336    6.3001 C.ar      1 RES1    0.0000
     29 H12        2.6495    6.3040    5.9396 H         1 RES1    0.0000
     30 C14        2.2120    5.2352    7.6601 C.ar      1 RES1    0.0000
     31 H13        2.7975    5.7890    8.2367 H         1 RES1    0.0000
     32 C15        1.4420    4.1330    8.1939 C.ar      1 RES1    0.0000
     33 H14        1.4840    3.9360    9.1388 H         1 RES1    0.0000
     34 C16        0.6120    3.3212    7.3445 C.ar      1 RES1    0.0000
     35 H15        0.0790    2.5640    7.7097 H         1 RES1    0.0000
@<TRIPOS>BOND
     1    1    4 1
     2    2   21 2
     3    3   21 1
     4    4   16 2
     5    5    6 ar
     6    6    7 1
     7    8    6 ar
     8    9    8 1
     9   10    8 ar
    10   11   10 1
    11   12   10 ar
    12   13   12 1
    13   14    5 ar
    14   15   14 1
    15   16    5 1
    16   17   16 1
    17   18    4 1
    18   19   18 1
    19   20   18 1
    20   21   18 1
    21   22    3 1
    22   23   22 1
    23   24   22 1
    24   25   22 1
    25   26   25 ar
    26   27   26 1
    27   28   26 ar
    28   29   28 1
    29   30   28 ar
    30   31   30 1
    31   32   30 ar
    32   33   32 1
    33   34   25 ar
    34   35   34 1
    35   12   14 ar
    36   32   34 ar
@<TRIPOS>SUBSTRUCTURE
     1 RES1 1

@<TRIPOS>CRYSIN
   5.0000   10.0000   31.0000  90.0000  90.0000  90.0000  19 1

