# MOL2 file generated by ConQuest
# Please check atom types

@<TRIPOS>MOLECULE
QABCIH
    31    32     1
SMALL
NO_CHARGES
****
Generated from CSD

@<TRIPOS>ATOM
      1 N1         1.2083    9.4345    0.2837 N.pl3     1 RES1    0.0000
      2 O1         0.0352    9.8816    0.5883 O.2       1 RES1    0.0000
      3 O2         0.5189    6.9385    1.4104 O.2       1 RES1    0.0000
      4 O3         1.5141    7.6031    3.3015 O.3       1 RES1    0.0000
      5 C1         1.2414   10.1698   -2.0468 C.ar      1 RES1    0.0000
      6 C2         0.3409   11.1966   -1.9575 C.ar      1 RES1    0.0000
      7 H1        -0.0218   11.4160   -1.1304 H         1 RES1    0.0000
      8 C3        -0.0410   11.9200   -3.0912 C.ar      1 RES1    0.0000
      9 H2        -0.6355   12.6294   -3.0006 H         1 RES1    0.0000
     10 C4         0.4394   11.6073   -4.3210 C.ar      1 RES1    0.0000
     11 H3         0.1709   12.0985   -5.0626 H         1 RES1    0.0000
     12 C5         1.3452   10.5374   -4.4772 C.ar      1 RES1    0.0000
     13 C6         1.8500   10.1850   -5.7463 C.ar      1 RES1    0.0000
     14 H4         1.6050   10.6832   -6.4920 H         1 RES1    0.0000
     15 C7         2.6912    9.1209   -5.8952 C.ar      1 RES1    0.0000
     16 H5         3.0112    8.8945   -6.7386 H         1 RES1    0.0000
     17 C8         3.0705    8.3800   -4.7870 C.ar      1 RES1    0.0000
     18 H6         3.6345    7.6484   -4.8958 H         1 RES1    0.0000
     19 C9         2.6276    8.7055   -3.5394 C.ar      1 RES1    0.0000
     20 H7         2.9109    8.2038   -2.8100 H         1 RES1    0.0000
     21 C10        1.7462    9.7953   -3.3317 C.ar      1 RES1    0.0000
     22 C11        1.7741    9.5001   -0.8791 C.2       1 RES1    0.0000
     23 H8         2.5980    9.0789   -0.9720 H         1 RES1    0.0000
     24 C12        1.9493    8.8712    1.4263 C.3       1 RES1    0.0000
     25 H9         2.0662    9.5549    2.1049 H         1 RES1    0.0000
     26 H10        2.8334    8.5900    1.1328 H         1 RES1    0.0000
     27 C13        1.2188    7.6962    2.0165 C.2       1 RES1    0.0000
     28 C14        0.9511    6.4874    4.0188 C.3       1 RES1    0.0000
     29 H11        1.2353    6.5201    4.9351 H         1 RES1    0.0000
     30 H12        1.2502    5.6671    3.6201 H         1 RES1    0.0000
     31 H13       -0.0070    6.5329    3.9786 H         1 RES1    0.0000
@<TRIPOS>BOND
     1    1    2 1
     2    3   27 2
     3    4   27 1
     4    5    6 ar
     5    6    7 1
     6    8    6 ar
     7    9    8 1
     8   10    8 ar
     9   11   10 1
    10   12   10 ar
    11   13   12 ar
    12   14   13 1
    13   15   13 ar
    14   16   15 1
    15   17   15 ar
    16   18   17 1
    17   19   17 ar
    18   20   19 1
    19   21    5 ar
    20   22    1 2
    21   23   22 1
    22   24    1 1
    23   25   24 1
    24   26   24 1
    25   27   24 1
    26   28    4 1
    27   29   28 1
    28   30   28 1
    29   31   28 1
    30    5   22 1
    31   12   21 ar
    32   19   21 ar
@<TRIPOS>SUBSTRUCTURE
     1 RES1 1

@<TRIPOS>CRYSIN
   8.7180   11.6680   11.9120  90.0000  90.0000  90.0000  19 1

