# MOL2 file generated by ConQuest
# Please check atom types

@<TRIPOS>MOLECULE
QABDAA
    36    37     1
SMALL
NO_CHARGES
****
Generated from CSD

@<TRIPOS>ATOM
      1 O1         4.7426    2.8111    6.3119 O.2       1 RES1    0.0000
      2 O2         2.9756    2.5619    9.2686 O.3       1 RES1    0.0000
      3 N1         5.1569    2.3413    7.4373 N.pl3     1 RES1    0.0000
      4 C1         6.1798    2.7763    8.0938 C.2       1 RES1    0.0000
      5 H1         6.3669    2.3520    8.9002 H         1 RES1    0.0000
      6 C2         7.0585    3.8426    7.7131 C.ar      1 RES1    0.0000
      7 C3         7.0419    4.5610    6.5323 C.ar      1 RES1    0.0000
      8 H2         6.4057    4.3624    5.8832 H         1 RES1    0.0000
      9 C4         7.9597    5.5731    6.3037 C.ar      1 RES1    0.0000
     10 H3         7.9457    6.0353    5.4962 H         1 RES1    0.0000
     11 C5         8.8803    5.8958    7.2464 C.ar      1 RES1    0.0000
     12 H4         9.4831    6.5867    7.0912 H         1 RES1    0.0000
     13 C6         8.9196    5.2050    8.4231 C.ar      1 RES1    0.0000
     14 H5         9.5504    5.4296    9.0680 H         1 RES1    0.0000
     15 C7         8.0319    4.1765    8.6653 C.ar      1 RES1    0.0000
     16 H6         8.0803    3.7027    9.4644 H         1 RES1    0.0000
     17 C8         4.3836    1.1995    7.9638 C.3       1 RES1    0.0000
     18 H7         4.8011    0.8778    8.7786 H         1 RES1    0.0000
     19 H8         4.3947    0.4774    7.3167 H         1 RES1    0.0000
     20 C9         2.9692    1.5845    8.2500 C.3       1 RES1    0.0000
     21 H9         2.5519    1.9409    7.4499 H         1 RES1    0.0000
     22 H10        2.4639    0.8078    8.5374 H         1 RES1    0.0000
     23 C10        1.7030    3.0506    9.5609 C.3       1 RES1    0.0000
     24 H11        1.3044    3.3743    8.7387 H         1 RES1    0.0000
     25 H12        1.7962    3.8089   10.1576 H         1 RES1    0.0000
     26 C11        0.7565    2.0604   10.1922 C.ar      1 RES1    0.0000
     27 C12       -0.5337    1.9318    9.7685 C.ar      1 RES1    0.0000
     28 H13       -0.8308    2.4541    9.0596 H         1 RES1    0.0000
     29 C13       -1.4090    1.0453   10.3663 C.ar      1 RES1    0.0000
     30 H14       -2.2905    0.9672   10.0821 H         1 RES1    0.0000
     31 C14       -0.9188    0.2860   11.3951 C.ar      1 RES1    0.0000
     32 H15       -1.4830   -0.3248   11.8124 H         1 RES1    0.0000
     33 C15        0.3520    0.3963   11.8198 C.ar      1 RES1    0.0000
     34 H16        0.6574   -0.1348   12.5203 H         1 RES1    0.0000
     35 C16        1.1906    1.2894   11.2231 C.ar      1 RES1    0.0000
     36 H17        2.0680    1.3711   11.5230 H         1 RES1    0.0000
@<TRIPOS>BOND
     1    1    3 1
     2    2   20 1
     3    3    4 2
     4    4    5 1
     5    6    4 1
     6    7    6 ar
     7    8    7 1
     8    9    7 ar
     9   10    9 1
    10   11    9 ar
    11   12   11 1
    12   13   11 ar
    13   14   13 1
    14   15    6 ar
    15   16   15 1
    16   17    3 1
    17   18   17 1
    18   19   17 1
    19   20   17 1
    20   21   20 1
    21   22   20 1
    22   23    2 1
    23   24   23 1
    24   25   23 1
    25   26   23 1
    26   27   26 ar
    27   28   27 1
    28   29   27 ar
    29   30   29 1
    30   31   29 ar
    31   32   31 1
    32   33   31 ar
    33   34   33 1
    34   35   26 ar
    35   36   35 1
    36   13   15 ar
    37   33   35 ar
@<TRIPOS>SUBSTRUCTURE
     1 RES1 1

@<TRIPOS>CRYSIN
  25.8818    5.1064   10.4869  90.0000  90.0000  90.0000  19 1

