# MOL2 file generated by ConQuest
# Please check atom types

@<TRIPOS>MOLECULE
QABDII
    45    46     1
SMALL
NO_CHARGES
****
Generated from CSD

@<TRIPOS>ATOM
      1 N1         3.6981    5.9152    4.2792 N.pl3     1 RES1    0.0000
      2 O1         2.4480    6.0406    4.6054 O.2       1 RES1    0.0000
      3 O2         4.0520    3.1324    3.3114 O.3       1 RES1    0.0000
      4 C1         4.3397    6.7148    3.4703 C.2       1 RES1    0.0000
      5 H1         5.2211    6.4890    3.2793 H         1 RES1    0.0000
      6 C2         3.8310    7.9179    2.8348 C.ar      1 RES1    0.0000
      7 C3         2.6561    8.5851    3.1961 C.ar      1 RES1    0.0000
      8 H2         2.0985    8.2246    3.8483 H         1 RES1    0.0000
      9 C4         2.3247    9.7785    2.5866 C.ar      1 RES1    0.0000
     10 H3         1.5486   10.2233    2.8427 H         1 RES1    0.0000
     11 C5         3.1269   10.3243    1.6009 C.ar      1 RES1    0.0000
     12 H4         2.8921   11.1276    1.1945 H         1 RES1    0.0000
     13 C6         4.2812    9.6639    1.2256 C.ar      1 RES1    0.0000
     14 H5         4.8241   10.0220    0.5617 H         1 RES1    0.0000
     15 C7         4.6310    8.4790    1.8319 C.ar      1 RES1    0.0000
     16 H6         5.4104    8.0443    1.5722 H         1 RES1    0.0000
     17 C8         4.4390    4.8090    4.9498 C.3       1 RES1    0.0000
     18 H7         5.3421    4.7683    4.5718 H         1 RES1    0.0000
     19 C9         4.5583    5.0910    6.4665 C.3       1 RES1    0.0000
     20 H8         3.7095    4.8621    6.8994 H         1 RES1    0.0000
     21 C10        5.6610    4.2168    7.0498 C.3       1 RES1    0.0000
     22 H9         5.4582    3.2933    6.8847 H         1 RES1    0.0000
     23 H10        5.7218    4.3668    7.9958 H         1 RES1    0.0000
     24 H11        6.4985    4.4397    6.6370 H         1 RES1    0.0000
     25 C11        4.8691    6.5570    6.7349 C.3       1 RES1    0.0000
     26 H12        4.1694    7.1042    6.3721 H         1 RES1    0.0000
     27 H13        5.7039    6.7880    6.3206 H         1 RES1    0.0000
     28 H14        4.9304    6.7027    7.6819 H         1 RES1    0.0000
     29 C12        3.7388    3.5055    4.6479 C.3       1 RES1    0.0000
     30 H15        4.0365    2.8177    5.2635 H         1 RES1    0.0000
     31 H16        2.7798    3.6120    4.7484 H         1 RES1    0.0000
     32 C13        3.2913    2.0072    2.8871 C.3       1 RES1    0.0000
     33 H17        2.3470    2.2285    2.8942 H         1 RES1    0.0000
     34 H18        3.4345    1.2662    3.4976 H         1 RES1    0.0000
     35 C14        3.7078    1.6103    1.4986 C.ar      1 RES1    0.0000
     36 C15        2.9062    1.9055    0.4113 C.ar      1 RES1    0.0000
     37 H19        2.1137    2.3742    0.5420 H         1 RES1    0.0000
     38 C16        3.2620    1.5156   -0.8712 C.ar      1 RES1    0.0000
     39 H20        2.7104    1.7208   -1.5918 H         1 RES1    0.0000
     40 C17        4.4357    0.8218   -1.0743 C.ar      1 RES1    0.0000
     41 H21        4.6744    0.5497   -1.9303 H         1 RES1    0.0000
     42 C18        5.2542    0.5324   -0.0032 C.ar      1 RES1    0.0000
     43 H22        6.0521    0.0754   -0.1398 H         1 RES1    0.0000
     44 C19        4.8919    0.9204    1.2715 C.ar      1 RES1    0.0000
     45 H23        5.4484    0.7165    1.9891 H         1 RES1    0.0000
@<TRIPOS>BOND
     1    1    2 1
     2    3   29 1
     3    4    1 2
     4    5    4 1
     5    6    4 1
     6    7    6 ar
     7    8    7 1
     8    9    7 ar
     9   10    9 1
    10   11    9 ar
    11   12   11 1
    12   13   11 ar
    13   14   13 1
    14   15    6 ar
    15   16   15 1
    16   17    1 1
    17   18   17 1
    18   19   17 1
    19   20   19 1
    20   21   19 1
    21   22   21 1
    22   23   21 1
    23   24   21 1
    24   25   19 1
    25   26   25 1
    26   27   25 1
    27   28   25 1
    28   29   17 1
    29   30   29 1
    30   31   29 1
    31   32    3 1
    32   33   32 1
    33   34   32 1
    34   35   32 1
    35   36   35 ar
    36   37   36 1
    37   38   36 ar
    38   39   38 1
    39   40   38 ar
    40   41   40 1
    41   42   40 ar
    42   43   42 1
    43   44   35 ar
    44   45   44 1
    45   13   15 ar
    46   42   44 ar
@<TRIPOS>SUBSTRUCTURE
     1 RES1 1

@<TRIPOS>CRYSIN
   5.4240   12.3530   24.5270  90.0000  90.0000  90.0000  19 1

