# MOL2 file generated by ConQuest
# Please check atom types

@<TRIPOS>MOLECULE
QABDOO
    49    50     1
SMALL
NO_CHARGES
****
Generated from CSD

@<TRIPOS>ATOM
      1 O1         1.5632    9.8207    9.0954 O.3       1 RES1    0.0000
      2 O2         1.9144    1.4840    8.9977 O.3       1 RES1    0.0000
      3 O3         0.1537    7.3565    7.0243 O.2       1 RES1    0.0000
      4 N1         1.4079    7.6840    7.1710 N.pl3     1 RES1    0.0000
      5 C1         3.3591    9.4237   12.7516 C.ar      1 RES1    0.0000
      6 H1         4.0842    8.8468   12.8253 H         1 RES1    0.0000
      7 C2         1.1087    4.6680    7.5240 C.ar      1 RES1    0.0000
      8 H2         0.4096    5.0322    7.0317 H         1 RES1    0.0000
      9 C3         2.0816    2.7883    8.6592 C.ar      1 RES1    0.0000
     10 C4         1.6801   10.4545   11.3908 C.ar      1 RES1    0.0000
     11 C5         2.3457    6.8759    7.5620 C.2       1 RES1    0.0000
     12 H3         3.2011    7.2319    7.6384 H         1 RES1    0.0000
     13 C6         1.7288    9.1006    6.8531 C.3       1 RES1    0.0000
     14 H4         2.6882    9.2345    7.0031 H         1 RES1    0.0000
     15 C7         0.9794    9.9776    7.8204 C.3       1 RES1    0.0000
     16 H5         1.0340   10.9055    7.5403 H         1 RES1    0.0000
     17 H6         0.0444    9.7199    7.8488 H         1 RES1    0.0000
     18 C8         1.0714    3.3439    7.8870 C.ar      1 RES1    0.0000
     19 H7         0.3593    2.8133    7.6118 H         1 RES1    0.0000
     20 C9         2.1909    5.4707    7.8917 C.ar      1 RES1    0.0000
     21 C10        2.2212    8.4351    4.4891 C.3       1 RES1    0.0000
     22 H8         2.0210    8.6225    3.5689 H         1 RES1    0.0000
     23 H9         1.9799    7.5283    4.6905 H         1 RES1    0.0000
     24 H10        3.1606    8.5584    4.6435 H         1 RES1    0.0000
     25 C11        3.1557    3.5642    9.0370 C.ar      1 RES1    0.0000
     26 H11        3.8413    3.2010    9.5506 H         1 RES1    0.0000
     27 C12        0.9935   10.6613   10.0754 C.3       1 RES1    0.0000
     28 H12        0.0482   10.4633   10.1655 H         1 RES1    0.0000
     29 H13        1.0833   11.5880    9.8018 H         1 RES1    0.0000
     30 C13        2.7461    9.6064   11.5293 C.ar      1 RES1    0.0000
     31 H14        3.0626    9.1448   10.7865 H         1 RES1    0.0000
     32 C14        2.9571    0.8568    9.7534 C.3       1 RES1    0.0000
     33 H15        2.7179   -0.0561    9.9326 H         1 RES1    0.0000
     34 H16        3.0767    1.3249   10.5822 H         1 RES1    0.0000
     35 H17        3.7747    0.8812    9.2523 H         1 RES1    0.0000
     36 C15        1.4366    9.3752    5.3777 C.3       1 RES1    0.0000
     37 H18        0.4805    9.2329    5.2176 H         1 RES1    0.0000
     38 C16        3.2017    4.8853    8.6437 C.ar      1 RES1    0.0000
     39 H19        3.9343    5.4023    8.8907 H         1 RES1    0.0000
     40 C17        2.9014   10.0931   13.8609 C.ar      1 RES1    0.0000
     41 H20        3.3142    9.9747   14.6864 H         1 RES1    0.0000
     42 C18        1.2240   11.1245   12.5162 C.ar      1 RES1    0.0000
     43 H21        0.5016   11.7065   12.4453 H         1 RES1    0.0000
     44 C19        1.8316   10.9342   13.7354 C.ar      1 RES1    0.0000
     45 H22        1.5108   11.3829   14.4842 H         1 RES1    0.0000
     46 C20        1.7797   10.8046    5.0121 C.3       1 RES1    0.0000
     47 H23        1.5816   10.9536    4.0838 H         1 RES1    0.0000
     48 H24        2.7142   10.9600    5.1685 H         1 RES1    0.0000
     49 H25        1.2608   11.4053    5.5506 H         1 RES1    0.0000
@<TRIPOS>BOND
     1    1   15 1
     2    2    9 1
     3    3    4 1
     4    4   11 2
     5    5    6 1
     6    7    8 1
     7    9   18 ar
     8   10   27 1
     9   11   12 1
    10   13    4 1
    11   14   13 1
    12   15   13 1
    13   16   15 1
    14   17   15 1
    15   18    7 ar
    16   19   18 1
    17   20    7 ar
    18   21   22 1
    19   23   21 1
    20   24   21 1
    21   25    9 ar
    22   26   25 1
    23   27    1 1
    24   28   27 1
    25   29   27 1
    26   30    5 ar
    27   31   30 1
    28   32    2 1
    29   33   32 1
    30   34   32 1
    31   35   32 1
    32   36   13 1
    33   37   36 1
    34   38   20 ar
    35   39   38 1
    36   40    5 ar
    37   41   40 1
    38   42   10 ar
    39   43   42 1
    40   44   40 ar
    41   45   44 1
    42   46   36 1
    43   47   46 1
    44   48   46 1
    45   49   46 1
    46   10   30 ar
    47   11   20 1
    48   21   36 1
    49   25   38 ar
    50   42   44 ar
@<TRIPOS>SUBSTRUCTURE
     1 RES1 1

@<TRIPOS>CRYSIN
   5.4110   16.0210   20.4290  90.0000  90.0000  90.0000  19 1

