# MOL2 file generated by ConQuest
# Please check atom types

@<TRIPOS>MOLECULE
QABMUB
    44    46     1
SMALL
NO_CHARGES
****
Generated from CSD

@<TRIPOS>ATOM
      1 C1         2.9746    2.1200    1.3655 C.ar      1 RES1    0.0000
      2 C2         2.3971    1.2033    0.5126 C.ar      1 RES1    0.0000
      3 C3         1.6880    1.6393   -0.5987 C.ar      1 RES1    0.0000
      4 C4         1.5477    2.9765   -0.8557 C.ar      1 RES1    0.0000
      5 C5         2.1273    3.8932   -0.0153 C.ar      1 RES1    0.0000
      6 C6         2.8517    3.4828    1.0891 C.ar      1 RES1    0.0000
      7 C7         3.7848    1.6884    2.5129 C.2       1 RES1    0.0000
      8 O1         4.5940    0.6290    2.2573 O.3       1 RES1    0.0000
      9 N1         5.4086    0.4271    3.4005 N.2       1 RES1    0.0000
     10 C8         5.0486    1.3338    4.2659 C.2       1 RES1    0.0000
     11 C9         5.8121    1.4330    5.5564 C.3       1 RES1    0.0000
     12 C10        3.9850    2.1401    3.7645 C.2       1 RES1    0.0000
     13 C11        3.1682    3.2084    4.4715 C.3       1 RES1    0.0000
     14 O2         3.9774    4.1497    5.1619 O.3       1 RES1    0.0000
     15 C12        2.1959    2.6386    5.5217 C.3       1 RES1    0.0000
     16 O3         2.8800    2.0720    6.6316 O.3       1 RES1    0.0000
     17 C13        1.3040    1.5524    4.9577 C.3       1 RES1    0.0000
     18 C14        0.2099    1.0862    5.9106 C.3       1 RES1    0.0000
     19 O4        -0.9136    1.8590    5.5328 O.3       1 RES1    0.0000
     20 C15       -0.8113    2.0665    4.1201 C.3       1 RES1    0.0000
     21 C16       -1.3900    3.3924    3.7895 C.3       1 RES1    0.0000
     22 C17       -1.4411    0.9200    3.3575 C.3       1 RES1    0.0000
     23 O5         0.5873    2.0798    3.8548 O.3       1 RES1    0.0000
     24 H1         2.4830    0.2632    0.6904 H         1 RES1    0.0000
     25 H2         1.2888    0.9959   -1.1891 H         1 RES1    0.0000
     26 H3         1.0506    3.2731   -1.6225 H         1 RES1    0.0000
     27 H4         2.0295    4.8310   -0.1931 H         1 RES1    0.0000
     28 H5         3.2672    4.1307    1.6628 H         1 RES1    0.0000
     29 H6         5.4413    2.1356    6.0954 H         1 RES1    0.0000
     30 H7         6.7333    1.6271    5.3675 H         1 RES1    0.0000
     31 H8         5.7523    0.6000    6.0315 H         1 RES1    0.0000
     32 H9         2.6777    3.6233    3.7589 H         1 RES1    0.0000
     33 H10        4.3352    4.5801    4.6452 H         1 RES1    0.0000
     34 H11        1.6640    3.3880    5.7981 H         1 RES1    0.0000
     35 H12        3.2867    2.6062    6.9913 H         1 RES1    0.0000
     36 H13        1.8957    0.8264    4.7493 H         1 RES1    0.0000
     37 H14        0.4557    1.2568    6.8219 H         1 RES1    0.0000
     38 H15        0.0337    0.1494    5.7967 H         1 RES1    0.0000
     39 H16       -1.3247    3.5396    2.8435 H         1 RES1    0.0000
     40 H17       -0.9092    4.0805    4.2548 H         1 RES1    0.0000
     41 H18       -2.3122    3.4125    4.0548 H         1 RES1    0.0000
     42 H19       -2.3851    0.8977    3.5255 H         1 RES1    0.0000
     43 H20       -1.0463    0.0903    3.6367 H         1 RES1    0.0000
     44 H21       -1.2866    1.0483    2.4184 H         1 RES1    0.0000
@<TRIPOS>BOND
     1    1    2 ar
     2    2    3 ar
     3    3    4 ar
     4    4    5 ar
     5    5    6 ar
     6    6    1 ar
     7    7    1 1
     8    8    7 1
     9    9    8 1
    10   10    9 2
    11   11   10 1
    12   12    7 2
    13   13   12 1
    14   14   13 1
    15   15   13 1
    16   16   15 1
    17   17   15 1
    18   18   17 1
    19   19   18 1
    20   20   19 1
    21   21   20 1
    22   22   20 1
    23   23   17 1
    24   24    2 1
    25   25    3 1
    26   26    4 1
    27   27    5 1
    28   28    6 1
    29   29   11 1
    30   30   11 1
    31   31   11 1
    32   32   13 1
    33   33   14 1
    34   34   15 1
    35   35   16 1
    36   36   17 1
    37   37   18 1
    38   38   18 1
    39   39   21 1
    40   40   21 1
    41   41   21 1
    42   42   22 1
    43   43   22 1
    44   44   22 1
    45   10   12 1
    46   20   23 1
@<TRIPOS>SUBSTRUCTURE
     1 RES1 1

@<TRIPOS>CRYSIN
  10.8760   11.1520   13.8910  90.0000  90.0000  90.0000  19 1

