# MOL2 file generated by ConQuest
# Please check atom types

@<TRIPOS>MOLECULE
QABPIV
    38    40     1
SMALL
NO_CHARGES
****
Generated from CSD

@<TRIPOS>ATOM
      1 O1         2.3436    3.2071   12.2570 O.2       1 RES1    0.0000
      2 O2         0.7914    1.4019   13.5887 O.3       1 RES1    0.0000
      3 O3         2.5721    0.2085   14.2696 O.2       1 RES1    0.0000
      4 O4        -0.3722    3.3148   18.9610 O.2       1 RES1    0.0000
      5 O5         0.2410    1.2897   18.5710 O.2       1 RES1    0.0000
      6 N1         0.1147    2.4672   18.2457 N.pl3     1 RES1    0.0000
      7 C1         1.7857    4.0089   12.9649 C.2       1 RES1    0.0000
      8 C2         1.5373    5.4315   12.5448 C.3       1 RES1    0.0000
      9 H1         1.6421    5.5071   11.5927 H         1 RES1    0.0000
     10 H2         2.1662    6.0088   12.9828 H         1 RES1    0.0000
     11 H3         0.6445    5.6858   12.7905 H         1 RES1    0.0000
     12 C3         1.7181    0.4089   13.4571 C.2       1 RES1    0.0000
     13 C4         1.3410    3.5988   14.3563 C.ar      1 RES1    0.0000
     14 C5         0.9572    2.3126   14.6441 C.ar      1 RES1    0.0000
     15 C6         0.5793    1.9048   15.9123 C.ar      1 RES1    0.0000
     16 H4         0.3383    1.0251   16.0935 H         1 RES1    0.0000
     17 C7         0.5776    2.8738   16.8962 C.ar      1 RES1    0.0000
     18 C8         0.9407    4.1693   16.6860 C.ar      1 RES1    0.0000
     19 H5         0.9317    4.7912   17.3790 H         1 RES1    0.0000
     20 C9         1.3236    4.5301   15.4008 C.ar      1 RES1    0.0000
     21 H6         1.5753    5.4086   15.2298 H         1 RES1    0.0000
     22 C10        0.7113    0.1157   11.2047 C.ar      1 RES1    0.0000
     23 H7         0.2591    0.9198   11.3228 H         1 RES1    0.0000
     24 C11        1.5093   -0.3665   12.2017 C.ar      1 RES1    0.0000
     25 C12        2.1950   -1.5852   12.0465 C.ar      1 RES1    0.0000
     26 H8         2.7372   -1.9059   12.7297 H         1 RES1    0.0000
     27 C13        2.0622   -2.2977   10.8872 C.ar      1 RES1    0.0000
     28 H9         2.5111   -3.1063   10.7931 H         1 RES1    0.0000
     29 C14        1.1305   -2.5290    8.5964 C.ar      1 RES1    0.0000
     30 H10        1.5671   -3.3423    8.4854 H         1 RES1    0.0000
     31 C15        0.3895   -2.0274    7.5930 C.ar      1 RES1    0.0000
     32 H11        0.3235   -2.4993    6.7950 H         1 RES1    0.0000
     33 C16       -0.2872   -0.8006    7.7313 C.ar      1 RES1    0.0000
     34 H12       -0.7831   -0.4605    7.0211 H         1 RES1    0.0000
     35 C17       -0.2162   -0.1100    8.9115 C.ar      1 RES1    0.0000
     36 H13       -0.6849    0.6872    9.0083 H         1 RES1    0.0000
     37 C18        0.5677   -0.6036    9.9827 C.ar      1 RES1    0.0000
     38 C19        1.2527   -1.8246    9.8302 C.ar      1 RES1    0.0000
@<TRIPOS>BOND
     1    1    7 2
     2    2   12 1
     3    3   12 2
     4    4    6 2
     5    5    6 2
     6    6   17 1
     7    7    8 1
     8    8    9 1
     9   10    8 1
    10   11    8 1
    11   12   24 1
    12   13    7 1
    13   14    2 1
    14   15   14 ar
    15   16   15 1
    16   17   15 ar
    17   18   17 ar
    18   19   18 1
    19   20   13 ar
    20   21   20 1
    21   22   23 1
    22   24   22 ar
    23   25   24 ar
    24   26   25 1
    25   27   25 ar
    26   28   27 1
    27   29   30 1
    28   31   29 ar
    29   32   31 1
    30   33   31 ar
    31   34   33 1
    32   35   33 ar
    33   36   35 1
    34   37   22 ar
    35   38   27 ar
    36   13   14 ar
    37   18   20 ar
    38   29   38 ar
    39   35   37 ar
    40   37   38 ar
@<TRIPOS>SUBSTRUCTURE
     1 RES1 1

@<TRIPOS>CRYSIN
   8.2520   11.4540   33.7390  90.0000  90.0000  90.0000  61 3

