# MOL2 file generated by ConQuest
# Please check atom types

@<TRIPOS>MOLECULE
QABWIZ
    69    74     1
SMALL
NO_CHARGES
****
Generated from CSD

@<TRIPOS>ATOM
      1 O1        -1.6576   10.5039    5.0069 O.3       1 RES1    0.0000
      2 O2        -2.4641   11.5762    6.8294 O.3       1 RES1    0.0000
      3 O3        -1.5107    8.9348    9.0793 O.3       1 RES1    0.0000
      4 O4         0.6668    9.5511    9.1571 O.3       1 RES1    0.0000
      5 O5         2.5551   11.7547    7.3715 O.3       1 RES1    0.0000
      6 O6        -0.0652    9.4779    6.3195 O.3       1 RES1    0.0000
      7 O7         4.5551    9.3804    5.7613 O.2       1 RES1    0.0000
      8 O8         3.1042    8.2670    4.8060 O.2       1 RES1    0.0000
      9 N1         3.4505    9.2686    5.2969 N.pl3     1 RES1    0.0000
     10 N2         2.4568   12.6034    6.1783 N.3       1 RES1    0.0000
     11 C1        -1.4434    9.6025    6.0769 C.3       1 RES1    0.0000
     12 C2        -2.2285   10.2330    7.2426 C.3       1 RES1    0.0000
     13 C3        -1.4909   10.2689    8.5676 C.3       1 RES1    0.0000
     14 C4         0.0120   10.6002    8.4586 C.3       1 RES1    0.0000
     15 C5         0.4768   10.6105    7.0057 C.3       1 RES1    0.0000
     16 C6         1.9895   10.5219    6.9090 C.3       1 RES1    0.0000
     17 C7         2.4564   10.3974    5.4514 C.3       1 RES1    0.0000
     18 C8         3.1192   11.7547    5.1614 C.3       1 RES1    0.0000
     19 C9         3.2246   13.8092    6.4759 C.3       1 RES1    0.0000
     20 C10       -2.5716   11.5466    5.3974 C.3       1 RES1    0.0000
     21 C11       -2.1058   12.8718    4.8420 C.3       1 RES1    0.0000
     22 C12       -3.9868   11.1935    4.9747 C.3       1 RES1    0.0000
     23 C13       -0.3017    8.7293    9.8025 C.3       1 RES1    0.0000
     24 C14        0.1084    7.2937    9.6755 C.3       1 RES1    0.0000
     25 C15       -0.4574    9.1531   11.2411 C.3       1 RES1    0.0000
     26 C16        2.8534   12.2888    3.7739 C.ar      1 RES1    0.0000
     27 C17        3.9187   12.4840    2.9067 C.ar      1 RES1    0.0000
     28 C18        3.6627   13.0144    1.6330 C.ar      1 RES1    0.0000
     29 C19        2.4085   13.3148    1.2861 C.ar      1 RES1    0.0000
     30 C20        1.3503   13.1132    2.1106 C.ar      1 RES1    0.0000
     31 C21        1.5830   12.5983    3.3721 C.ar      1 RES1    0.0000
     32 C22        2.4762   14.7646    7.3696 C.ar      1 RES1    0.0000
     33 C23        1.1047   14.9649    7.2189 C.ar      1 RES1    0.0000
     34 C24        0.4231   15.8933    7.9961 C.ar      1 RES1    0.0000
     35 C25        1.1138   16.6265    8.9353 C.ar      1 RES1    0.0000
     36 C26        2.4629   16.4583    9.0699 C.ar      1 RES1    0.0000
     37 C27        3.1432   15.5325    8.2937 C.ar      1 RES1    0.0000
     38 H1         2.2976    9.7206    7.4492 H         1 RES1    0.0000
     39 H2         0.1460   11.4799    6.5773 H         1 RES1    0.0000
     40 H3         0.2406   11.5184    8.8519 H         1 RES1    0.0000
     41 H4        -1.7552    8.6548    5.9044 H         1 RES1    0.0000
     42 H5        -1.9352   11.0047    9.1078 H         1 RES1    0.0000
     43 H6        -3.0833    9.6821    7.3924 H         1 RES1    0.0000
     44 H7         4.1414   13.5986    6.8522 H         1 RES1    0.0000
     45 H8         3.5316   14.2792    5.6201 H         1 RES1    0.0000
     46 H9         1.6918   10.1958    4.8240 H         1 RES1    0.0000
     47 H10        4.1343   11.7367    5.2031 H         1 RES1    0.0000
     48 H11        0.5977   14.4718    6.4825 H         1 RES1    0.0000
     49 H12       -4.2391   10.2985    5.3547 H         1 RES1    0.0000
     50 H13       -4.6378   11.8779    5.3642 H         1 RES1    0.0000
     51 H14       -4.0828   11.1845    3.9900 H         1 RES1    0.0000
     52 H15        4.1583   15.4220    8.4064 H         1 RES1    0.0000
     53 H16       -2.6622   13.6371    5.1936 H         1 RES1    0.0000
     54 H17       -1.1433   13.0465    5.0894 H         1 RES1    0.0000
     55 H18       -2.1660   12.8795    3.8289 H         1 RES1    0.0000
     56 H19        0.5711   17.2968    9.5058 H         1 RES1    0.0000
     57 H20       -0.5839   15.9742    7.9231 H         1 RES1    0.0000
     58 H21        2.9751   17.0143    9.7522 H         1 RES1    0.0000
     59 H22        4.8850   12.2246    3.2034 H         1 RES1    0.0000
     60 H23       -0.6100    6.6773   10.0271 H         1 RES1    0.0000
     61 H24        0.2425    7.0497    8.6908 H         1 RES1    0.0000
     62 H25        0.9582    7.1139   10.1598 H         1 RES1    0.0000
     63 H26       -0.6956   10.1444   11.2781 H         1 RES1    0.0000
     64 H27       -1.2055    8.6420   11.6856 H         1 RES1    0.0000
     65 H28        0.3867    9.0144   11.7614 H         1 RES1    0.0000
     66 H29        2.2449   13.7270    0.3507 H         1 RES1    0.0000
     67 H30        0.7832   12.4558    4.0184 H         1 RES1    0.0000
     68 H31        0.4040   13.3290    1.8007 H         1 RES1    0.0000
     69 H32        4.4101   13.1749    0.9572 H         1 RES1    0.0000
@<TRIPOS>BOND
     1    1   11 1
     2    2   12 1
     3    3   13 1
     4    4   14 1
     5    5   10 1
     6    6   11 1
     7    7    9 2
     8    8    9 2
     9    9   17 1
    10   10   18 1
    11   11   12 1
    12   12   13 1
    13   13   14 1
    14   14   15 1
    15   15    6 1
    16   16    5 1
    17   17   16 1
    18   18   17 1
    19   19   10 1
    20   20    1 1
    21   21   20 1
    22   22   20 1
    23   23    3 1
    24   24   23 1
    25   25   23 1
    26   26   18 1
    27   27   26 ar
    28   28   27 ar
    29   29   28 ar
    30   30   29 ar
    31   31   26 ar
    32   32   19 1
    33   33   32 ar
    34   34   33 ar
    35   35   34 ar
    36   36   35 ar
    37   37   32 ar
    38   38   16 1
    39   39   15 1
    40   40   14 1
    41   41   11 1
    42   42   13 1
    43   43   12 1
    44   44   19 1
    45   45   19 1
    46   46   17 1
    47   47   18 1
    48   48   33 1
    49   49   22 1
    50   50   22 1
    51   51   22 1
    52   52   37 1
    53   53   21 1
    54   54   21 1
    55   55   21 1
    56   56   35 1
    57   57   34 1
    58   58   36 1
    59   59   27 1
    60   60   24 1
    61   61   24 1
    62   62   24 1
    63   63   25 1
    64   64   25 1
    65   65   25 1
    66   66   29 1
    67   67   31 1
    68   68   30 1
    69   69   28 1
    70    2   20 1
    71    4   23 1
    72   15   16 1
    73   30   31 ar
    74   36   37 ar
@<TRIPOS>SUBSTRUCTURE
     1 RES1 1

@<TRIPOS>CRYSIN
  11.3310   12.8410    9.7090  90.0000 102.5400  90.0000   4 1

