# MOL2 file generated by ConQuest
# Please check atom types

@<TRIPOS>MOLECULE
QACYAW
    30    32     1
SMALL
NO_CHARGES
****
Generated from CSD

@<TRIPOS>ATOM
      1 O1         4.4343    5.9902   13.6139 O.3       1 RES1    0.0000
      2 O2         5.1820    4.6009   12.0262 O.2       1 RES1    0.0000
      3 N1         3.3256    6.0717   14.5463 N.2       1 RES1    0.0000
      4 C1         3.6779    2.2342   10.7779 C.ar      1 RES1    0.0000
      5 C2         2.6019    2.1970   11.6721 C.ar      1 RES1    0.0000
      6 C3         2.5879    5.0277   14.3324 C.2       1 RES1    0.0000
      7 C4        -0.8786    4.3946   16.7474 C.ar      1 RES1    0.0000
      8 C5         0.1252    3.4364   16.7095 C.ar      1 RES1    0.0000
      9 C6         1.2396    3.6284   15.9068 C.ar      1 RES1    0.0000
     10 C7         0.3622    5.7643   15.2079 C.ar      1 RES1    0.0000
     11 C8         1.6362    1.1805   11.5053 C.ar      1 RES1    0.0000
     12 C9         4.3239    4.8472   12.8384 C.2       1 RES1    0.0000
     13 C10        2.8240    0.3074    9.6185 C.ar      1 RES1    0.0000
     14 C11        3.0792    4.1826   13.2585 C.2       1 RES1    0.0000
     15 C12        1.7563    0.2400   10.5003 C.ar      1 RES1    0.0000
     16 C13        1.3755    4.8055   15.1585 C.ar      1 RES1    0.0000
     17 C14        3.7815    1.3028    9.7612 C.ar      1 RES1    0.0000
     18 C15        2.3874    3.1136   12.7715 C.2       1 RES1    0.0000
     19 C16       -0.7573    5.5529   15.9908 C.ar      1 RES1    0.0000
     20 H1         4.3399    2.9090   10.8701 H         1 RES1    0.0000
     21 H2        -1.6477    4.2592   17.2895 H         1 RES1    0.0000
     22 H3         0.0468    2.6502   17.2364 H         1 RES1    0.0000
     23 H4         1.9132    2.9604   15.8573 H         1 RES1    0.0000
     24 H5         0.4449    6.5591   14.6941 H         1 RES1    0.0000
     25 H6         0.8915    1.1491   12.0952 H         1 RES1    0.0000
     26 H7         2.9031   -0.3274    8.9156 H         1 RES1    0.0000
     27 H8         1.1105   -0.4520   10.4169 H         1 RES1    0.0000
     28 H9         4.5127    1.3422    9.1564 H         1 RES1    0.0000
     29 H10        1.5911    2.9330   13.2584 H         1 RES1    0.0000
     30 H11       -1.4463    6.2065   16.0131 H         1 RES1    0.0000
@<TRIPOS>BOND
     1    1    3 1
     2    2   12 2
     3    3    6 2
     4    4    5 ar
     5    5   11 ar
     6    6   14 1
     7    7    8 ar
     8    8    9 ar
     9    9   16 ar
    10   10   16 ar
    11   11   15 ar
    12   12    1 1
    13   13   15 ar
    14   14   12 1
    15   15   27 1
    16   16    6 1
    17   17    4 ar
    18   18    5 1
    19   19    7 ar
    20   20    4 1
    21   21    7 1
    22   22    8 1
    23   23    9 1
    24   24   10 1
    25   25   11 1
    26   26   13 1
    27   28   17 1
    28   29   18 1
    29   30   19 1
    30   10   19 ar
    31   13   17 ar
    32   14   18 2
@<TRIPOS>SUBSTRUCTURE
     1 RES1 1

@<TRIPOS>CRYSIN
  11.7010    5.7140   17.8180  90.0000  96.4910  90.0000  14 2

