# MOL2 file generated by ConQuest
# Please check atom types

@<TRIPOS>MOLECULE
QADBAY
    17    18     1
SMALL
NO_CHARGES
****
Generated from CSD

@<TRIPOS>ATOM
      1 O1         2.5375   -0.1920    4.7622 O.2       1 RES1    0.0000
      2 O2         4.7688    4.6442    5.8146 O.2       1 RES1    0.0000
      3 O3         4.9952    3.2734    7.4713 O.2       1 RES1    0.0000
      4 N1         4.8539    3.5257    6.2933 N.pl3     1 RES1    0.0000
      5 C1         3.6388    0.2873    4.7678 C.2       1 RES1    0.0000
      6 C2         4.1927    1.1276    5.8439 C.3       1 RES1    0.0000
      7 C3         5.6992    1.2383    5.6052 C.3       1 RES1    0.0000
      8 C4         6.0325    0.4296    4.3518 C.3       1 RES1    0.0000
      9 C5         4.6791    0.1037    3.6763 C.3       1 RES1    0.0000
     10 C6         4.7981    2.4122    5.3219 C.3       1 RES1    0.0000
     11 H1         3.6672    1.1213    6.6576 H         1 RES1    0.0000
     12 H2         6.4769    1.3455    6.3366 H         1 RES1    0.0000
     13 H3         6.4890   -0.3714    4.5779 H         1 RES1    0.0000
     14 H4         6.5764    0.9461    3.7684 H         1 RES1    0.0000
     15 H5         4.5144    0.6938    2.9589 H         1 RES1    0.0000
     16 H6         4.6749   -0.7919    3.3637 H         1 RES1    0.0000
     17 H7         4.5116    2.7191    4.4384 H         1 RES1    0.0000
@<TRIPOS>BOND
     1    1    5 2
     2    2    4 2
     3    3    4 2
     4    4   10 1
     5    5    6 1
     6    6    7 1
     7    7    8 1
     8    8    9 1
     9    9    5 1
    10   10    6 1
    11   11    6 1
    12   12    7 1
    13   13    8 1
    14   14    8 1
    15   15    9 1
    16   16    9 1
    17   17   10 1
    18    7   10 1
@<TRIPOS>SUBSTRUCTURE
     1 RES1 1

@<TRIPOS>CRYSIN
   6.6960    7.0080   13.9650  90.0000  91.9200  90.0000  14 1

