# MOL2 file generated by ConQuest
# Please check atom types

@<TRIPOS>MOLECULE
QADDAC
    58    57     2
SMALL
NO_CHARGES
****
Generated from CSD

@<TRIPOS>ATOM
      1 O1         4.8701    3.3807    3.6789 O.2       1 RES1    0.0000
      2 O2         2.7450    3.4076    4.0853 O.2       1 RES1    0.0000
      3 O3        -0.2259    5.5036    1.0649 O.2       1 RES1    0.0000
      4 O4         0.3694    6.2887   -0.8345 O.2       1 RES1    0.0000
      5 N1         0.6554    5.7429    0.2409 N.pl3     1 RES1    0.0000
      6 O5         6.0913   11.5396   -7.1250 O.2       1 RES1    0.0000
      7 O6         7.3607   10.1958   -5.8827 O.3       1 RES1    0.0000
      8 N2         3.7171    3.6873    3.3832 N.pl3     1 RES1    0.0000
      9 N3         2.9219    6.3717   -1.4626 N.pl3     1 RES1    0.0000
     10 H1         2.1005    6.4420   -1.7702 H         1 RES1    0.0000
     11 N4         4.0216    6.7337   -2.2167 N.2       1 RES1    0.0000
     12 C1         3.4955    4.4223    2.1525 C.ar      1 RES1    0.0000
     13 C2         2.2209    4.6713    1.7426 C.ar      1 RES1    0.0000
     14 H2         1.4827    4.3946    2.2729 H         1 RES1    0.0000
     15 C3         2.0146    5.3346    0.5419 C.ar      1 RES1    0.0000
     16 C4         3.0971    5.7690   -0.2688 C.ar      1 RES1    0.0000
     17 C5         4.4051    5.5066    0.2242 C.ar      1 RES1    0.0000
     18 H3         5.1594    5.7937   -0.2758 H         1 RES1    0.0000
     19 C6         4.5928    4.8508    1.4008 C.ar      1 RES1    0.0000
     20 H4         5.4744    4.6840    1.7143 H         1 RES1    0.0000
     21 C7         3.7583    7.2287   -3.3860 C.2       1 RES1    0.0000
     22 C8         4.9180    7.5330   -4.2421 C.2       1 RES1    0.0000
     23 C9         4.7462    7.8860   -5.5374 C.2       1 RES1    0.0000
     24 C10        5.8902    7.9286   -6.5276 C.3       1 RES1    0.0000
     25 H5         5.8491    7.1150   -7.0911 H         1 RES1    0.0000
     26 H6         6.7419    7.8994   -6.0227 H         1 RES1    0.0000
     27 C11        5.9133    9.1557   -7.4497 C.3       1 RES1    0.0000
     28 H7         6.5412    8.9381   -8.1979 H         1 RES1    0.0000
     29 C12        4.5459    9.3785   -8.0851 C.3       1 RES1    0.0000
     30 H8         4.5542   10.2190   -8.6099 H         1 RES1    0.0000
     31 H9         4.3400    8.6323   -8.7042 H         1 RES1    0.0000
     32 C13        3.4767    9.4585   -7.0059 C.3       1 RES1    0.0000
     33 H10        2.6000    9.6223   -7.4368 H         1 RES1    0.0000
     34 H11        3.6730   10.2295   -6.4173 H         1 RES1    0.0000
     35 C14        3.3791    8.1821   -6.1411 C.3       1 RES1    0.0000
     36 C15        2.3498    8.4505   -5.0402 C.3       1 RES1    0.0000
     37 H12        2.5257    9.3411   -4.6436 H         1 RES1    0.0000
     38 H13        1.4460    8.4715   -5.4431 H         1 RES1    0.0000
     39 C16        2.3759    7.4111   -3.9422 C.3       1 RES1    0.0000
     40 H14        1.7646    7.6886   -3.2156 H         1 RES1    0.0000
     41 H15        2.0510    6.5475   -4.3014 H         1 RES1    0.0000
     42 C17        6.2870    7.3050   -3.6280 C.3       1 RES1    0.0000
     43 H16        6.5914    6.3964   -3.8371 H         1 RES1    0.0000
     44 H17        6.2313    7.4156   -2.6570 H         1 RES1    0.0000
     45 H18        6.9219    7.9548   -3.9942 H         1 RES1    0.0000
     46 C18        6.4262   10.4291   -6.8149 C.2       1 RES1    0.0000
     47 C19        7.9953   11.3818   -5.3262 C.3       1 RES1    0.0000
     48 H19        8.6639   11.7205   -5.9564 H         1 RES1    0.0000
     49 H20        8.4320   11.1515   -4.4795 H         1 RES1    0.0000
     50 H21        7.3171   12.0705   -5.1673 H         1 RES1    0.0000
     51 C20        2.8736    7.0313   -6.9933 C.2       1 RES1    0.0000
     52 H22        2.1794    7.2392   -7.6078 H         1 RES1    0.0000
     53 C21        3.2811    5.7870   -6.9811 C.2       1 RES1    0.0000
     54 H23        3.9730    5.5193   -6.3858 H         1 RES1    0.0000
     55 H24        2.8854    5.1514   -7.5659 H         1 RES1    0.0000
     56 N5         0.6448    5.3765    0.0803 Du        2 SUP2    0.0000
     57 O7        -0.2480    4.9203    0.7821 Du        2 SUP2    0.0000
     58 O8         0.4046    5.8401   -1.0404 Du        2 SUP2    0.0000
@<TRIPOS>BOND
     1    1    8 2
     2    2    8 2
     3    3    5 2
     4    4    5 2
     5    5   15 1
     6    6   46 2
     7    7   46 1
     8    8   12 1
     9    9   10 1
    10   11    9 1
    11   12   13 ar
    12   13   14 1
    13   15   13 ar
    14   16    9 1
    15   17   16 ar
    16   18   17 1
    17   19   12 ar
    18   20   19 1
    19   21   11 2
    20   22   21 1
    21   23   22 2
    22   24   23 1
    23   25   24 1
    24   26   24 1
    25   27   24 1
    26   28   27 1
    27   29   27 1
    28   30   29 1
    29   31   29 1
    30   32   29 1
    31   33   32 1
    32   34   32 1
    33   35   23 1
    34   36   35 1
    35   37   36 1
    36   38   36 1
    37   39   21 1
    38   40   39 1
    39   41   39 1
    40   42   22 1
    41   43   42 1
    42   44   42 1
    43   45   42 1
    44   46   27 1
    45   47    7 1
    46   48   47 1
    47   49   47 1
    48   50   47 1
    49   51   35 1
    50   52   51 1
    51   53   51 2
    52   54   53 1
    53   55   53 1
    54   15   16 ar
    55   17   19 ar
    56   32   35 1
    57   36   39 1
@<TRIPOS>SUBSTRUCTURE
     1 RES1 1
     2 SUP2 56

@<TRIPOS>CRYSIN
   7.8464    7.4777   34.9440  90.0000  92.3600  90.0000 231 1

