# MOL2 file generated by ConQuest
# Please check atom types

@<TRIPOS>MOLECULE
QADLOW
    70    72     2
SMALL
NO_CHARGES
****
Generated from CSD

@<TRIPOS>ATOM
      1 O1         0.1381    8.6654   -0.3594 O.3       1 RES1    0.0000
      2 O2         3.6467    5.8950    2.0700 O.2       1 RES1    0.0000
      3 O3         4.8743    5.2527    0.3329 O.3       1 RES1    0.0000
      4 O4         0.5860    5.4741    1.9010 O.2       1 RES1    0.0000
      5 O5         1.1376    6.7041    3.5693 O.2       1 RES1    0.0000
      6 N1         1.0074    6.5099    2.3814 N.pl3     1 RES1    0.0000
      7 C1        -0.1414    8.1628    0.9372 C.3       1 RES1    0.0000
      8 C2         1.2711    7.6575    1.4227 C.3       1 RES1    0.0000
      9 C3         1.8859    7.1739    0.1232 C.2       1 RES1    0.0000
     10 C4         1.0023    7.7102   -0.9816 C.3       1 RES1    0.0000
     11 C5        -0.7978    9.2089    1.7857 C.ar      1 RES1    0.0000
     12 C6        -1.3917    8.8404    2.9786 C.ar      1 RES1    0.0000
     13 C7        -1.9664    9.7848    3.8005 C.ar      1 RES1    0.0000
     14 C8        -1.9929   11.1004    3.4346 C.ar      1 RES1    0.0000
     15 C9        -1.4455   11.4677    2.2361 C.ar      1 RES1    0.0000
     16 C10       -0.8359   10.5457    1.4191 C.ar      1 RES1    0.0000
     17 C11        2.0996    8.7403    2.0728 C.3       1 RES1    0.0000
     18 C12        2.9783    6.4804   -0.1246 C.2       1 RES1    0.0000
     19 C13        3.8452    5.8768    0.8943 C.2       1 RES1    0.0000
     20 C14        5.7963    4.5884    1.2279 C.3       1 RES1    0.0000
     21 H1        -0.7614    7.3973    0.9014 H         1 RES1    0.0000
     22 H2         0.4583    7.0236   -1.4399 H         1 RES1    0.0000
     23 H3         1.4816    8.0353   -1.7499 H         1 RES1    0.0000
     24 H4        -1.3427    7.8978    3.2413 H         1 RES1    0.0000
     25 H5        -2.3454    9.4564    4.6440 H         1 RES1    0.0000
     26 H6        -2.3441   11.8038    4.0182 H         1 RES1    0.0000
     27 H7        -1.4862   12.4295    2.0327 H         1 RES1    0.0000
     28 H8        -0.5355   10.7917    0.5134 H         1 RES1    0.0000
     29 H9         1.7845    9.0964    2.9127 H         1 RES1    0.0000
     30 H10        2.1779    9.4105    1.3912 H         1 RES1    0.0000
     31 H11        2.9867    8.4425    2.2833 H         1 RES1    0.0000
     32 H12        3.1705    6.2757   -1.0618 H         1 RES1    0.0000
     33 H13        5.9245    5.0391    2.0263 H         1 RES1    0.0000
     34 H14        5.3176    3.7051    1.5179 H         1 RES1    0.0000
     35 H15        6.5692    4.3034    0.8227 H         1 RES1    0.0000
     36 O6        10.6321   -0.3623   -2.0234 O.3       2 RES2    0.0000
     37 O7         6.2913    2.2071   -1.3131 O.2       2 RES2    0.0000
     38 O8         6.1673    3.2354   -3.2922 O.3       2 RES2    0.0000
     39 O9         9.0489    2.5970    0.0924 O.2       2 RES2    0.0000
     40 O10        7.8050    1.1948    1.1377 O.2       2 RES2    0.0000
     41 N2         8.4920    1.5262    0.1847 N.pl3     2 RES2    0.0000
     42 C15       10.2505    0.0173   -0.7053 C.3       2 RES2    0.0000
     43 C16        8.7638    0.4972   -0.8971 C.3       2 RES2    0.0000
     44 C17        8.8507    1.1354   -2.2776 C.2       2 RES2    0.0000
     45 C18       10.1518    0.6547   -2.8805 C.3       2 RES2    0.0000
     46 C19       10.4732   -1.1185    0.2485 C.ar      2 RES2    0.0000
     47 C20       10.3980   -0.8860    1.6139 C.ar      2 RES2    0.0000
     48 C21       10.5492   -1.9146    2.5117 C.ar      2 RES2    0.0000
     49 C22       10.7993   -3.2040    2.0700 C.ar      2 RES2    0.0000
     50 C23       10.9133   -3.4208    0.7296 C.ar      2 RES2    0.0000
     51 C24       10.7298   -2.3954   -0.1876 C.ar      2 RES2    0.0000
     52 C25        7.7713   -0.6456   -0.8377 C.3       2 RES2    0.0000
     53 C26        8.0165    1.9088   -2.9306 C.2       2 RES2    0.0000
     54 C27        6.7471    2.4424   -2.3943 C.2       2 RES2    0.0000
     55 C28        4.9143    3.8268   -2.9163 C.3       2 RES2    0.0000
     56 H16       10.8347    0.7683   -0.4267 H         2 RES2    0.0000
     57 H17       10.7443    1.4428   -2.9542 H         2 RES2    0.0000
     58 H18       10.0050    0.2021   -3.7325 H         2 RES2    0.0000
     59 H19       10.4373    0.0202    1.9769 H         2 RES2    0.0000
     60 H20       10.5513   -1.6406    3.4733 H         2 RES2    0.0000
     61 H21       10.8317   -3.9887    2.6664 H         2 RES2    0.0000
     62 H22       11.1547   -4.2814    0.3093 H         2 RES2    0.0000
     63 H23       10.9399   -2.5718   -1.1320 H         2 RES2    0.0000
     64 H24        7.9713   -1.3013   -1.4835 H         2 RES2    0.0000
     65 H25        7.7334   -1.0144    0.0222 H         2 RES2    0.0000
     66 H26        6.8733   -0.2957   -1.0489 H         2 RES2    0.0000
     67 H27        8.3359    2.2348   -3.8034 H         2 RES2    0.0000
     68 H28        4.4002    4.1072   -3.7318 H         2 RES2    0.0000
     69 H29        5.0494    4.6830   -2.4459 H         2 RES2    0.0000
     70 H30        4.3488    3.2984   -2.4086 H         2 RES2    0.0000
@<TRIPOS>BOND
     1    1    7 1
     2    2   19 2
     3    3   19 1
     4    4    6 2
     5    5    6 2
     6    6    8 1
     7    7    8 1
     8    8    9 1
     9    9   10 1
    10   10    1 1
    11   11    7 1
    12   12   11 ar
    13   13   12 ar
    14   14   13 ar
    15   15   14 ar
    16   16   11 ar
    17   17    8 1
    18   18    9 2
    19   19   18 1
    20   20    3 1
    21   21    7 1
    22   22   10 1
    23   23   10 1
    24   24   12 1
    25   25   13 1
    26   26   14 1
    27   27   15 1
    28   28   16 1
    29   29   17 1
    30   30   17 1
    31   31   17 1
    32   32   18 1
    33   33   20 1
    34   34   20 1
    35   35   20 1
    36   36   42 1
    37   37   54 2
    38   38   54 1
    39   39   41 2
    40   40   41 2
    41   41   43 1
    42   42   43 1
    43   43   44 1
    44   44   45 1
    45   45   36 1
    46   46   42 1
    47   47   46 ar
    48   48   47 ar
    49   49   48 ar
    50   50   49 ar
    51   51   46 ar
    52   52   43 1
    53   53   44 2
    54   54   53 1
    55   55   38 1
    56   56   42 1
    57   57   45 1
    58   58   45 1
    59   59   47 1
    60   60   48 1
    61   61   49 1
    62   62   50 1
    63   63   51 1
    64   64   52 1
    65   65   52 1
    66   66   52 1
    67   67   53 1
    68   68   55 1
    69   69   55 1
    70   70   55 1
    71   15   16 ar
    72   50   51 ar
@<TRIPOS>SUBSTRUCTURE
     1 RES1 1
     2 RES2 36

@<TRIPOS>CRYSIN
  12.0949   16.6190    7.4647  91.4250 105.6800 102.0780   2 1

