# MOL2 file generated by ConQuest
# Please check atom types

@<TRIPOS>MOLECULE
QADLEM
    32    33     1
SMALL
NO_CHARGES
****
Generated from CSD

@<TRIPOS>ATOM
      1 O1        -1.5515   23.3388    0.2773 O.3       1 RES1    0.0000
      2 O2         1.0068   26.1892   -1.5855 O.2       1 RES1    0.0000
      3 O3         3.2126   25.8056   -1.5413 O.3       1 RES1    0.0000
      4 O4        -0.8408   20.6891   -0.9355 O.2       1 RES1    0.0000
      5 O5         1.0819   21.1444   -1.7348 O.2       1 RES1    0.0000
      6 N1         0.2059   21.2720   -0.8946 N.pl3     1 RES1    0.0000
      7 C1         0.5054   22.2494    0.2821 C.3       1 RES1    0.0000
      8 C2         1.6812   21.6335    1.0398 C.3       1 RES1    0.0000
      9 C3         1.9133   22.3139    2.3712 C.3       1 RES1    0.0000
     10 C4         0.6444   22.3627    3.1949 C.3       1 RES1    0.0000
     11 C5        -0.4407   23.1064    2.4461 C.3       1 RES1    0.0000
     12 C6        -0.7498   22.4723    1.0997 C.3       1 RES1    0.0000
     13 C7        -0.6638   24.2541   -0.3727 C.3       1 RES1    0.0000
     14 C8         0.6920   23.6042   -0.3570 C.2       1 RES1    0.0000
     15 C9         1.8373   24.1107   -0.7740 C.2       1 RES1    0.0000
     16 C10        1.9375   25.4580   -1.3375 C.2       1 RES1    0.0000
     17 C11        3.4468   27.1338   -2.0387 C.3       1 RES1    0.0000
     18 H1         1.5126   20.6942    1.1944 H         1 RES1    0.0000
     19 H2         2.4801   21.6830    0.4940 H         1 RES1    0.0000
     20 H3         2.6207   21.8696    2.8570 H         1 RES1    0.0000
     21 H4         2.2171   23.2210    2.2097 H         1 RES1    0.0000
     22 H5         0.3494   21.4565    3.3694 H         1 RES1    0.0000
     23 H6         0.8154   22.7652    4.0562 H         1 RES1    0.0000
     24 H7        -1.2383   23.1677    2.9878 H         1 RES1    0.0000
     25 H8        -0.1420   24.0179    2.2969 H         1 RES1    0.0000
     26 H9        -1.2174   21.6271    1.2469 H         1 RES1    0.0000
     27 H10       -0.9492   24.4470   -1.2776 H         1 RES1    0.0000
     28 H11       -0.6407   25.1107    0.0893 H         1 RES1    0.0000
     29 H12        2.6401   23.5675   -0.6991 H         1 RES1    0.0000
     30 H13        4.3823   27.3630   -2.0066 H         1 RES1    0.0000
     31 H14        3.1624   27.2244   -2.9551 H         1 RES1    0.0000
     32 H15        2.9845   27.7948   -1.5249 H         1 RES1    0.0000
@<TRIPOS>BOND
     1    1   12 1
     2    2   16 2
     3    3   16 1
     4    4    6 2
     5    5    6 2
     6    6    7 1
     7    7    8 1
     8    8    9 1
     9    9   10 1
    10   10   11 1
    11   11   12 1
    12   12    7 1
    13   13    1 1
    14   14    7 1
    15   15   14 2
    16   16   15 1
    17   17    3 1
    18   18    8 1
    19   19    8 1
    20   20    9 1
    21   21    9 1
    22   22   10 1
    23   23   10 1
    24   24   11 1
    25   25   11 1
    26   26   12 1
    27   27   13 1
    28   28   13 1
    29   29   15 1
    30   30   17 1
    31   31   17 1
    32   32   17 1
    33   13   14 1
@<TRIPOS>SUBSTRUCTURE
     1 RES1 1

@<TRIPOS>CRYSIN
   6.4085   26.6540    7.5127  90.0000 114.9120  90.0000  14 1

