# MOL2 file generated by ConQuest
# Please check atom types

@<TRIPOS>MOLECULE
QADNEQ
    47    50     1
SMALL
NO_CHARGES
****
Generated from CSD

@<TRIPOS>ATOM
      1 O1         7.3513   10.1329   10.0040 O.2       1 RES1    0.0000
      2 O2         7.4672   14.0895   12.3771 O.3       1 RES1    0.0000
      3 O3        10.4102   15.4198    4.7463 O.3       1 RES1    0.0000
      4 N1         7.7390   13.4282    9.2098 N.pl3     1 RES1    0.0000
      5 H1         6.8818   13.3701    9.1844 H         1 RES1    0.0000
      6 O4         5.5842   13.7179    7.7751 O.2       1 RES1    0.0000
      7 O5         5.5606    9.1123   11.7707 O.2       1 RES1    0.0000
      8 C1         7.4251   12.1586   11.2069 C.2       1 RES1    0.0000
      9 N2         6.2386   14.2413    6.8681 N.pl3     1 RES1    0.0000
     10 C2         8.3941   13.0087   10.4359 C.3       1 RES1    0.0000
     11 H2         9.2135   12.5082   10.2372 H         1 RES1    0.0000
     12 C3         8.3636   13.9084    8.0907 C.ar      1 RES1    0.0000
     13 C4         5.3867   11.1326   12.9821 C.ar      1 RES1    0.0000
     14 C5         5.9188   10.2582   11.9131 C.2       1 RES1    0.0000
     15 O6         5.6732   14.7118    5.8883 O.2       1 RES1    0.0000
     16 C6        10.3925   14.5198    6.9089 C.ar      1 RES1    0.0000
     17 H3        11.3211   14.5813    6.9004 H         1 RES1    0.0000
     18 C7         6.9198   12.8775   12.2268 C.2       1 RES1    0.0000
     19 C8         6.9692   10.8267   10.9248 C.2       1 RES1    0.0000
     20 C9         9.7650   14.0283    8.0155 C.ar      1 RES1    0.0000
     21 H4        10.2793   13.7639    8.7439 H         1 RES1    0.0000
     22 C10        9.6684   14.9320    5.7884 C.ar      1 RES1    0.0000
     23 C11        8.3071   14.8271    5.8078 C.ar      1 RES1    0.0000
     24 H5         7.8074   15.0961    5.0708 H         1 RES1    0.0000
     25 C12        4.4275   10.6630   13.8566 C.ar      1 RES1    0.0000
     26 H6         4.1178    9.7893   13.7771 H         1 RES1    0.0000
     27 C13        5.8740   12.4435   13.1346 C.ar      1 RES1    0.0000
     28 C14        3.9218   11.4856   14.8525 C.ar      1 RES1    0.0000
     29 H7         3.2674   11.1663   15.4315 H         1 RES1    0.0000
     30 C15        7.6673   14.3143    6.9380 C.ar      1 RES1    0.0000
     31 C16        8.7528   15.5415   10.9441 C.3       1 RES1    0.0000
     32 H8         7.9824   15.7199   10.3994 H         1 RES1    0.0000
     33 H9         9.5479   15.6367   10.4144 H         1 RES1    0.0000
     34 H10        8.7791   16.1630   11.6757 H         1 RES1    0.0000
     35 C17        9.7138   15.8706    3.6022 C.3       1 RES1    0.0000
     36 H11       10.3418   16.1841    2.9479 H         1 RES1    0.0000
     37 H12        9.1235   16.5864    3.8493 H         1 RES1    0.0000
     38 H13        9.2023   15.1460    3.2337 H         1 RES1    0.0000
     39 C18        4.3855   12.7668   14.9803 C.ar      1 RES1    0.0000
     40 H14        4.0360   13.3157   15.6453 H         1 RES1    0.0000
     41 C19        8.6724   14.1325   11.4823 C.3       1 RES1    0.0000
     42 C20        9.8496   13.7677   12.3514 C.3       1 RES1    0.0000
     43 H15        9.7496   12.8648   12.6630 H         1 RES1    0.0000
     44 H16        9.8894   14.3626   13.1024 H         1 RES1    0.0000
     45 H17       10.6594   13.8417   11.8411 H         1 RES1    0.0000
     46 C21        5.3679   13.2573   14.1348 C.ar      1 RES1    0.0000
     47 H18        5.6850   14.1258   14.2380 H         1 RES1    0.0000
@<TRIPOS>BOND
     1    1   19 2
     2    2   18 1
     3    3   22 1
     4    4    5 1
     5    6    9 2
     6    7   14 2
     7    8   10 1
     8    9   15 2
     9   10    4 1
    10   11   10 1
    11   12    4 1
    12   13   14 1
    13   14   19 1
    14   16   17 1
    15   18    8 2
    16   19    8 1
    17   20   12 ar
    18   21   20 1
    19   22   16 ar
    20   23   22 ar
    21   24   23 1
    22   25   13 ar
    23   26   25 1
    24   27   13 ar
    25   28   25 ar
    26   29   28 1
    27   30    9 1
    28   31   32 1
    29   33   31 1
    30   34   31 1
    31   35    3 1
    32   36   35 1
    33   37   35 1
    34   38   35 1
    35   39   28 ar
    36   40   39 1
    37   41    2 1
    38   42   41 1
    39   43   42 1
    40   44   42 1
    41   45   42 1
    42   46   27 ar
    43   47   46 1
    44   10   41 1
    45   12   30 ar
    46   16   20 ar
    47   18   27 1
    48   23   30 ar
    49   31   41 1
    50   39   46 ar
@<TRIPOS>SUBSTRUCTURE
     1 RES1 1

@<TRIPOS>CRYSIN
   8.0284   11.4548   12.1526  62.4990  76.7330  69.5360   2 1

