# MOL2 file generated by ConQuest
# Please check atom types

@<TRIPOS>MOLECULE
QADNIU
    46    49     1
SMALL
NO_CHARGES
****
Generated from CSD

@<TRIPOS>ATOM
      1 O1         3.8177    3.1457    2.0638 O.3       1 RES1    0.0000
      2 O2         4.8163    8.3445    1.2400 O.2       1 RES1    0.0000
      3 O3        11.3696   -0.1056    1.2836 O.2       1 RES1    0.0000
      4 O4         6.7408    6.4875    0.8016 O.2       1 RES1    0.0000
      5 C1         6.1414    3.5350    1.5833 C.3       1 RES1    0.0000
      6 H1         6.7049    3.4850    0.7832 H         1 RES1    0.0000
      7 C2         2.9911    5.4069    2.2661 C.ar      1 RES1    0.0000
      8 C3        10.4065    1.2474    3.4164 C.ar      1 RES1    0.0000
      9 H2        11.1731    0.7406    3.5567 H         1 RES1    0.0000
     10 C4         5.0289    2.4457    1.5427 C.3       1 RES1    0.0000
     11 C5         4.0480    4.4559    1.9465 C.2       1 RES1    0.0000
     12 O5        10.3176    1.1639   -0.0782 O.2       1 RES1    0.0000
     13 C6         9.8795    1.4050    2.1749 C.ar      1 RES1    0.0000
     14 N1         6.9533    3.5386    2.7788 N.pl3     1 RES1    0.0000
     15 H3         6.7177    4.0641    3.4172 H         1 RES1    0.0000
     16 C7         5.3039    4.7832    1.5641 C.2       1 RES1    0.0000
     17 C8         5.6703    6.1223    1.2683 C.2       1 RES1    0.0000
     18 C9         8.0798    2.7614    2.9758 C.ar      1 RES1    0.0000
     19 C10        8.5904    2.6071    4.2824 C.ar      1 RES1    0.0000
     20 C11        7.8692    3.1967    5.4465 C.3       1 RES1    0.0000
     21 H4         7.0951    3.6721    5.1361 H         1 RES1    0.0000
     22 H5         8.4517    3.8028    5.9109 H         1 RES1    0.0000
     23 H6         7.5960    2.4959    6.0427 H         1 RES1    0.0000
     24 N2        10.5567    0.7746    1.0484 N.pl3     1 RES1    0.0000
     25 C12        9.7485    1.8768    4.4702 C.ar      1 RES1    0.0000
     26 H7        10.0998    1.8040    5.3277 H         1 RES1    0.0000
     27 C13        2.3283    7.7085    2.4661 C.ar      1 RES1    0.0000
     28 H8         2.5074    8.6151    2.3558 H         1 RES1    0.0000
     29 C14        8.7379    2.1392    1.9082 C.ar      1 RES1    0.0000
     30 H9         8.4145    2.2166    1.0399 H         1 RES1    0.0000
     31 C15        4.5815    7.1940    1.5281 C.2       1 RES1    0.0000
     32 C16        5.2464    1.2508    2.4439 C.3       1 RES1    0.0000
     33 H10        5.4361    1.5529    3.3360 H         1 RES1    0.0000
     34 H11        5.9865    0.7329    2.1174 H         1 RES1    0.0000
     35 H12        4.4550    0.7073    2.4516 H         1 RES1    0.0000
     36 C17        1.7571    5.0051    2.7604 C.ar      1 RES1    0.0000
     37 H13        1.5607    4.1000    2.8516 H         1 RES1    0.0000
     38 C18        4.7179    2.0615    0.1196 C.3       1 RES1    0.0000
     39 H14        4.5873    2.8546   -0.4046 H         1 RES1    0.0000
     40 H15        3.9194    1.5298    0.0996 H         1 RES1    0.0000
     41 H16        5.4491    1.5554   -0.2422 H         1 RES1    0.0000
     42 C19        3.2782    6.7642    2.1021 C.ar      1 RES1    0.0000
     43 C20        1.1144    7.3026    2.9926 C.ar      1 RES1    0.0000
     44 H17        0.4944    7.9386    3.2662 H         1 RES1    0.0000
     45 C21        0.8194    5.9634    3.1160 C.ar      1 RES1    0.0000
     46 H18       -0.0125    5.7016    3.4386 H         1 RES1    0.0000
@<TRIPOS>BOND
     1    1   10 1
     2    2   31 2
     3    3   24 2
     4    4   17 2
     5    5    6 1
     6    7   11 1
     7    8    9 1
     8   10    5 1
     9   11    1 1
    10   12   24 2
    11   13    8 ar
    12   14    5 1
    13   15   14 1
    14   16    5 1
    15   17   16 1
    16   18   14 1
    17   19   18 ar
    18   20   19 1
    19   21   20 1
    20   22   20 1
    21   23   20 1
    22   24   13 1
    23   25    8 ar
    24   26   25 1
    25   27   28 1
    26   29   13 ar
    27   30   29 1
    28   31   17 1
    29   32   10 1
    30   33   32 1
    31   34   32 1
    32   35   32 1
    33   36    7 ar
    34   37   36 1
    35   38   10 1
    36   39   38 1
    37   40   38 1
    38   41   38 1
    39   42    7 ar
    40   43   27 ar
    41   44   43 1
    42   45   36 ar
    43   46   45 1
    44   11   16 2
    45   18   29 ar
    46   19   25 ar
    47   27   42 ar
    48   31   42 1
    49   43   45 ar
@<TRIPOS>SUBSTRUCTURE
     1 RES1 1

@<TRIPOS>CRYSIN
   9.2660   25.6250    7.6640  90.0000  90.6090  90.0000  14 1

