# MOL2 file generated by ConQuest
# Please check atom types

@<TRIPOS>MOLECULE
QADRUJ
   102   106     2
SMALL
NO_CHARGES
****
Generated from CSD

@<TRIPOS>ATOM
      1 C1         2.2783    3.0639    8.9520 C.3       1 RES1    0.0000
      2 C2         1.1689    3.3785    9.9636 C.3       1 RES1    0.0000
      3 C3         0.1464    2.2877    9.9924 C.2       1 RES1    0.0000
      4 C4         0.3726    1.1062    9.4523 C.2       1 RES1    0.0000
      5 C5         1.6646    0.7685    8.7791 C.3       1 RES1    0.0000
      6 C6         1.7795    3.4055    7.5347 C.3       1 RES1    0.0000
      7 C7         3.4942    3.9516    9.1946 C.2       1 RES1    0.0000
      8 C8         5.8569    4.0386    8.9307 C.ar      1 RES1    0.0000
      9 C9         6.6152    4.0370   10.0952 C.ar      1 RES1    0.0000
     10 C10        7.8930    4.5947   10.0000 C.ar      1 RES1    0.0000
     11 C11        8.3595    5.1247    8.8176 C.ar      1 RES1    0.0000
     12 C12        7.5616    5.1378    7.6941 C.ar      1 RES1    0.0000
     13 C13        6.2801    4.5893    7.7210 C.ar      1 RES1    0.0000
     14 C14        6.0833    3.4901   11.3915 C.3       1 RES1    0.0000
     15 C15        5.3914    4.5886    6.5061 C.3       1 RES1    0.0000
     16 C16        1.1217    4.1893   12.1867 C.2       1 RES1    0.0000
     17 C17        1.8419    4.2478   13.5061 C.ar      1 RES1    0.0000
     18 C18        3.0839    3.6362   13.6855 C.ar      1 RES1    0.0000
     19 C19        3.7214    3.7116   14.9106 C.ar      1 RES1    0.0000
     20 C20        3.0692    4.3832   15.9308 C.ar      1 RES1    0.0000
     21 C21        1.8380    4.9878   15.8027 C.ar      1 RES1    0.0000
     22 C22        1.2256    4.9209   14.5595 C.ar      1 RES1    0.0000
     23 N1         3.7355    4.4201   17.2532 N.pl3     1 RES1    0.0000
     24 O1         2.6902    1.7100    9.0764 O.3       1 RES1    0.0000
     25 O2         3.4142    5.1124    9.5110 O.2       1 RES1    0.0000
     26 O3         4.6408    3.3101    8.9218 O.3       1 RES1    0.0000
     27 O4         1.8022    3.4709   11.2835 O.3       1 RES1    0.0000
     28 O5         0.0816    4.7293   11.9748 O.2       1 RES1    0.0000
     29 O6         4.8637    3.9455   17.3362 O.2       1 RES1    0.0000
     30 O7         3.1398    4.9263   18.1826 O.2       1 RES1    0.0000
     31 C23        2.1582    1.6608    2.6560 C.3       2 RES2    0.0000
     32 C24        3.2305    1.9800    1.6004 C.3       2 RES2    0.0000
     33 C25        4.2965    0.9162    1.6077 C.2       2 RES2    0.0000
     34 C26        4.1279   -0.2339    2.2353 C.2       2 RES2    0.0000
     35 C27        2.8692   -0.5892    2.9584 C.3       2 RES2    0.0000
     36 C28        2.6732    2.1085    4.0444 C.3       2 RES2    0.0000
     37 C29        0.8956    2.4901    2.4117 C.2       2 RES2    0.0000
     38 C30       -1.4571    2.4839    2.7361 C.ar      2 RES2    0.0000
     39 C31       -2.2157    2.4893    1.5632 C.ar      2 RES2    0.0000
     40 C32       -3.5096    3.0032    1.6629 C.ar      2 RES2    0.0000
     41 C33       -4.0030    3.4716    2.8696 C.ar      2 RES2    0.0000
     42 C34       -3.2112    3.4639    3.9991 C.ar      2 RES2    0.0000
     43 C35       -1.9202    2.9662    3.9536 C.ar      2 RES2    0.0000
     44 C36       -1.6659    1.9662    0.2662 C.3       2 RES2    0.0000
     45 C37       -1.0499    2.9485    5.1860 C.3       2 RES2    0.0000
     46 C38        3.2508    2.6731   -0.6576 C.2       2 RES2    0.0000
     47 C39        2.5226    2.7031   -1.9758 C.ar      2 RES2    0.0000
     48 C40        1.2791    2.1131   -2.1266 C.ar      2 RES2    0.0000
     49 C41        0.6254    2.1854   -3.3578 C.ar      2 RES2    0.0000
     50 C42        1.2471    2.8493   -4.3858 C.ar      2 RES2    0.0000
     51 C43        2.4926    3.4455   -4.2679 C.ar      2 RES2    0.0000
     52 C44        3.1337    3.3739   -3.0332 C.ar      2 RES2    0.0000
     53 N2         0.5410    2.9401   -5.6889 N.pl3     2 RES2    0.0000
     54 O8         1.7945    0.2954    2.6206 O.3       2 RES2    0.0000
     55 O9         0.9163    3.6432    2.0717 O.2       2 RES2    0.0000
     56 O10       -0.2172    1.8077    2.7361 O.3       2 RES2    0.0000
     57 O11        2.5692    1.9970    0.2867 O.3       2 RES2    0.0000
     58 O12        4.3158    3.1862   -0.4784 O.2       2 RES2    0.0000
     59 O13       -0.5740    2.4516   -5.7693 O.2       2 RES2    0.0000
     60 O14        1.1116    3.4893   -6.6134 O.2       2 RES2    0.0000
     61 H1         0.7104    4.2301    9.7090 H         1 RES1    0.0000
     62 H2        -0.7341    2.4585   10.4352 H         1 RES1    0.0000
     63 H3        -0.3462    0.4115    9.4945 H         1 RES1    0.0000
     64 H4         1.9607   -0.1369    9.0866 H         1 RES1    0.0000
     65 H5         1.5187    0.7531    7.7898 H         1 RES1    0.0000
     66 H6         2.4988    3.2016    6.8703 H         1 RES1    0.0000
     67 H7         1.5482    4.3770    7.4881 H         1 RES1    0.0000
     68 H8         0.9682    2.8585    7.3254 H         1 RES1    0.0000
     69 H9         8.4816    4.6093   10.8077 H         1 RES1    0.0000
     70 H10        9.2838    5.5032    8.7754 H         1 RES1    0.0000
     71 H11        7.9069    5.5448    6.8491 H         1 RES1    0.0000
     72 H12        6.7804    3.5816   12.1021 H         1 RES1    0.0000
     73 H13        5.2662    4.0016   11.6588 H         1 RES1    0.0000
     74 H14        5.8496    2.5247   11.2745 H         1 RES1    0.0000
     75 H15        5.8698    5.0247    5.7434 H         1 RES1    0.0000
     76 H16        4.5526    5.0940    6.7077 H         1 RES1    0.0000
     77 H17        5.1631    3.6462    6.2621 H         1 RES1    0.0000
     78 H18        3.5115    3.1432   12.9273 H         1 RES1    0.0000
     79 H19        4.6194    3.2955   15.0539 H         1 RES1    0.0000
     80 H20        1.4048    5.4555   16.5723 H         1 RES1    0.0000
     81 H21        0.3363    5.3578   14.4197 H         1 RES1    0.0000
     82 H22        3.6588    2.8616    1.7966 H         2 RES2    0.0000
     83 H23        5.1551    1.0854    1.1246 H         2 RES2    0.0000
     84 H24        4.8772   -0.8969    2.2257 H         2 RES2    0.0000
     85 H25        3.0347   -0.5362    3.9421 H         2 RES2    0.0000
     86 H26        2.6085   -1.5231    2.7137 H         2 RES2    0.0000
     87 H27        1.9823    1.9047    4.7390 H         2 RES2    0.0000
     88 H28        2.8531    3.0924    4.0317 H         2 RES2    0.0000
     89 H29        3.5174    1.6185    4.2604 H         2 RES2    0.0000
     90 H30       -4.0898    3.0332    0.8488 H         2 RES2    0.0000
     91 H31       -4.9394    3.8178    2.9212 H         2 RES2    0.0000
     92 H32       -3.5748    3.8216    4.8592 H         2 RES2    0.0000
     93 H33       -2.3580    2.0570   -0.4503 H         2 RES2    0.0000
     94 H34       -0.8534    2.4916    0.0118 H         2 RES2    0.0000
     95 H35       -1.4201    1.0031    0.3725 H         2 RES2    0.0000
     96 H36       -1.5559    3.3347    5.9579 H         2 RES2    0.0000
     97 H37       -0.2269    3.4932    5.0219 H         2 RES2    0.0000
     98 H38       -0.7894    2.0062    5.3968 H         2 RES2    0.0000
     99 H39        0.8527    1.6377   -1.3580 H         2 RES2    0.0000
    100 H40       -0.2728    1.7647   -3.4870 H         2 RES2    0.0000
    101 H41        2.9174    3.9124   -5.0431 H         2 RES2    0.0000
    102 H42        4.0288    3.8016   -2.9070 H         2 RES2    0.0000
@<TRIPOS>BOND
     1    1    2 1
     2    2    3 1
     3    3    4 2
     4    4    5 1
     5    5   24 1
     6    6    1 1
     7    7    1 1
     8    8    9 ar
     9    9   10 ar
    10   10   11 ar
    11   11   12 ar
    12   12   13 ar
    13   13    8 ar
    14   14    9 1
    15   15   13 1
    16   16   17 1
    17   17   18 ar
    18   18   19 ar
    19   19   20 ar
    20   20   21 ar
    21   21   22 ar
    22   22   17 ar
    23   23   20 1
    24   24    1 1
    25   25    7 2
    26   26    7 1
    27   27    2 1
    28   28   16 2
    29   29   23 2
    30   30   23 2
    31   31   32 1
    32   32   33 1
    33   33   34 2
    34   34   35 1
    35   35   54 1
    36   36   31 1
    37   37   31 1
    38   38   39 ar
    39   39   40 ar
    40   40   41 ar
    41   41   42 ar
    42   42   43 ar
    43   43   38 ar
    44   44   39 1
    45   45   43 1
    46   46   47 1
    47   47   48 ar
    48   48   49 ar
    49   49   50 ar
    50   50   51 ar
    51   51   52 ar
    52   52   47 ar
    53   53   50 1
    54   54   31 1
    55   55   37 2
    56   56   37 1
    57   57   32 1
    58   58   46 2
    59   59   53 2
    60   60   53 2
    61   61    2 1
    62   62    3 1
    63   63    4 1
    64   64    5 1
    65   65    5 1
    66   66    6 1
    67   67    6 1
    68   68    6 1
    69   69   10 1
    70   70   11 1
    71   71   12 1
    72   72   14 1
    73   73   14 1
    74   74   14 1
    75   75   15 1
    76   76   15 1
    77   77   15 1
    78   78   18 1
    79   79   19 1
    80   80   21 1
    81   81   22 1
    82   82   32 1
    83   83   33 1
    84   84   34 1
    85   85   35 1
    86   86   35 1
    87   87   36 1
    88   88   36 1
    89   89   36 1
    90   90   40 1
    91   91   41 1
    92   92   42 1
    93   93   44 1
    94   94   44 1
    95   95   44 1
    96   96   45 1
    97   97   45 1
    98   98   45 1
    99   99   48 1
   100  100   49 1
   101  101   51 1
   102  102   52 1
   103    8   26 1
   104   16   27 1
   105   38   56 1
   106   46   57 1
@<TRIPOS>SUBSTRUCTURE
     1 RES1 1
     2 RES2 31

@<TRIPOS>CRYSIN
  11.1697    7.6925   23.6812  90.0000  95.3763  90.0000   4 1

