# MOL2 file generated by ConQuest
# Please check atom types

@<TRIPOS>MOLECULE
QADVEW
    80    86     2
SMALL
NO_CHARGES
****
Generated from CSD

@<TRIPOS>ATOM
      1 O1         1.4084    4.8882    7.2047 O.3       1 RES1    0.0000
      2 O2        -0.7498    7.9256   10.0637 O.2       1 RES1    0.0000
      3 O3         2.5402    6.1115    5.7414 O.2       1 RES1    0.0000
      4 O4         3.1133    7.4266    8.5326 O.3       1 RES1    0.0000
      5 O5         1.7618    9.1935    8.5483 O.2       1 RES1    0.0000
      6 N1         0.4713    5.1318    8.3009 N.3       1 RES1    0.0000
      7 C1        -0.0208    6.5359    8.1681 C.3       1 RES1    0.0000
      8 C2        -0.0909    6.9891    9.6601 C.2       1 RES1    0.0000
      9 C3         0.7362    6.0500   10.4048 C.ar      1 RES1    0.0000
     10 C4         1.1527    6.0683   11.7405 C.ar      1 RES1    0.0000
     11 C5         2.0074    5.0598   12.1597 C.ar      1 RES1    0.0000
     12 C6         2.4111    4.0761   11.2822 C.ar      1 RES1    0.0000
     13 C7         2.0029    4.0237    9.9699 C.ar      1 RES1    0.0000
     14 C8         1.1384    5.0323    9.5559 C.ar      1 RES1    0.0000
     15 C9         1.8053    6.0827    6.6657 C.2       1 RES1    0.0000
     16 C10        1.0913    7.2249    7.3531 C.3       1 RES1    0.0000
     17 C11        2.0450    8.0775    8.1941 C.2       1 RES1    0.0000
     18 C12        4.0777    8.1430    9.3632 C.3       1 RES1    0.0000
     19 C13        4.9360    7.2013    9.9934 C.3       1 RES1    0.0000
     20 C14       -1.3799    6.6171    7.5041 C.ar      1 RES1    0.0000
     21 C15       -1.8639    7.8601    7.0927 C.ar      1 RES1    0.0000
     22 C16       -3.1052    7.9675    6.4991 C.ar      1 RES1    0.0000
     23 C17       -3.8763    6.8398    6.3064 C.ar      1 RES1    0.0000
     24 C18       -3.4236    5.6177    6.7386 C.ar      1 RES1    0.0000
     25 C19       -2.1730    5.5038    7.3349 C.ar      1 RES1    0.0000
     26 O6         1.4164   11.4791   16.4352 O.3       2 RES2    0.0000
     27 O7        -0.7515    8.4443   13.5814 O.2       2 RES2    0.0000
     28 O8         2.5488   10.2557   17.9037 O.2       2 RES2    0.0000
     29 O9         3.1229    8.9394   15.1176 O.3       2 RES2    0.0000
     30 O10        1.7602    7.1764   15.0942 O.2       2 RES2    0.0000
     31 N2         0.4758   11.2368   15.3468 N.3       2 RES2    0.0000
     32 C20       -0.0166    9.8405   15.4770 C.3       2 RES2    0.0000
     33 C21       -0.0892    9.3834   13.9902 C.2       2 RES2    0.0000
     34 C22        0.7376   10.3173   13.2325 C.ar      2 RES2    0.0000
     35 C23        1.1523   10.2950   11.8993 C.ar      2 RES2    0.0000
     36 C24        2.0003   11.3049   11.4879 C.ar      2 RES2    0.0000
     37 C25        2.4136   12.2990   12.3550 C.ar      2 RES2    0.0000
     38 C26        2.0023   12.3422   13.6751 C.ar      2 RES2    0.0000
     39 C27        1.1392   11.3389   14.0891 C.ar      2 RES2    0.0000
     40 C28        1.8056   10.2898   16.9767 C.2       2 RES2    0.0000
     41 C29        1.0968    9.1437   16.2893 C.3       2 RES2    0.0000
     42 C30        2.0492    8.2963   15.4613 C.2       2 RES2    0.0000
     43 C31        4.0890    8.2085   14.2896 C.3       2 RES2    0.0000
     44 C32        4.9427    9.1765   13.6543 C.3       2 RES2    0.0000
     45 C33       -1.3736    9.7567   16.1487 C.ar      2 RES2    0.0000
     46 C34       -1.8601    8.5098   16.5549 C.ar      2 RES2    0.0000
     47 C35       -3.1032    8.3984   17.1512 C.ar      2 RES2    0.0000
     48 C36       -3.8737    9.5340   17.3413 C.ar      2 RES2    0.0000
     49 C37       -3.4185   10.7574   16.9090 C.ar      2 RES2    0.0000
     50 C38       -2.1709   10.8622   16.3154 C.ar      2 RES2    0.0000
     51 H1         0.8613    6.8110   12.3160 H         1 RES1    0.0000
     52 H2         2.3079    5.0689   13.0971 H         1 RES1    0.0000
     53 H3         2.9277    3.5103   11.5609 H         1 RES1    0.0000
     54 H4         2.2523    3.3007    9.3737 H         1 RES1    0.0000
     55 H5         0.7021    7.7933    6.6918 H         1 RES1    0.0000
     56 H6         4.3530    8.7757    8.8529 H         1 RES1    0.0000
     57 H7         3.7477    8.7495   10.0507 H         1 RES1    0.0000
     58 H8         4.3734    6.4835   10.5714 H         1 RES1    0.0000
     59 H9         5.6927    7.6492   10.6235 H         1 RES1    0.0000
     60 H10        5.4085    6.7062    9.1654 H         1 RES1    0.0000
     61 H11       -1.3107    8.6840    7.2125 H         1 RES1    0.0000
     62 H12       -3.3976    8.9328    6.0929 H         1 RES1    0.0000
     63 H13       -4.7560    6.9550    5.8846 H         1 RES1    0.0000
     64 H14       -3.9348    4.8594    6.6657 H         1 RES1    0.0000
     65 H15       -1.9212    4.6236    7.6552 H         1 RES1    0.0000
     66 H16        0.7777    9.5222   11.3525 H         2 RES2    0.0000
     67 H17        2.3310   11.2774   10.5193 H         2 RES2    0.0000
     68 H18        3.0306   12.9801   12.1597 H         2 RES2    0.0000
     69 H19        2.2499   13.1111   14.2428 H         2 RES2    0.0000
     70 H20        0.6780    8.4875   17.0028 H         2 RES2    0.0000
     71 H21        3.7104    7.8326   13.4356 H         2 RES2    0.0000
     72 H22        4.4048    7.5575   14.7375 H         2 RES2    0.0000
     73 H23        4.3893    9.9283   13.0971 H         2 RES2    0.0000
     74 H24        5.6694    8.7102   12.9929 H         2 RES2    0.0000
     75 H25        5.4601    9.6532   14.4771 H         2 RES2    0.0000
     76 H26       -1.2669    7.6885   16.4820 H         2 RES2    0.0000
     77 H27       -3.4016    7.4921   17.5496 H         2 RES2    0.0000
     78 H28       -4.7989    9.3258   17.7058 H         2 RES2    0.0000
     79 H29       -3.9148   11.4477   17.1590 H         2 RES2    0.0000
     80 H30       -1.8437   11.6834   16.0133 H         2 RES2    0.0000
@<TRIPOS>BOND
     1    1    6 1
     2    2    8 2
     3    3   15 2
     4    4   17 1
     5    5   17 2
     6    6    7 1
     7    7    8 1
     8    8    9 1
     9    9   10 ar
    10   10   11 ar
    11   11   12 ar
    12   12   13 ar
    13   13   14 ar
    14   14    6 1
    15   15    1 1
    16   16    7 1
    17   17   16 1
    18   18    4 1
    19   19   18 1
    20   20    7 1
    21   21   20 ar
    22   22   21 ar
    23   23   22 ar
    24   24   23 ar
    25   25   20 ar
    26   26   31 1
    27   27   33 2
    28   28   40 2
    29   29   42 1
    30   30   42 2
    31   31   32 1
    32   32   33 1
    33   33   34 1
    34   34   35 ar
    35   35   36 ar
    36   36   37 ar
    37   37   38 ar
    38   38   39 ar
    39   39   31 1
    40   40   26 1
    41   41   32 1
    42   42   41 1
    43   43   29 1
    44   44   43 1
    45   45   32 1
    46   46   45 ar
    47   47   46 ar
    48   48   47 ar
    49   49   48 ar
    50   50   45 ar
    51   51   10 1
    52   52   11 1
    53   53   12 1
    54   54   13 1
    55   55   16 1
    56   56   18 1
    57   57   18 1
    58   58   19 1
    59   59   19 1
    60   60   19 1
    61   61   21 1
    62   62   22 1
    63   63   23 1
    64   64   24 1
    65   65   25 1
    66   66   35 1
    67   67   36 1
    68   68   37 1
    69   69   38 1
    70   70   41 1
    71   71   43 1
    72   72   43 1
    73   73   44 1
    74   74   44 1
    75   75   44 1
    76   76   46 1
    77   77   47 1
    78   78   48 1
    79   79   49 1
    80   80   50 1
    81    9   14 ar
    82   15   16 1
    83   24   25 ar
    84   34   39 ar
    85   40   41 1
    86   49   50 ar
@<TRIPOS>SUBSTRUCTURE
     1 RES1 1
     2 RES2 26

@<TRIPOS>CRYSIN
   9.7720   13.0980   26.4900  90.0000 100.6000  90.0000   9 1

