# MOL2 file generated by ConQuest
# Please check atom types

@<TRIPOS>MOLECULE
QADVEW01
    40    43     1
SMALL
NO_CHARGES
****
Generated from CSD

@<TRIPOS>ATOM
      1 N1        10.0455   22.5151    0.4676 N.3       1 RES1    0.0000
      2 O1         9.8025   21.4230    1.4064 O.3       1 RES1    0.0000
      3 O2        12.8387   24.2789   -0.7566 O.2       1 RES1    0.0000
      4 O3        11.0259   19.9566    2.5386 O.2       1 RES1    0.0000
      5 O4        12.3416   22.7452    3.1122 O.3       1 RES1    0.0000
      6 O5        14.1065   22.7650    1.7551 O.2       1 RES1    0.0000
      7 C1        11.4457   22.3833   -0.0246 C.3       1 RES1    0.0000
      8 C2        11.9008   23.8732   -0.0960 C.2       1 RES1    0.0000
      9 C3        10.9643   24.6241    0.7309 C.ar      1 RES1    0.0000
     10 C4        10.9846   25.9588    1.1465 C.ar      1 RES1    0.0000
     11 C5         9.9754   26.3739    1.9979 C.ar      1 RES1    0.0000
     12 C6         8.9865   25.5016    2.4064 C.ar      1 RES1    0.0000
     13 C7         8.9387   24.1851    1.9967 C.ar      1 RES1    0.0000
     14 C8         9.9447   23.7717    1.1328 C.ar      1 RES1    0.0000
     15 C9        10.9945   20.8825    1.7995 C.2       1 RES1    0.0000
     16 C10       12.1386   21.5699    1.0881 C.3       1 RES1    0.0000
     17 C11       12.9886   22.4041    2.0412 C.2       1 RES1    0.0000
     18 C12       13.0653   23.5748    4.0774 C.3       1 RES1    0.0000
     19 C13       12.1104   24.2075    4.9334 C.3       1 RES1    0.0000
     20 C14       11.5282   21.7157   -1.3827 C.ar      1 RES1    0.0000
     21 C15       12.7732   21.3069   -1.8679 C.ar      1 RES1    0.0000
     22 C16       12.8825   20.7122   -3.1102 C.ar      1 RES1    0.0000
     23 C17       11.7509   20.5205   -3.8809 C.ar      1 RES1    0.0000
     24 C18       10.5282   20.9528   -3.4270 C.ar      1 RES1    0.0000
     25 C19       10.4188   21.5475   -2.1779 C.ar      1 RES1    0.0000
     26 H1        11.7424   26.5197    0.8135 H         1 RES1    0.0000
     27 H2         9.9938   27.3269    2.3135 H         1 RES1    0.0000
     28 H3         8.3631   25.7386    2.9731 H         1 RES1    0.0000
     29 H4         8.1928   23.6034    2.2451 H         1 RES1    0.0000
     30 H5        12.7509   20.8825    0.6840 H         1 RES1    0.0000
     31 H6        13.7071   23.0957    4.3730 H         1 RES1    0.0000
     32 H7        13.5564   24.3455    3.7231 H         1 RES1    0.0000
     33 H8        11.3756   24.7752    4.3754 H         1 RES1    0.0000
     34 H9        12.5675   24.8533    5.6751 H         1 RES1    0.0000
     35 H10       11.6245   23.3821    5.4283 H         1 RES1    0.0000
     36 H11       13.5957   21.4032   -1.2948 H         1 RES1    0.0000
     37 H12       13.8184   20.3096   -3.4055 H         1 RES1    0.0000
     38 H13       11.9126   20.1274   -4.7834 H         1 RES1    0.0000
     39 H14        9.8039   20.7913   -3.9308 H         1 RES1    0.0000
     40 H15        9.5681   21.8589   -1.8884 H         1 RES1    0.0000
@<TRIPOS>BOND
     1    1    2 1
     2    2   15 1
     3    3    8 2
     4    4   15 2
     5    5   17 1
     6    6   17 2
     7    7    1 1
     8    8    7 1
     9    9    8 1
    10   10    9 ar
    11   11   10 ar
    12   12   11 ar
    13   13   12 ar
    14   14    1 1
    15   15   16 1
    16   16    7 1
    17   17   16 1
    18   18    5 1
    19   19   18 1
    20   20    7 1
    21   21   20 ar
    22   22   21 ar
    23   23   22 ar
    24   24   23 ar
    25   25   20 ar
    26   26   10 1
    27   27   11 1
    28   28   12 1
    29   29   13 1
    30   30   16 1
    31   31   18 1
    32   32   18 1
    33   33   19 1
    34   34   19 1
    35   35   19 1
    36   36   21 1
    37   37   22 1
    38   38   23 1
    39   39   24 1
    40   40   25 1
    41    9   14 ar
    42   13   14 ar
    43   24   25 ar
@<TRIPOS>SUBSTRUCTURE
     1 RES1 1

@<TRIPOS>CRYSIN
  13.0980   52.0760    9.7720  90.0000  90.0000  90.0000  43 1

