# MOL2 file generated by ConQuest
# Please check atom types

@<TRIPOS>MOLECULE
QAFQUM
    49    48     2
SMALL
USER_CHARGES
****
Generated from CSD

@<TRIPOS>ATOM
      1 N1         3.4126    4.2115    8.7055 N.pl3     1 RES1    1.0000
      2 O1         2.8739    5.3076    8.7023 O.2       1 RES1   -1.0000
      3 O2         2.8093    3.1338    7.9333 O.3       1 RES1    0.0000
      4 N2         3.5863    2.0122    8.0792 N.2       1 RES1    0.0000
      5 C1         4.5734    2.3930    8.9093 C.2       1 RES1    0.0000
      6 N3         7.7319    1.3158   10.5908 N.pl3     1 RES1    0.0000
      7 C2         5.6402    1.5081    9.3327 C.2       1 RES1    0.0000
      8 O3         3.6456   -0.2245    9.9643 O.3       1 RES1    0.0000
      9 C3         6.5783    2.0988   10.1294 C.2       1 RES1    0.0000
     10 C4         6.5396    3.4729   10.5677 C.2       1 RES1    0.0000
     11 O4         5.5779   -3.6808    7.1585 O.3       1 RES1    0.0000
     12 C5         7.3612    4.2237   11.3894 C.2       1 RES1    0.0000
     13 H1         8.1652    3.9288   11.8003 H         1 RES1    0.0000
     14 O5         8.8248    1.8652   10.5584 O.2       1 RES1    0.0000
     15 O6         7.5411    0.1773   11.0007 O.2       1 RES1    0.0000
     16 O7         7.7410    0.4857    7.8611 O.3       1 RES1    0.0000
     17 N4         6.8069    5.4655   11.5036 N.3       1 RES1    0.0000
     18 C6         5.6540    5.5516   10.7743 C.2       1 RES1    0.0000
     19 H2         5.0950    6.3144   10.6927 H         1 RES1    0.0000
     20 C7         5.4545    4.3235   10.1809 C.2       1 RES1    0.0000
     21 C8         4.4814    3.7489    9.3130 C.2       1 RES1    0.0000
     22 C9         7.3689    6.5431   12.3197 C.3       1 RES1    0.0000
     23 H3         7.2120    7.4037   11.8764 H         1 RES1    0.0000
     24 H4         8.3322    6.4018   12.4290 H         1 RES1    0.0000
     25 H5         6.9376    6.5456   13.2001 H         1 RES1    0.0000
     26 C10        5.6492    0.1115    8.8351 C.ar      1 RES1    0.0000
     27 C11        4.5690   -0.7287    9.0910 C.ar      1 RES1    0.0000
     28 C12        4.4759   -2.0063    8.5309 C.ar      1 RES1    0.0000
     29 H6         3.7180   -2.5569    8.6888 H         1 RES1    0.0000
     30 C13        5.5313   -2.4468    7.7337 C.ar      1 RES1    0.0000
     31 C14        6.6469   -1.6494    7.4837 C.ar      1 RES1    0.0000
     32 H7         7.3588   -1.9712    6.9427 H         1 RES1    0.0000
     33 C15        6.7012   -0.3769    8.0358 C.ar      1 RES1    0.0000
     34 C16        2.4438   -0.9661   10.1814 C.3       1 RES1    0.0000
     35 H8         1.8737   -0.4847   10.8180 H         1 RES1    0.0000
     36 H9         2.6658   -1.8496   10.5454 H         1 RES1    0.0000
     37 H10        1.9677   -1.0721    9.3322 H         1 RES1    0.0000
     38 C17        4.4405   -4.5357    7.3292 C.3       1 RES1    0.0000
     39 H11        4.6100   -5.3965    6.8911 H         1 RES1    0.0000
     40 H12        3.6526   -4.1137    6.9279 H         1 RES1    0.0000
     41 H13        4.2819   -4.6823    8.2860 H         1 RES1    0.0000
     42 C18        8.8091    0.0694    7.0004 C.3       1 RES1    0.0000
     43 H14        9.5136    0.7501    7.0016 H         1 RES1    0.0000
     44 H15        8.4681   -0.0480    6.0880 H         1 RES1    0.0000
     45 H16        9.1763   -0.7792    7.3233 H         1 RES1    0.0000
     46 N5         3.4059    4.5042    8.9540 Du        2 SUP2    0.0000
     47 O8         3.1340    1.4848    7.4952 Du        2 SUP2    0.0000
     48 O9         2.7791    3.5811    8.1583 Du        2 SUP2    0.0000
     49 N6         3.5384    2.3754    8.2025 Du        2 SUP2    0.0000
@<TRIPOS>BOND
     1    1    2 1
     2    3    1 1
     3    4    3 1
     4    5    4 2
     5    6    9 1
     6    7    5 1
     7    8   27 1
     8    9    7 2
     9   10    9 1
    10   11   30 1
    11   12   10 2
    12   13   12 1
    13   14    6 2
    14   15    6 2
    15   16   33 1
    16   17   12 1
    17   18   17 1
    18   19   18 1
    19   20   10 1
    20   21    1 2
    21   22   17 1
    22   23   22 1
    23   24   22 1
    24   25   22 1
    25   26    7 1
    26   27   26 ar
    27   28   27 ar
    28   29   28 1
    29   30   28 ar
    30   31   30 ar
    31   32   31 1
    32   33   26 ar
    33   34    8 1
    34   35   34 1
    35   36   34 1
    36   37   34 1
    37   38   11 1
    38   39   38 1
    39   40   38 1
    40   41   38 1
    41   42   16 1
    42   43   42 1
    43   44   42 1
    44   45   42 1
    45    5   21 1
    46   18   20 2
    47   20   21 1
    48   31   33 ar
@<TRIPOS>SUBSTRUCTURE
     1 RES1 1
     2 SUP2 46

@<TRIPOS>CRYSIN
   8.3909   17.1262   24.5584  90.0000  90.0000  90.0000  61 1

