# MOL2 file generated by ConQuest
# Please check atom types

@<TRIPOS>MOLECULE
QAGBAB
    39    37     3
SMALL
NO_CHARGES
****
Generated from CSD

@<TRIPOS>ATOM
      1 O1        10.1094    5.4650   12.5013 O.3       1 RES1    0.0000
      2 O2        10.1104    4.0262   10.3462 O.2       1 RES1    0.0000
      3 O3        11.1757    2.1615   10.2493 O.2       1 RES1    0.0000
      4 O4        13.3525    0.3874   14.1272 O.2       1 RES1    0.0000
      5 O5        13.5984    1.6262   15.8692 O.2       1 RES1    0.0000
      6 N1        10.7649    5.6337   15.0175 N.3       1 RES1    0.0000
      7 N2        10.8072    3.1386   10.8620 N.pl3     1 RES1    0.0000
      8 N3        13.1370    1.4031   14.7612 N.pl3     1 RES1    0.0000
      9 C1        11.1895    4.5507   14.3167 C.ar      1 RES1    0.0000
     10 C2        10.8099    4.4206   12.9631 C.ar      1 RES1    0.0000
     11 C3        11.1807    3.2810   12.2570 C.ar      1 RES1    0.0000
     12 C4        11.9289    2.2624   12.8350 C.ar      1 RES1    0.0000
     13 C5        12.2987    2.4340   14.1365 C.ar      1 RES1    0.0000
     14 C6        11.9545    3.5448   14.8894 C.ar      1 RES1    0.0000
     15 O6         9.1417    0.8283    8.5577 O.3       2 RES2    0.0000
     16 O7         9.7364    3.1280    7.4634 O.2       2 RES2    0.0000
     17 O8         8.8506    3.7118    5.5985 O.2       2 RES2    0.0000
     18 O9         6.5350    0.5322    2.8871 O.2       2 RES2    0.0000
     19 O10        5.6765   -1.1889    3.8605 O.2       2 RES2    0.0000
     20 N4         7.9956   -1.5168    8.2416 N.3       2 RES2    0.0000
     21 N5         9.0427    2.8889    6.4796 N.pl3     2 RES2    0.0000
     22 N6         6.4020   -0.2049    3.8498 N.pl3     2 RES2    0.0000
     23 C7         7.8882   -0.6019    7.2325 C.ar      2 RES2    0.0000
     24 C8         8.5113    0.6586    7.3913 C.ar      2 RES2    0.0000
     25 C9         8.4190    1.5864    6.3568 C.ar      2 RES2    0.0000
     26 C10        7.7273    1.3243    5.1821 C.ar      2 RES2    0.0000
     27 C11        7.1488    0.0977    5.0699 C.ar      2 RES2    0.0000
     28 C12        7.2070   -0.8670    6.0604 C.ar      2 RES2    0.0000
     29 O11       12.3133    3.7397   15.9920 Du        3 SUP3    0.0000
     30 H1         9.9861    5.1701   11.6803 H         1 RES1    0.0000
     31 H2        11.1582    5.8586   15.7384 H         1 RES1    0.0000
     32 H3        10.4494    6.2336   14.5904 H         1 RES1    0.0000
     33 H4        12.1492    1.5715   12.4012 H         1 RES1    0.0000
     34 H5        12.1351    3.5918   15.8519 Du        3 SUP3    0.0000
     35 H6         9.4685    1.5743    8.5700 H         2 RES2    0.0000
     36 H7         7.5265   -2.3055    8.1695 H         2 RES2    0.0000
     37 H8         8.3001   -1.2010    8.8770 H         2 RES2    0.0000
     38 H9         7.6652    1.9289    4.5520 H         2 RES2    0.0000
     39 H10        6.8172   -1.7507    6.0337 H         2 RES2    0.0000
@<TRIPOS>BOND
     1    1   10 1
     2    2    7 2
     3    3    7 2
     4    4    8 2
     5    5    8 2
     6    6    9 1
     7    7   11 1
     8    8   13 1
     9    9   10 ar
    10   10   11 ar
    11   11   12 ar
    12   12   13 ar
    13   13   14 ar
    14   14    9 ar
    15   15   24 1
    16   16   21 2
    17   17   21 2
    18   18   22 2
    19   19   22 2
    20   20   23 1
    21   21   25 1
    22   22   27 1
    23   23   24 ar
    24   24   25 ar
    25   25   26 ar
    26   26   27 ar
    27   27   28 ar
    28   28   23 ar
    29   30    1 1
    30   31    6 1
    31   32    6 1
    32   33   12 1
    33   35   15 1
    34   36   20 1
    35   37   20 1
    36   38   26 1
    37   39   28 1
@<TRIPOS>SUBSTRUCTURE
     1 RES1 1
     2 RES2 15
     3 SUP3 29

@<TRIPOS>CRYSIN
   7.8900    8.1740   13.8860  83.9400  74.0200  65.7600   2 1

