# MOL2 file generated by ConQuest
# Please check atom types

@<TRIPOS>MOLECULE
QAGMUJ
    43    46     1
SMALL
NO_CHARGES
****
Generated from CSD

@<TRIPOS>ATOM
      1 O1         5.1879    7.6978   10.4477 O.2       1 RES1    0.0000
      2 O2         5.4290    9.8116   10.7240 O.2       1 RES1    0.0000
      3 O3         2.3331   10.9333    4.7564 O.3       1 RES1    0.0000
      4 O4         1.5016   13.7192    5.4180 O.3       1 RES1    0.0000
      5 O5        -0.3095   13.6793    6.8995 O.3       1 RES1    0.0000
      6 O6         2.6809    8.8078    4.1056 O.2       1 RES1    0.0000
      7 N1         5.1114    8.8503   10.0552 N.pl3     1 RES1    0.0000
      8 C1         4.5732    9.0836    8.7028 C.ar      1 RES1    0.0000
      9 C2         4.3364   10.3824    8.3026 C.ar      1 RES1    0.0000
     10 C3         3.7599   10.5889    7.0579 C.ar      1 RES1    0.0000
     11 C4         3.4475    9.5095    6.2400 C.ar      1 RES1    0.0000
     12 C5         2.7908    9.6919    4.9135 C.2       1 RES1    0.0000
     13 C6         1.5997   11.2395    3.5164 C.3       1 RES1    0.0000
     14 C7         0.5247   12.2680    3.8606 C.3       1 RES1    0.0000
     15 C8         1.0448   13.6875    4.0481 C.3       1 RES1    0.0000
     16 C9         0.6301   12.9039    6.1876 C.3       1 RES1    0.0000
     17 C10       -1.5003   13.7827    6.1197 C.3       1 RES1    0.0000
     18 C11       -1.5992   12.4865    5.3543 C.3       1 RES1    0.0000
     19 C12       -0.1400   11.9982    5.2151 C.3       1 RES1    0.0000
     20 C13        2.1659   14.1317    3.1344 C.3       1 RES1    0.0000
     21 C14        3.2286   13.0592    2.9560 C.3       1 RES1    0.0000
     22 C15        2.5984   11.7522    2.5005 C.3       1 RES1    0.0000
     23 C16        3.7333    8.2143    6.6619 C.ar      1 RES1    0.0000
     24 C17        4.2978    7.9941    7.9045 C.ar      1 RES1    0.0000
     25 H1         4.5568   11.0996    8.8525 H         1 RES1    0.0000
     26 H2         3.5819   11.4553    6.7690 H         1 RES1    0.0000
     27 H3         1.1761   10.4236    3.1763 H         1 RES1    0.0000
     28 H4        -0.1600   12.2654    3.1596 H         1 RES1    0.0000
     29 H5         0.2961   14.3122    3.9522 H         1 RES1    0.0000
     30 H6         1.1510   12.3567    6.8110 H         1 RES1    0.0000
     31 H7        -0.0568   11.0549    5.4684 H         1 RES1    0.0000
     32 H8         3.5433    7.4941    6.1057 H         1 RES1    0.0000
     33 H9         4.4879    7.1309    8.1948 H         1 RES1    0.0000
     34 H10       -1.4459   14.5356    5.5110 H         1 RES1    0.0000
     35 H11       -2.2739   13.9006    6.6927 H         1 RES1    0.0000
     36 H12       -1.9978   12.6323    4.4819 H         1 RES1    0.0000
     37 H13       -2.1339   11.8390    5.8399 H         1 RES1    0.0000
     38 H14        2.5782   14.9286    3.5024 H         1 RES1    0.0000
     39 H15        1.7968   14.3606    2.2675 H         1 RES1    0.0000
     40 H16        3.6938   12.9191    3.7955 H         1 RES1    0.0000
     41 H17        3.8773   13.3530    2.2976 H         1 RES1    0.0000
     42 H18        2.1511   11.8892    1.6511 H         1 RES1    0.0000
     43 H19        3.2933   11.0884    2.3697 H         1 RES1    0.0000
@<TRIPOS>BOND
     1    1    7 2
     2    2    7 2
     3    3   12 1
     4    4   15 1
     5    5   16 1
     6    6   12 2
     7    7    8 1
     8    8    9 ar
     9    9   10 ar
    10   10   11 ar
    11   11   12 1
    12   13    3 1
    13   14   13 1
    14   15   14 1
    15   16    4 1
    16   17    5 1
    17   18   17 1
    18   19   14 1
    19   20   15 1
    20   21   20 1
    21   22   13 1
    22   23   11 ar
    23   24    8 ar
    24   25    9 1
    25   26   10 1
    26   27   13 1
    27   28   14 1
    28   29   15 1
    29   30   16 1
    30   31   19 1
    31   32   23 1
    32   33   24 1
    33   34   17 1
    34   35   17 1
    35   36   18 1
    36   37   18 1
    37   38   20 1
    38   39   20 1
    39   40   21 1
    40   41   21 1
    41   42   22 1
    42   43   22 1
    43   16   19 1
    44   18   19 1
    45   21   22 1
    46   23   24 ar
@<TRIPOS>SUBSTRUCTURE
     1 RES1 1

@<TRIPOS>CRYSIN
  11.9797   18.6235    8.4983  90.0000 124.5870  90.0000   9 1

