# MOL2 file generated by ConQuest
# Please check atom types

@<TRIPOS>MOLECULE
QAHJER
    68    70     2
SMALL
NO_CHARGES
****
Generated from CSD

@<TRIPOS>ATOM
      1 O1         0.9704    4.0397    7.7231 O.2       1 RES1    0.0000
      2 O2        -0.4294    4.7949    9.3286 O.3       1 RES1    0.0000
      3 O3        -1.9537    8.0761    5.5921 O.2       1 RES1    0.0000
      4 O4        -4.0272    8.5945    5.1890 O.2       1 RES1    0.0000
      5 O5        -3.7356    6.4835   -0.7541 O.2       1 RES1    0.0000
      6 O6        -4.4252    8.2911    0.2134 O.2       1 RES1    0.0000
      7 N1        -2.2457    5.2761    5.2712 N.pl3     1 RES1    0.0000
      8 N2        -3.1368    5.5969    6.2974 N.2       1 RES1    0.0000
      9 N3        -0.0349    4.4234    4.9608 N.3       1 RES1    0.0000
     10 N4        -3.0027    7.9759    4.9553 N.pl3     1 RES1    0.0000
     11 N5        -3.8888    7.1981    0.2333 N.pl3     1 RES1    0.0000
     12 C1        -1.0542    4.8149    5.7527 C.2       1 RES1    0.0000
     13 C2        -1.1782    4.8126    7.1390 C.2       1 RES1    0.0000
     14 C3        -2.4777    5.2982    7.3907 C.2       1 RES1    0.0000
     15 H1        -2.8390    5.3990    8.2631 H         1 RES1    0.0000
     16 C4        -0.1099    4.4952    8.0636 C.2       1 RES1    0.0000
     17 C5         0.5508    4.4599   10.3599 C.3       1 RES1    0.0000
     18 H2         1.2402    5.1683   10.4235 H         1 RES1    0.0000
     19 H3         0.9982    3.6027   10.1459 H         1 RES1    0.0000
     20 C6        -0.2028    4.3468   11.6513 C.3       1 RES1    0.0000
     21 H4         0.4285    4.1961   12.3858 H         1 RES1    0.0000
     22 H5        -0.8287    3.5938   11.5996 H         1 RES1    0.0000
     23 H6        -0.7017    5.1753   11.8129 H         1 RES1    0.0000
     24 C7        -2.5525    5.7473    3.9759 C.ar      1 RES1    0.0000
     25 C8        -2.9970    7.0594    3.8097 C.ar      1 RES1    0.0000
     26 C9        -3.4409    7.5551    2.6040 C.ar      1 RES1    0.0000
     27 H7        -3.7685    8.4428    2.5188 H         1 RES1    0.0000
     28 C10       -3.3853    6.6963    1.5257 C.ar      1 RES1    0.0000
     29 C11       -2.9194    5.4017    1.6275 C.ar      1 RES1    0.0000
     30 H8        -2.8824    4.8435    0.8594 H         1 RES1    0.0000
     31 C12       -2.5055    4.9216    2.8634 C.ar      1 RES1    0.0000
     32 H9        -2.1906    4.0295    2.9466 H         1 RES1    0.0000
     33 H10        0.6831    4.1536    5.3922 H         1 RES1    0.0000
     34 H11        0.0786    4.8190    4.1959 H         1 RES1    0.0000
     35 O7         4.2323   -2.9280   10.8128 O.2       2 RES2    0.0000
     36 O8         4.7391   -1.2606   12.2586 O.3       2 RES2    0.0000
     37 O9        -0.1506    0.1149    9.6169 O.2       2 RES2    0.0000
     38 O10       -1.0561    1.9669    8.9375 O.2       2 RES2    0.0000
     39 O11        0.1752    0.8540    2.8758 O.2       2 RES2    0.0000
     40 O12       -1.4698    1.7246    3.9580 O.2       2 RES2    0.0000
     41 N6         2.4499    0.2050    8.6839 N.pl3     2 RES2    0.0000
     42 N7         2.6829    1.2322    9.5973 N.2       2 RES2    0.0000
     43 N8         2.7847   -2.1482    8.4433 N.3       2 RES2    0.0000
     44 N9        -0.3113    1.0080    8.7916 N.pl3     2 RES2    0.0000
     45 N10       -0.3608    1.2245    3.9087 N.pl3     2 RES2    0.0000
     46 C13        2.9130   -0.9852    9.1208 C.2       2 RES2    0.0000
     47 C14        3.5285   -0.7365   10.3483 C.2       2 RES2    0.0000
     48 C15        3.3344    0.6399   10.5714 C.2       2 RES2    0.0000
     49 H12        3.6425    1.0939   11.3472 H         2 RES2    0.0000
     50 C16        4.1815   -1.7572   11.1385 C.2       2 RES2    0.0000
     51 C17        5.3370   -2.2411   13.1653 C.3       2 RES2    0.0000
     52 H13        6.0374   -1.8040   13.7121 H         2 RES2    0.0000
     53 H14        5.7639   -2.9623   12.6382 H         2 RES2    0.0000
     54 C18        4.2953   -2.8263   14.0628 C.3       2 RES2    0.0000
     55 H15        4.7225   -3.4111   14.7216 H         2 RES2    0.0000
     56 H16        3.6581   -3.3457   13.5291 H         2 RES2    0.0000
     57 H17        3.8199   -2.1048   14.5260 H         2 RES2    0.0000
     58 C19        1.7292    0.4727    7.4872 C.ar      2 RES2    0.0000
     59 C20        0.4081    0.9006    7.5134 C.ar      2 RES2    0.0000
     60 C21       -0.2895    1.2093    6.3596 C.ar      2 RES2    0.0000
     61 H18       -1.1804    1.5385    6.3866 H         2 RES2    0.0000
     62 C22        0.3777    1.0143    5.1659 C.ar      2 RES2    0.0000
     63 C23        1.6900    0.5941    5.0878 C.ar      2 RES2    0.0000
     64 H19        2.1153    0.4812    4.2464 H         2 RES2    0.0000
     65 C24        2.3705    0.3417    6.2663 C.ar      2 RES2    0.0000
     66 H20        3.2820    0.0771    6.2377 H         2 RES2    0.0000
     67 H21        2.9391   -2.8540    8.8978 H         2 RES2    0.0000
     68 H22        2.2020   -2.2015    7.7760 H         2 RES2    0.0000
@<TRIPOS>BOND
     1    1   16 2
     2    2   16 1
     3    3   10 2
     4    4   10 2
     5    5   11 2
     6    6   11 2
     7    7    8 1
     8    8   14 2
     9    9   12 1
    10   10   25 1
    11   11   28 1
    12   12    7 1
    13   13   12 2
    14   14   13 1
    15   15   14 1
    16   16   13 1
    17   17    2 1
    18   18   17 1
    19   19   17 1
    20   20   17 1
    21   21   20 1
    22   22   20 1
    23   23   20 1
    24   24    7 1
    25   25   24 ar
    26   26   25 ar
    27   27   26 1
    28   28   26 ar
    29   29   28 ar
    30   30   29 1
    31   31   24 ar
    32   32   31 1
    33   33    9 1
    34   34    9 1
    35   35   50 2
    36   36   50 1
    37   37   44 2
    38   38   44 2
    39   39   45 2
    40   40   45 2
    41   41   42 1
    42   42   48 2
    43   43   46 1
    44   44   59 1
    45   45   62 1
    46   46   41 1
    47   47   46 2
    48   48   47 1
    49   49   48 1
    50   50   47 1
    51   51   36 1
    52   52   51 1
    53   53   51 1
    54   54   51 1
    55   55   54 1
    56   56   54 1
    57   57   54 1
    58   58   41 1
    59   59   58 ar
    60   60   59 ar
    61   61   60 1
    62   62   60 ar
    63   63   62 ar
    64   64   63 1
    65   65   58 ar
    66   66   65 1
    67   67   43 1
    68   68   43 1
    69   29   31 ar
    70   63   65 ar
@<TRIPOS>SUBSTRUCTURE
     1 RES1 1
     2 RES2 35

@<TRIPOS>CRYSIN
  10.4031   11.3191   13.2540  97.6660 102.2520 110.1820   2 1

