# MOL2 file generated by ConQuest
# Please check atom types

@<TRIPOS>MOLECULE
QAHVUQ
    46    48     1
SMALL
NO_CHARGES
****
Generated from CSD

@<TRIPOS>ATOM
      1 O1         0.9309    8.1902    7.3148 O.3       1 RES1    0.0000
      2 N1         2.2060    7.8866    6.7446 N.2       1 RES1    0.0000
      3 N2         2.5935    7.2383    9.9388 N.2       1 RES1    0.0000
      4 N3         3.3819    8.3822    9.7791 N.2       1 RES1    0.0000
      5 N4         4.0941    6.6712    7.0900 N.3       1 RES1    0.0000
      6 N5         4.3361   10.0330   11.0497 N.3       1 RES1    0.0000
      7 C1         2.8862    7.1348    7.5100 C.2       1 RES1    0.0000
      8 C2         2.3807    6.6164    8.8351 C.2       1 RES1    0.0000
      9 C3         3.5678    8.9553   10.9243 C.2       1 RES1    0.0000
     10 C4         1.6417    5.3412    8.8481 C.ar      1 RES1    0.0000
     11 C5         1.1038    4.8485   10.0169 C.ar      1 RES1    0.0000
     12 C6         0.4673    3.6154   10.0489 C.ar      1 RES1    0.0000
     13 C7         0.3621    2.8629    8.9096 C.ar      1 RES1    0.0000
     14 C8         0.8727    3.3419    7.7407 C.ar      1 RES1    0.0000
     15 C9         1.5082    4.5659    7.6970 C.ar      1 RES1    0.0000
     16 C10        4.6597    7.1153    5.8336 C.3       1 RES1    0.0000
     17 C11        6.0691    6.5688    5.8585 C.3       1 RES1    0.0000
     18 C12        6.3297    6.2611    7.2391 C.3       1 RES1    0.0000
     19 C13        5.1102    6.1591    7.9844 C.3       1 RES1    0.0000
     20 C14        4.6458   10.6767   12.3109 C.3       1 RES1    0.0000
     21 C15        5.5046   11.8109   11.9003 C.3       1 RES1    0.0000
     22 C16        5.8083   11.6915   10.5410 C.3       1 RES1    0.0000
     23 C17        5.0067   10.6502    9.9140 C.3       1 RES1    0.0000
     24 H1         0.6329    8.8133    6.6488 H         1 RES1    0.0000
     25 H2         3.1440    8.5589   11.8305 H         1 RES1    0.0000
     26 H3         1.1927    5.3580   10.8249 H         1 RES1    0.0000
     27 H4         0.0957    3.2877   10.8604 H         1 RES1    0.0000
     28 H5        -0.0852    2.0137    8.9321 H         1 RES1    0.0000
     29 H6         0.8126    2.8088    6.9445 H         1 RES1    0.0000
     30 H7         1.8500    4.8942    6.8617 H         1 RES1    0.0000
     31 H8         4.6738    8.0686    5.7733 H         1 RES1    0.0000
     32 H9         4.1480    6.7650    5.0871 H         1 RES1    0.0000
     33 H10        6.6881    7.2137    5.5012 H         1 RES1    0.0000
     34 H11        6.1128    5.7694    5.3119 H         1 RES1    0.0000
     35 H12        6.8728    6.9484    7.6070 H         1 RES1    0.0000
     36 H13        6.8043    5.4293    7.2876 H         1 RES1    0.0000
     37 H14        4.9146    5.2392    8.2104 H         1 RES1    0.0000
     38 H15        5.1481    6.6749    8.7783 H         1 RES1    0.0000
     39 H16        5.1008   10.0779   12.9071 H         1 RES1    0.0000
     40 H17        3.8366   10.9897   12.7297 H         1 RES1    0.0000
     41 H18        6.3108   11.8005   12.4102 H         1 RES1    0.0000
     42 H19        5.0511   12.6436   12.0435 H         1 RES1    0.0000
     43 H20        6.7326   11.4700   10.4345 H         1 RES1    0.0000
     44 H21        5.6477   12.5204   10.0915 H         1 RES1    0.0000
     45 H22        4.3609   11.0229    9.2988 H         1 RES1    0.0000
     46 H23        5.5454   10.0149    9.4408 H         1 RES1    0.0000
@<TRIPOS>BOND
     1    1    2 1
     2    2    7 2
     3    3    4 1
     4    4    9 2
     5    5    7 1
     6    6    9 1
     7    7    8 1
     8    8    3 2
     9    9   25 1
    10   10    8 1
    11   11   10 ar
    12   12   11 ar
    13   13   12 ar
    14   14   13 ar
    15   15   10 ar
    16   16    5 1
    17   17   16 1
    18   18   17 1
    19   19    5 1
    20   20    6 1
    21   21   20 1
    22   22   21 1
    23   23    6 1
    24   24    1 1
    25   26   11 1
    26   27   12 1
    27   28   13 1
    28   29   14 1
    29   30   15 1
    30   31   16 1
    31   32   16 1
    32   33   17 1
    33   34   17 1
    34   35   18 1
    35   36   18 1
    36   37   19 1
    37   38   19 1
    38   39   20 1
    39   40   20 1
    40   41   21 1
    41   42   21 1
    42   43   22 1
    43   44   22 1
    44   45   23 1
    45   46   23 1
    46   14   15 ar
    47   18   19 1
    48   22   23 1
@<TRIPOS>SUBSTRUCTURE
     1 RES1 1

@<TRIPOS>CRYSIN
   8.3170    8.6520   11.8730  86.9600  85.9100  83.5400   1 1

