# MOL2 file generated by ConQuest
# Please check atom types

@<TRIPOS>MOLECULE
QAJFEN
    57    59     1
SMALL
NO_CHARGES
****
Generated from CSD

@<TRIPOS>ATOM
      1 N1         2.9001    1.6402   13.3169 N.pl3     1 RES1    0.0000
      2 N2         0.1459    5.5636   14.2735 N.pl3     1 RES1    0.0000
      3 O1         1.9594    6.3203    9.6597 O.3       1 RES1    0.0000
      4 O2         3.5411    4.7682    9.3290 O.2       1 RES1    0.0000
      5 O3         3.1953    0.8751   12.4191 O.2       1 RES1    0.0000
      6 O4         2.9658    1.3821   14.5115 O.2       1 RES1    0.0000
      7 O5        -0.1825    5.0200   15.3117 O.2       1 RES1    0.0000
      8 O6        -0.2547    6.6601   13.9130 O.2       1 RES1    0.0000
      9 C1        -1.2731    9.2798   12.0184 C.ar      1 RES1    0.0000
     10 H1        -1.0156    8.3927   12.2389 H         1 RES1    0.0000
     11 C2        -1.9753   10.0392   12.9356 C.ar      1 RES1    0.0000
     12 H2        -2.2000    9.6711   13.7807 H         1 RES1    0.0000
     13 C3        -2.3485   11.3226   12.6285 C.ar      1 RES1    0.0000
     14 H3        -2.8331   11.8409   13.2613 H         1 RES1    0.0000
     15 C4        -2.0271   11.8550   11.4145 C.ar      1 RES1    0.0000
     16 H4        -2.2885   12.7428   11.2022 H         1 RES1    0.0000
     17 C5        -1.3243   11.1125   10.4952 C.ar      1 RES1    0.0000
     18 H5        -1.0974   11.4968    9.6584 H         1 RES1    0.0000
     19 C6        -0.9423    9.8016   10.7776 C.ar      1 RES1    0.0000
     20 C7        -0.2429    9.0153    9.7965 C.1       1 RES1    0.0000
     21 C8         0.3167    8.3610    8.9638 C.1       1 RES1    0.0000
     22 C9         0.9677    7.5768    7.8966 C.3       1 RES1    0.0000
     23 C10        0.0540    6.3795    7.4674 C.3       1 RES1    0.0000
     24 H6         0.4382    5.9649    6.6533 H         1 RES1    0.0000
     25 H7         0.0672    5.6983    8.1847 H         1 RES1    0.0000
     26 C11       -1.3678    6.7553    7.1892 C.2       1 RES1    0.0000
     27 H8        -1.9053    6.9916    7.9353 H         1 RES1    0.0000
     28 C12       -1.9334    6.7878    6.0226 C.2       1 RES1    0.0000
     29 H9        -1.4344    6.5600    5.2456 H         1 RES1    0.0000
     30 H10       -2.8451    7.0402    5.9443 H         1 RES1    0.0000
     31 C13        1.1574    8.4773    6.6562 C.3       1 RES1    0.0000
     32 H11        1.6360    7.9548    5.9649 H         1 RES1    0.0000
     33 H12        0.2623    8.6973    6.2947 H         1 RES1    0.0000
     34 C14        1.9200    9.7889    6.8780 C.3       1 RES1    0.0000
     35 H13        1.5776   10.4630    6.2390 H         1 RES1    0.0000
     36 H14        1.7215   10.1161    7.7910 H         1 RES1    0.0000
     37 C15        3.4329    9.6937    6.7172 C.3       1 RES1    0.0000
     38 H15        3.6495    9.7240    5.7526 H         1 RES1    0.0000
     39 H16        3.8454   10.4877    7.1418 H         1 RES1    0.0000
     40 C16        4.0570    8.4484    7.3149 C.3       1 RES1    0.0000
     41 H17        5.0178    8.6233    7.4716 H         1 RES1    0.0000
     42 H18        3.9914    7.7158    6.6512 H         1 RES1    0.0000
     43 C17        3.4259    7.9731    8.6295 C.3       1 RES1    0.0000
     44 H19        4.1216    7.5402    9.1864 H         1 RES1    0.0000
     45 H20        3.0835    8.7573    9.1266 H         1 RES1    0.0000
     46 C18        2.2875    6.9894    8.3987 C.3       1 RES1    0.0000
     47 H21        2.5941    6.2984    7.7457 H         1 RES1    0.0000
     48 C19        2.6735    5.2491    9.9820 C.2       1 RES1    0.0000
     49 C20        2.2488    4.7012   11.3085 C.ar      1 RES1    0.0000
     50 C21        2.7470    3.4707   11.7074 C.ar      1 RES1    0.0000
     51 H22        3.3269    2.9800   11.1362 H         1 RES1    0.0000
     52 C22        2.3981    2.9694   12.9315 C.ar      1 RES1    0.0000
     53 C23        1.5859    3.6379   13.8054 C.ar      1 RES1    0.0000
     54 H23        1.3821    3.2846   14.6628 H         1 RES1    0.0000
     55 C24        1.0777    4.8500   13.3833 C.ar      1 RES1    0.0000
     56 C25        1.3878    5.3845   12.1555 C.ar      1 RES1    0.0000
     57 H24        1.0152    6.2166   11.8885 H         1 RES1    0.0000
@<TRIPOS>BOND
     1    1    5 2
     2    2    7 2
     3    3   46 1
     4    4   48 2
     5    6    1 2
     6    8    2 2
     7    9   10 1
     8   11    9 ar
     9   12   11 1
    10   13   11 ar
    11   14   13 1
    12   15   13 ar
    13   16   15 1
    14   17   15 ar
    15   18   17 1
    16   19    9 ar
    17   20   19 1
    18   21   20 3
    19   22   21 1
    20   23   22 1
    21   24   23 1
    22   25   23 1
    23   26   23 1
    24   27   26 1
    25   28   26 2
    26   29   28 1
    27   30   28 1
    28   31   22 1
    29   32   31 1
    30   33   31 1
    31   34   31 1
    32   35   34 1
    33   36   34 1
    34   37   34 1
    35   38   37 1
    36   39   37 1
    37   40   37 1
    38   41   40 1
    39   42   40 1
    40   43   40 1
    41   44   43 1
    42   45   43 1
    43   46   22 1
    44   47   46 1
    45   48    3 1
    46   49   48 1
    47   50   49 ar
    48   51   50 1
    49   52    1 1
    50   53   52 ar
    51   54   53 1
    52   55    2 1
    53   56   49 ar
    54   57   56 1
    55   17   19 ar
    56   43   46 1
    57   50   52 ar
    58   53   55 ar
    59   55   56 ar
@<TRIPOS>SUBSTRUCTURE
     1 RES1 1

@<TRIPOS>CRYSIN
  15.3195    7.0515   21.4677  90.0000 106.2390  90.0000  14 1

