# MOL2 file generated by ConQuest
# Please check atom types

@<TRIPOS>MOLECULE
QAKGOB
   124   132     1
SMALL
NO_CHARGES
****
Generated from CSD

@<TRIPOS>ATOM
      1 O1        16.4832   -3.9427   20.7907 O.2       1 RES1    0.0000
      2 O2        14.8248   -2.6474   20.7811 O.2       1 RES1    0.0000
      3 O3        20.3093   -3.2424   18.3032 O.2       1 RES1    0.0000
      4 O4        20.3718   -1.9728   16.5997 O.2       1 RES1    0.0000
      5 O5         6.4296   -0.6946   13.9113 O.2       1 RES1    0.0000
      6 O6         6.2866   -2.4909   12.6627 O.2       1 RES1    0.0000
      7 O7         9.6674   -4.1334   10.0784 O.2       1 RES1    0.0000
      8 O8        11.6117   -3.2196    9.8679 O.2       1 RES1    0.0000
      9 N1        15.9178   -2.9691   20.3794 N.pl3     1 RES1    0.0000
     10 N2        19.7867   -2.3884   17.5942 N.pl3     1 RES1    0.0000
     11 N3        14.7837   -0.5096   19.2118 N.pl3     1 RES1    0.0000
     12 H1        14.3942   -0.9223   19.8567 H         1 RES1    0.0000
     13 N4        18.4554   -0.2192   16.2028 N.pl3     1 RES1    0.0000
     14 H2        19.2838   -0.3900   16.0310 H         1 RES1    0.0000
     15 N5         6.9078   -1.5742   13.1370 N.pl3     1 RES1    0.0000
     16 N6        10.4990   -3.2623   10.3542 N.pl3     1 RES1    0.0000
     17 N7         8.7355    0.5266   14.1339 N.pl3     1 RES1    0.0000
     18 H3         7.8989    0.5523   14.3275 H         1 RES1    0.0000
     19 N8        12.2116   -1.0419   11.2133 N.pl3     1 RES1    0.0000
     20 H4        12.5074   -1.6112   10.6446 H         1 RES1    0.0000
     21 N9        11.9157    3.7918   17.1829 N.3       1 RES1    0.0000
     22 N10       15.5365    3.0716   12.8418 N.3       1 RES1    0.0000
     23 C1        15.9654   -0.9850   18.8017 C.ar      1 RES1    0.0000
     24 C2        16.5916   -2.1265   19.3631 C.ar      1 RES1    0.0000
     25 C3        17.8358   -2.5165   18.9687 C.ar      1 RES1    0.0000
     26 H5        18.2483   -3.2253   19.4042 H         1 RES1    0.0000
     27 C4        18.4982   -1.8817   17.9306 C.ar      1 RES1    0.0000
     28 C5        17.8785   -0.8199   17.2700 C.ar      1 RES1    0.0000
     29 C6        16.6508   -0.3900   17.7467 C.ar      1 RES1    0.0000
     30 H6        16.2580    0.3473   17.3329 H         1 RES1    0.0000
     31 C7        14.1099    0.6519   18.6468 C.ar      1 RES1    0.0000
     32 C8        14.3811    1.9187   19.1647 C.ar      1 RES1    0.0000
     33 H7        15.0204    2.0126   19.8325 H         1 RES1    0.0000
     34 C9        13.7204    3.0346   18.7073 C.ar      1 RES1    0.0000
     35 H8        13.9176    3.8772   19.0509 H         1 RES1    0.0000
     36 C10       12.7737    2.8923   17.7491 C.ar      1 RES1    0.0000
     37 C11       12.5041    1.6055   17.2119 C.ar      1 RES1    0.0000
     38 C12       13.1911    0.4839   17.6596 C.ar      1 RES1    0.0000
     39 H9        13.0301   -0.3530   17.2917 H         1 RES1    0.0000
     40 C13       11.4013    1.7906   16.2900 C.ar      1 RES1    0.0000
     41 C14       11.0578    3.1485   16.3093 C.ar      1 RES1    0.0000
     42 C15       10.0224    3.6552   15.5834 C.ar      1 RES1    0.0000
     43 H10        9.8120    4.5604   15.5955 H         1 RES1    0.0000
     44 C16        9.3173    2.7642   14.8381 C.ar      1 RES1    0.0000
     45 H11        8.6155    3.0858   14.3154 H         1 RES1    0.0000
     46 C17        9.5770    1.4262   14.8139 C.ar      1 RES1    0.0000
     47 C18       10.6568    0.8996   15.5761 C.ar      1 RES1    0.0000
     48 H12       10.8441   -0.0114   15.5882 H         1 RES1    0.0000
     49 C19        9.1349   -0.3701   13.2072 C.ar      1 RES1    0.0000
     50 C20        8.3213   -1.4091   12.7135 C.ar      1 RES1    0.0000
     51 C21        8.7766   -2.2944   11.8037 C.ar      1 RES1    0.0000
     52 H13        8.1997   -2.9577   11.4988 H         1 RES1    0.0000
     53 C22       10.0700   -2.2517   11.3052 C.ar      1 RES1    0.0000
     54 C23       10.9477   -1.2155   11.6996 C.ar      1 RES1    0.0000
     55 C24       10.4546   -0.3331   12.6627 C.ar      1 RES1    0.0000
     56 H14       11.0282    0.3302   12.9700 H         1 RES1    0.0000
     57 C25       13.0629    0.0399   11.5956 C.ar      1 RES1    0.0000
     58 C26       12.8328    1.2981   11.0802 C.ar      1 RES1    0.0000
     59 H15       12.1278    1.4148   10.4825 H         1 RES1    0.0000
     60 C27       13.6086    2.3969   11.4165 C.ar      1 RES1    0.0000
     61 H16       13.4475    3.2339   11.0511 H         1 RES1    0.0000
     62 C28       14.6490    2.1891   12.3312 C.ar      1 RES1    0.0000
     63 C29       14.8955    0.9024   12.8553 C.ar      1 RES1    0.0000
     64 C30       14.0885   -0.1480   12.5151 C.ar      1 RES1    0.0000
     65 H17       14.2266   -0.9850   12.8974 H         1 RES1    0.0000
     66 C31       16.0000    1.0618   13.7492 C.ar      1 RES1    0.0000
     67 C32       16.3961    2.4083   13.7177 C.ar      1 RES1    0.0000
     68 C33       17.4200    2.8951   14.4679 C.ar      1 RES1    0.0000
     69 H18       17.6616    3.7918   14.4340 H         1 RES1    0.0000
     70 C34       18.1004    1.9955   15.2833 C.ar      1 RES1    0.0000
     71 H19       18.8088    2.3001   15.8012 H         1 RES1    0.0000
     72 C35       17.7503    0.6889   15.3390 C.ar      1 RES1    0.0000
     73 C36       16.7067    0.2135   14.5743 C.ar      1 RES1    0.0000
     74 H20       16.4733   -0.6861   14.6179 H         1 RES1    0.0000
     75 C37       11.8270    5.2323   17.5482 C.3       1 RES1    0.0000
     76 H21       12.3431    5.3974   18.3540 H         1 RES1    0.0000
     77 H22       10.9033    5.4714   17.7249 H         1 RES1    0.0000
     78 C38       12.3841    6.1062   16.3771 C.3       1 RES1    0.0000
     79 H23       11.9733    5.7760   15.5519 H         1 RES1    0.0000
     80 C39       11.8106    7.5210   16.6360 C.3       1 RES1    0.0000
     81 H24       10.8606    7.4242   16.7933 H         1 RES1    0.0000
     82 H25       12.2034    7.8427   17.4636 H         1 RES1    0.0000
     83 C40       11.9634    8.4747   15.7310 C.3       1 RES1    0.0000
     84 H26       12.8953    8.6882   15.6463 H         1 RES1    0.0000
     85 H27       11.4818    9.2575   16.0068 H         1 RES1    0.0000
     86 H28       11.6265    8.1701   14.8865 H         1 RES1    0.0000
     87 C41       13.8025    5.8358   16.2851 C.3       1 RES1    0.0000
     88 H29       14.1559    6.2144   15.4648 H         1 RES1    0.0000
     89 H30       13.9554    4.8764   16.2682 H         1 RES1    0.0000
     90 C42       14.5553    6.4848   17.5531 C.3       1 RES1    0.0000
     91 H31       14.0934    6.2542   18.3734 H         1 RES1    0.0000
     92 H32       14.5832    7.4498   17.4732 H         1 RES1    0.0000
     93 C43       16.0805    5.8756   17.5724 C.3       1 RES1    0.0000
     94 H33       16.5653    6.1802   16.7909 H         1 RES1    0.0000
     95 H34       16.0493    4.9049   17.5507 H         1 RES1    0.0000
     96 C44       16.8694    6.3994   18.9904 C.3       1 RES1    0.0000
     97 H35       17.1521    7.3104   18.8815 H         1 RES1    0.0000
     98 H36       17.6369    5.8443   19.1550 H         1 RES1    0.0000
     99 H37       16.2662    6.3396   19.7333 H         1 RES1    0.0000
    100 C45       15.5184    4.5490   12.7038 C.3       1 RES1    0.0000
    101 H38       14.6260    4.8309   12.4473 H         1 RES1    0.0000
    102 H39       15.7189    4.9476   13.5653 H         1 RES1    0.0000
    103 C46       16.4782    5.0444   11.7117 C.3       1 RES1    0.0000
    104 H40       17.3641    4.8024   12.0578 H         1 RES1    0.0000
    105 C47       16.4076    4.4779   10.4075 C.3       1 RES1    0.0000
    106 H41       15.5003    4.6088   10.1002 H         1 RES1    0.0000
    107 H42       16.5259    3.5214   10.5188 H         1 RES1    0.0000
    108 C48       17.2852    4.8764    9.3016 C.3       1 RES1    0.0000
    109 H43       18.2089    4.8593    9.6017 H         1 RES1    0.0000
    110 H44       17.0748    5.7874    9.0403 H         1 RES1    0.0000
    111 C49       17.1373    3.9882    8.1280 C.3       1 RES1    0.0000
    112 H45       16.2070    3.9484    7.8643 H         1 RES1    0.0000
    113 H46       17.4200    3.0887    8.3628 H         1 RES1    0.0000
    114 C50       17.9525    4.4779    6.9932 C.3       1 RES1    0.0000
    115 H47       17.3723    4.7540    6.2793 H         1 RES1    0.0000
    116 H48       18.5261    3.7747    6.6834 H         1 RES1    0.0000
    117 H49       18.4850    5.2237    7.2787 H         1 RES1    0.0000
    118 C51       16.4273    6.5731   11.7359 C.3       1 RES1    0.0000
    119 H50       15.5168    6.8862   11.8666 H         1 RES1    0.0000
    120 H51       16.7724    6.9431   10.9084 H         1 RES1    0.0000
    121 C52       17.3559    6.9858   12.9773 C.3       1 RES1    0.0000
    122 H52       16.8267    7.0200   13.7782 H         1 RES1    0.0000
    123 H53       17.7454    7.8484   12.8152 H         1 RES1    0.0000
    124 H54       18.0560    6.3368   13.0838 H         1 RES1    0.0000
@<TRIPOS>BOND
     1    1    9 2
     2    2    9 2
     3    3   10 2
     4    4   10 2
     5    5   15 2
     6    6   15 2
     7    7   16 2
     8    8   16 2
     9    9   24 1
    10   10   27 1
    11   11   12 1
    12   13   14 1
    13   15   50 1
    14   16   53 1
    15   17   18 1
    16   19   20 1
    17   21   36 1
    18   22   62 1
    19   23   11 1
    20   24   23 ar
    21   25   24 ar
    22   26   25 1
    23   27   25 ar
    24   28   13 1
    25   29   23 ar
    26   30   29 1
    27   31   11 1
    28   32   31 ar
    29   33   32 1
    30   34   32 ar
    31   35   34 1
    32   36   34 ar
    33   37   36 ar
    34   38   31 ar
    35   39   38 1
    36   40   37 1
    37   41   21 1
    38   42   41 ar
    39   43   42 1
    40   44   42 ar
    41   45   44 1
    42   46   17 1
    43   47   40 ar
    44   48   47 1
    45   49   17 1
    46   50   49 ar
    47   51   50 ar
    48   52   51 1
    49   53   51 ar
    50   54   19 1
    51   55   49 ar
    52   56   55 1
    53   57   19 1
    54   58   57 ar
    55   59   58 1
    56   60   58 ar
    57   61   60 1
    58   62   60 ar
    59   63   62 ar
    60   64   57 ar
    61   65   64 1
    62   66   63 1
    63   67   22 1
    64   68   67 ar
    65   69   68 1
    66   70   68 ar
    67   71   70 1
    68   72   13 1
    69   73   66 ar
    70   74   73 1
    71   75   21 1
    72   76   75 1
    73   77   75 1
    74   78   75 1
    75   79   78 1
    76   80   78 1
    77   81   80 1
    78   82   80 1
    79   83   80 1
    80   84   83 1
    81   85   83 1
    82   86   83 1
    83   87   78 1
    84   88   87 1
    85   89   87 1
    86   90   87 1
    87   91   90 1
    88   92   90 1
    89   93   90 1
    90   94   93 1
    91   95   93 1
    92   96   93 1
    93   97   96 1
    94   98   96 1
    95   99   96 1
    96  100   22 1
    97  101  100 1
    98  102  100 1
    99  103  100 1
   100  104  103 1
   101  105  103 1
   102  106  105 1
   103  107  105 1
   104  108  105 1
   105  109  108 1
   106  110  108 1
   107  111  108 1
   108  112  111 1
   109  113  111 1
   110  114  111 1
   111  115  114 1
   112  116  114 1
   113  117  114 1
   114  118  103 1
   115  119  118 1
   116  120  118 1
   117  121  118 1
   118  122  121 1
   119  123  121 1
   120  124  121 1
   121   27   28 ar
   122   28   29 ar
   123   37   38 ar
   124   40   41 ar
   125   44   46 ar
   126   46   47 ar
   127   53   54 ar
   128   54   55 ar
   129   63   64 ar
   130   66   67 ar
   131   70   72 ar
   132   72   73 ar
@<TRIPOS>SUBSTRUCTURE
     1 RES1 1

@<TRIPOS>CRYSIN
  32.8710   32.8710   24.1978  90.0000  90.0000 120.0000 233 1

