# MOL2 file generated by ConQuest
# Please check atom types

@<TRIPOS>MOLECULE
QAKHES
    64    66     2
SMALL
NO_CHARGES
****
Generated from CSD

@<TRIPOS>ATOM
      1 O1         4.1286    9.4478    2.1187 O.2       1 RES1    0.0000
      2 O2         1.7747    5.5177    1.6593 O.2       1 RES1    0.0000
      3 N1         0.8057    8.2802    0.5218 N.ar      1 RES1    0.0000
      4 N2         2.8847    8.4437   -0.6186 N.ar      1 RES1    0.0000
      5 N3         3.7315    8.2500    2.3240 N.3       1 RES1    0.0000
      6 N4         2.5825    6.3934    2.1264 N.pl3     1 RES1    0.0000
      7 C1         0.1994    8.7825   -0.5525 C.ar      1 RES1    0.0000
      8 H1        -0.7240    8.8917   -0.5304 H         1 RES1    0.0000
      9 C2         0.8705    9.1416   -1.6814 C.ar      1 RES1    0.0000
     10 H2         0.4296    9.4951   -2.4199 H         1 RES1    0.0000
     11 C3         2.2288    8.9574   -1.6756 C.ar      1 RES1    0.0000
     12 H3         2.7157    9.1975   -2.4304 H         1 RES1    0.0000
     13 C4         2.1168    8.1505    0.4172 C.ar      1 RES1    0.0000
     14 C5         2.8018    7.6042    1.6085 C.2       1 RES1    0.0000
     15 C6         4.0717    7.4917    3.5852 C.3       1 RES1    0.0000
     16 C7         3.5569    6.0742    3.2246 C.3       1 RES1    0.0000
     17 C8         5.5679    7.5704    3.8471 C.3       1 RES1    0.0000
     18 H4         6.0446    7.2773    3.0663 H         1 RES1    0.0000
     19 H5         5.7929    7.0041    4.5894 H         1 RES1    0.0000
     20 H6         5.8102    8.4759    4.0495 H         1 RES1    0.0000
     21 C9         3.2937    8.1652    4.7045 C.3       1 RES1    0.0000
     22 H7         3.5707    9.0833    4.7803 H         1 RES1    0.0000
     23 H8         3.4642    7.7094    5.5323 H         1 RES1    0.0000
     24 H9         2.3545    8.1293    4.5079 H         1 RES1    0.0000
     25 C10        4.6099    5.1720    2.5781 C.3       1 RES1    0.0000
     26 H10        4.1866    4.3827    2.2329 H         1 RES1    0.0000
     27 H11        5.2645    4.9208    3.2342 H         1 RES1    0.0000
     28 H12        5.0388    5.6424    1.8607 H         1 RES1    0.0000
     29 C11        2.8344    5.3363    4.3410 C.3       1 RES1    0.0000
     30 H13        2.1119    5.8789    4.6681 H         1 RES1    0.0000
     31 H14        3.4486    5.1573    5.0565 H         1 RES1    0.0000
     32 H15        2.4854    4.5091    4.0044 H         1 RES1    0.0000
     33 O3         7.0581    4.3635   -4.0245 O.2       2 RES2    0.0000
     34 O4         5.5277    0.7885   -1.5500 O.2       2 RES2    0.0000
     35 N5         4.0455    2.0442   -4.1492 N.ar      2 RES2    0.0000
     36 N6         6.0956    1.5411   -5.2570 N.ar      2 RES2    0.0000
     37 N7         6.8703    3.5705   -3.0404 N.3       2 RES2    0.0000
     38 N8         6.1178    1.8856   -1.8521 N.pl3     2 RES2    0.0000
     39 C12        3.3792    1.6348   -5.2311 C.ar      2 RES2    0.0000
     40 H16        2.4497    1.6715   -5.2282 H         2 RES2    0.0000
     41 C13        4.0217    1.1603   -6.3485 C.ar      2 RES2    0.0000
     42 H17        3.5442    0.8765   -7.0937 H         2 RES2    0.0000
     43 C14        5.3861    1.1232   -6.3245 C.ar      2 RES2    0.0000
     44 H18        5.8408    0.7991   -7.0678 H         2 RES2    0.0000
     45 C15        5.3717    1.9761   -4.2384 C.ar      2 RES2    0.0000
     46 C16        6.1176    2.4592   -3.0587 C.2       2 RES2    0.0000
     47 C17        7.2683    3.9501   -1.6334 C.3       2 RES2    0.0000
     48 C18        7.0614    2.5835   -0.9016 C.3       2 RES2    0.0000
     49 C19        8.6914    4.4748   -1.6468 C.3       2 RES2    0.0000
     50 H19        9.2673    3.8282   -2.0602 H         2 RES2    0.0000
     51 H20        8.9825    4.6314   -0.7452 H         2 RES2    0.0000
     52 H21        8.7252    5.2959   -2.1427 H         2 RES2    0.0000
     53 C20        6.2910    5.0448   -1.2123 C.3       2 RES2    0.0000
     54 H22        6.3504    5.7810   -1.8262 H         2 RES2    0.0000
     55 H23        6.5113    5.3489   -0.3280 H         2 RES2    0.0000
     56 H24        5.3971    4.6966   -1.2171 H         2 RES2    0.0000
     57 C21        6.4162    2.6708    0.4681 C.3       2 RES2    0.0000
     58 H25        5.5484    3.0740    0.3884 H         2 RES2    0.0000
     59 H26        6.9648    3.2044    1.0474 H         2 RES2    0.0000
     60 H27        6.3270    1.7898    0.8373 H         2 RES2    0.0000
     61 C22        8.3076    1.7160   -0.8229 C.3       2 RES2    0.0000
     62 H28        8.0690    0.8398   -0.5083 H         2 RES2    0.0000
     63 H29        8.9365    2.1118   -0.2158 H         2 RES2    0.0000
     64 H30        8.7040    1.6471   -1.6948 H         2 RES2    0.0000
@<TRIPOS>BOND
     1    1    5 1
     2    2    6 1
     3    3    7 ar
     4    4   11 ar
     5    5   14 1
     6    6   14 2
     7    7    8 1
     8    9    7 ar
     9   10    9 1
    10   11    9 ar
    11   12   11 1
    12   13    3 ar
    13   14   13 1
    14   15    5 1
    15   16    6 1
    16   17   15 1
    17   18   17 1
    18   19   17 1
    19   20   17 1
    20   21   15 1
    21   22   21 1
    22   23   21 1
    23   24   21 1
    24   25   16 1
    25   26   25 1
    26   27   25 1
    27   28   25 1
    28   29   16 1
    29   30   29 1
    30   31   29 1
    31   32   29 1
    32   33   37 1
    33   34   38 1
    34   35   39 ar
    35   36   43 ar
    36   37   46 1
    37   38   46 2
    38   39   40 1
    39   41   39 ar
    40   42   41 1
    41   43   41 ar
    42   44   43 1
    43   45   35 ar
    44   46   45 1
    45   47   37 1
    46   48   38 1
    47   49   47 1
    48   50   49 1
    49   51   49 1
    50   52   49 1
    51   53   47 1
    52   54   53 1
    53   55   53 1
    54   56   53 1
    55   57   48 1
    56   58   57 1
    57   59   57 1
    58   60   57 1
    59   61   48 1
    60   62   61 1
    61   63   61 1
    62   64   61 1
    63    4   13 ar
    64   15   16 1
    65   36   45 ar
    66   47   48 1
@<TRIPOS>SUBSTRUCTURE
     1 RES1 1
     2 RES2 33

@<TRIPOS>CRYSIN
   6.2110   40.7690    9.6460  90.0000  96.1040  90.0000  14 1

