# MOL2 file generated by ConQuest
# Please check atom types

@<TRIPOS>MOLECULE
QAKSUQ
    28    28     1
SMALL
NO_CHARGES
****
Generated from CSD

@<TRIPOS>ATOM
      1 O1         6.3835    2.0066   10.9776 O.3       1 RES1    0.0000
      2 N1         9.6980    0.6115   10.2586 N.3       1 RES1    0.0000
      3 C1         7.4052    1.6042    8.8036 C.ar      1 RES1    0.0000
      4 C2         8.4803    0.9545   11.0100 C.3       1 RES1    0.0000
      5 N2         9.7375   -0.6211    9.8401 N.2       1 RES1    0.0000
      6 O2        10.7793   -0.9088    9.2454 O.2       1 RES1    0.0000
      7 C3         7.6252    1.9705   10.2637 C.3       1 RES1    0.0000
      8 C4         8.1279    2.2561    7.7982 C.ar      1 RES1    0.0000
      9 C5         6.5407    0.5914    8.4486 C.ar      1 RES1    0.0000
     10 C6        10.7607    1.5745   10.0487 C.3       1 RES1    0.0000
     11 C7         7.1263    0.8812    6.1502 C.ar      1 RES1    0.0000
     12 C8         7.9706    1.8919    6.4702 C.ar      1 RES1    0.0000
     13 C9         6.3982    0.2336    7.0973 C.ar      1 RES1    0.0000
     14 C10        8.8227    1.3951   12.4287 C.3       1 RES1    0.0000
     15 H1         7.9397    0.1646   11.0839 H         1 RES1    0.0000
     16 H2         8.0349    2.8379   10.3039 H         1 RES1    0.0000
     17 H3         8.7290    2.9706    8.0211 H         1 RES1    0.0000
     18 H4         6.0380    0.1178    9.1158 H         1 RES1    0.0000
     19 H5        10.5036    2.4143   10.4374 H         1 RES1    0.0000
     20 H6        10.9141    1.6902    9.1081 H         1 RES1    0.0000
     21 H7        11.5656    1.2613   10.4684 H         1 RES1    0.0000
     22 H8         7.0465    0.6391    5.2252 H         1 RES1    0.0000
     23 H9         8.4579    2.3368    5.7706 H         1 RES1    0.0000
     24 H10        5.7971   -0.4671    6.8343 H         1 RES1    0.0000
     25 H11        9.3386    0.7156   12.8640 H         1 RES1    0.0000
     26 H12        8.0171    1.5554   12.9301 H         1 RES1    0.0000
     27 H13        9.3324    2.2052   12.3769 H         1 RES1    0.0000
     28 H14        5.7677    2.8241   10.6097 H         1 RES1    0.0000
@<TRIPOS>BOND
     1    1    7 1
     2    2    4 1
     3    3    7 1
     4    4    7 1
     5    5    2 1
     6    6    5 2
     7    7   16 1
     8    8    3 ar
     9    9    3 ar
    10   10    2 1
    11   11   12 ar
    12   12    8 ar
    13   13    9 ar
    14   14    4 1
    15   15    4 1
    16   17    8 1
    17   18    9 1
    18   19   10 1
    19   20   10 1
    20   21   10 1
    21   22   11 1
    22   23   12 1
    23   24   13 1
    24   25   14 1
    25   26   14 1
    26   27   14 1
    27   28    1 1
    28   11   13 ar
@<TRIPOS>SUBSTRUCTURE
     1 RES1 1

@<TRIPOS>CRYSIN
   7.7460   10.6170   12.9560  90.0000  90.0000  90.0000  19 1

