# MOL2 file generated by ConQuest
# Please check atom types

@<TRIPOS>MOLECULE
QALRUS
    82    86     1
SMALL
NO_CHARGES
****
Generated from CSD

@<TRIPOS>ATOM
      1 O1         4.6356    1.6568   11.5333 O.3       1 RES1    0.0000
      2 O2         5.0390    2.4306   12.7181 O.3       1 RES1    0.0000
      3 O3         7.2704    2.0810   12.1842 O.3       1 RES1    0.0000
      4 O4         6.8637    1.3063   10.9912 O.3       1 RES1    0.0000
      5 O5         5.9741   -3.0374   15.5022 O.3       1 RES1    0.0000
      6 N1         5.8936   -2.1410   14.4017 N.2       1 RES1    0.0000
      7 O6         3.8387    7.1094    8.7865 O.3       1 RES1    0.0000
      8 N2         3.8729    6.1965    9.8818 N.2       1 RES1    0.0000
      9 C1         5.6274    0.6544   11.3213 C.3       1 RES1    0.0000
     10 C2         6.2723    3.0808   12.4057 C.3       1 RES1    0.0000
     11 C3         5.1998   -0.0918   10.0469 C.3       1 RES1    0.0000
     12 H1         5.9200   -0.7523    9.8332 H         1 RES1    0.0000
     13 C4         3.9212   -0.8905   10.3471 C.3       1 RES1    0.0000
     14 H2         3.1802   -0.2572   10.5182 H         1 RES1    0.0000
     15 H3         3.6826   -1.4276    9.5501 H         1 RES1    0.0000
     16 C5         4.0640   -1.8252   11.5518 C.3       1 RES1    0.0000
     17 H4         4.7276   -2.5311   11.3422 H         1 RES1    0.0000
     18 H5         3.1959   -2.2660   11.7307 H         1 RES1    0.0000
     19 C6         4.5150   -1.0595   12.8085 C.3       1 RES1    0.0000
     20 H6         3.8015   -0.3988   13.0412 H         1 RES1    0.0000
     21 C7         5.8009   -0.2831   12.5043 C.3       1 RES1    0.0000
     22 H7         6.0611    0.2425   13.3014 H         1 RES1    0.0000
     23 H8         6.5302   -0.9234   12.3091 H         1 RES1    0.0000
     24 C8         5.0395    0.8203    8.8235 C.3       1 RES1    0.0000
     25 H9         4.3251    1.4695    8.9910 H         1 RES1    0.0000
     26 H10        4.8109    0.2787    8.0399 H         1 RES1    0.0000
     27 H11        5.8800    1.2961    8.6582 H         1 RES1    0.0000
     28 C9         6.6869    3.7876   13.7058 C.3       1 RES1    0.0000
     29 H12        7.6096    4.1490   13.5664 H         1 RES1    0.0000
     30 C10        5.7647    4.9829   13.9747 C.3       1 RES1    0.0000
     31 H13        4.8584    4.6475   14.1908 H         1 RES1    0.0000
     32 H14        6.1003    5.4769   14.7644 H         1 RES1    0.0000
     33 C11        5.6688    5.9414   12.7953 C.3       1 RES1    0.0000
     34 H15        6.5549    6.3515   12.6274 H         1 RES1    0.0000
     35 H16        5.0293    6.6665   13.0073 H         1 RES1    0.0000
     36 C12        5.2005    5.1915   11.5389 C.3       1 RES1    0.0000
     37 H17        4.3019    4.8005   11.7343 H         1 RES1    0.0000
     38 C13        6.1578    4.0325   11.2268 C.3       1 RES1    0.0000
     39 H18        5.8268    3.5372   10.4359 H         1 RES1    0.0000
     40 H19        7.0529    4.3949   11.0083 H         1 RES1    0.0000
     41 C14        6.7438    2.8540   14.9113 C.3       1 RES1    0.0000
     42 H20        7.3335    2.0972   14.7111 H         1 RES1    0.0000
     43 H21        5.8430    2.5243   15.1117 H         1 RES1    0.0000
     44 H22        7.0922    3.3435   15.6865 H         1 RES1    0.0000
     45 C15        4.6912   -1.9954   13.9867 C.2       1 RES1    0.0000
     46 C16        3.4829   -2.6693   14.5659 C.3       1 RES1    0.0000
     47 H23        3.6290   -2.8381   15.5207 H         1 RES1    0.0000
     48 H24        3.3309   -3.5202   14.1037 H         1 RES1    0.0000
     49 H25        2.7002   -2.0904   14.4522 H         1 RES1    0.0000
     50 C17        7.3510   -3.1112   15.9054 C.3       1 RES1    0.0000
     51 H26        7.9217   -3.0942   15.0960 H         1 RES1    0.0000
     52 H27        7.5029   -3.9757   16.3629 H         1 RES1    0.0000
     53 C18        7.7801   -1.9907   16.8264 C.ar      1 RES1    0.0000
     54 C19        7.4636   -0.6617   16.5820 C.ar      1 RES1    0.0000
     55 H28        6.9665   -0.4339   15.8051 H         1 RES1    0.0000
     56 C20        7.8626    0.3388   17.4544 C.ar      1 RES1    0.0000
     57 H29        7.6173    1.2395   17.2766 H         1 RES1    0.0000
     58 C21        8.6070    0.0499   18.5714 C.ar      1 RES1    0.0000
     59 H30        8.8840    0.7398   19.1631 H         1 RES1    0.0000
     60 C22        8.9453   -1.2678   18.8146 C.ar      1 RES1    0.0000
     61 H31        9.4681   -1.4865   19.5769 H         1 RES1    0.0000
     62 C23        8.5276   -2.2739   17.9542 C.ar      1 RES1    0.0000
     63 H32        8.7605   -3.1758   18.1442 H         1 RES1    0.0000
     64 C24        5.0535    6.1093   10.3625 C.2       1 RES1    0.0000
     65 C25        6.2543    6.8206    9.8103 C.3       1 RES1    0.0000
     66 H33        6.0259    7.7553    9.6287 H         1 RES1    0.0000
     67 H34        6.5381    6.3855    8.9789 H         1 RES1    0.0000
     68 H35        6.9846    6.7832   10.4625 H         1 RES1    0.0000
     69 C26        2.5944    6.9169    8.1270 C.3       1 RES1    0.0000
     70 H36        2.4070    7.7043    7.5571 H         1 RES1    0.0000
     71 H37        1.8764    6.8569    8.8059 H         1 RES1    0.0000
     72 C27        2.5698    5.6695    7.2691 C.ar      1 RES1    0.0000
     73 C28        3.7154    4.9421    6.9883 C.ar      1 RES1    0.0000
     74 H38        4.5548    5.2355    7.3235 H         1 RES1    0.0000
     75 C29        3.6444    3.7899    6.2199 C.ar      1 RES1    0.0000
     76 H39        4.4330    3.2891    6.0517 H         1 RES1    0.0000
     77 C30        2.4442    3.3604    5.7008 C.ar      1 RES1    0.0000
     78 H40        2.4033    2.5719    5.1720 H         1 RES1    0.0000
     79 C31        1.3038    4.0878    5.9573 C.ar      1 RES1    0.0000
     80 H41        0.4724    3.8046    5.5955 H         1 RES1    0.0000
     81 C32        1.3615    5.2299    6.7378 C.ar      1 RES1    0.0000
     82 H42        0.5673    5.7205    6.9121 H         1 RES1    0.0000
@<TRIPOS>BOND
     1    1    2 1
     2    2   10 1
     3    3    4 1
     4    4    9 1
     5    5    6 1
     6    6   45 2
     7    7    8 1
     8    8   64 2
     9    9    1 1
    10   10    3 1
    11   11    9 1
    12   12   11 1
    13   13   11 1
    14   14   13 1
    15   15   13 1
    16   16   13 1
    17   17   16 1
    18   18   16 1
    19   19   16 1
    20   20   19 1
    21   21    9 1
    22   22   21 1
    23   23   21 1
    24   24   11 1
    25   25   24 1
    26   26   24 1
    27   27   24 1
    28   28   10 1
    29   29   28 1
    30   30   28 1
    31   31   30 1
    32   32   30 1
    33   33   30 1
    34   34   33 1
    35   35   33 1
    36   36   33 1
    37   37   36 1
    38   38   10 1
    39   39   38 1
    40   40   38 1
    41   41   28 1
    42   42   41 1
    43   43   41 1
    44   44   41 1
    45   45   19 1
    46   46   45 1
    47   47   46 1
    48   48   46 1
    49   49   46 1
    50   50    5 1
    51   51   50 1
    52   52   50 1
    53   53   50 1
    54   54   53 ar
    55   55   54 1
    56   56   54 ar
    57   57   56 1
    58   58   56 ar
    59   59   58 1
    60   60   58 ar
    61   61   60 1
    62   62   53 ar
    63   63   62 1
    64   64   36 1
    65   65   64 1
    66   66   65 1
    67   67   65 1
    68   68   65 1
    69   69    7 1
    70   70   69 1
    71   71   69 1
    72   72   69 1
    73   73   72 ar
    74   74   73 1
    75   75   73 ar
    76   76   75 1
    77   77   75 ar
    78   78   77 1
    79   79   77 ar
    80   80   79 1
    81   81   72 ar
    82   82   81 1
    83   19   21 1
    84   36   38 1
    85   60   62 ar
    86   79   81 ar
@<TRIPOS>SUBSTRUCTURE
     1 RES1 1

@<TRIPOS>CRYSIN
  10.7247   11.3299   12.3872  90.0000 102.3410  90.0000   4 1

