# MOL2 file generated by ConQuest
# Please check atom types

@<TRIPOS>MOLECULE
QALSAZ
    65    69     2
SMALL
NO_CHARGES
****
Generated from CSD

@<TRIPOS>ATOM
      1 C1         1.2873    1.6856   10.2087 C.3       1 RES1    0.0000
      2 H1         0.5702    1.9049    9.5775 H         1 RES1    0.0000
      3 C2         1.5641    0.1486   10.1741 C.3       1 RES1    0.0000
      4 H2         2.4984    0.0042    9.9163 H         1 RES1    0.0000
      5 C3         2.2287    0.2215   12.5563 C.3       1 RES1    0.0000
      6 H3         3.1624    0.1005   12.2875 H         1 RES1    0.0000
      7 C4         1.9187    1.7549   12.6121 C.3       1 RES1    0.0000
      8 H4         1.5990    1.9983   13.5060 H         1 RES1    0.0000
      9 C5         3.1592    2.6189   12.2393 C.3       1 RES1    0.0000
     10 H5         2.8869    3.5600   12.2412 H         1 RES1    0.0000
     11 C6         2.5608    2.5135    9.8619 C.3       1 RES1    0.0000
     12 H6         2.3261    3.4645    9.8870 H         1 RES1    0.0000
     13 C7         0.8732    2.0762   11.5930 C.2       1 RES1    0.0000
     14 C8         0.6759   -0.5696    9.1910 C.ar      1 RES1    0.0000
     15 C9         1.1083   -0.8003    7.9050 C.ar      1 RES1    0.0000
     16 H7         1.9636   -0.5314    7.6572 H         1 RES1    0.0000
     17 C10        0.3009   -1.4209    6.9797 C.ar      1 RES1    0.0000
     18 H8         0.6109   -1.5645    6.1145 H         1 RES1    0.0000
     19 C11       -0.9549   -1.8271    7.3286 C.ar      1 RES1    0.0000
     20 H9        -1.5008   -2.2524    6.7067 H         1 RES1    0.0000
     21 C12       -1.3984   -1.6035    8.5971 C.ar      1 RES1    0.0000
     22 H10       -2.2538   -1.8752    8.8391 H         1 RES1    0.0000
     23 C13       -0.5951   -0.9801    9.5269 C.ar      1 RES1    0.0000
     24 H11       -0.9136   -0.8350   10.3891 H         1 RES1    0.0000
     25 C14        2.0162   -0.4699   13.8852 C.ar      1 RES1    0.0000
     26 C15        0.8192   -1.0763   14.2162 C.ar      1 RES1    0.0000
     27 H12        0.1077   -1.0494   13.6181 H         1 RES1    0.0000
     28 C16        0.6717   -1.7259   15.4352 C.ar      1 RES1    0.0000
     29 H13       -0.1323   -2.1497   15.6336 H         1 RES1    0.0000
     30 C17        1.6794   -1.7528   16.3388 C.ar      1 RES1    0.0000
     31 H14        1.5641   -2.1773   17.1592 H         1 RES1    0.0000
     32 C18        2.8653   -1.1513   16.0367 C.ar      1 RES1    0.0000
     33 H15        3.5614   -1.1612   16.6547 H         1 RES1    0.0000
     34 C19        3.0360   -0.5265   14.8130 C.ar      1 RES1    0.0000
     35 H16        3.8551   -0.1359   14.6125 H         1 RES1    0.0000
     36 C20        4.2875    2.4533   13.2241 C.ar      1 RES1    0.0000
     37 C21        4.1621    3.0145   14.4906 C.ar      1 RES1    0.0000
     38 H17        3.4036    3.5112   14.6977 H         1 RES1    0.0000
     39 C22        5.1435    2.8468   15.4423 C.ar      1 RES1    0.0000
     40 H18        5.0393    3.2260   16.2843 H         1 RES1    0.0000
     41 C23        6.2747    2.1250   15.1554 C.ar      1 RES1    0.0000
     42 H19        6.9315    2.0004   15.8017 H         1 RES1    0.0000
     43 C24        6.4245    1.5893   13.8994 C.ar      1 RES1    0.0000
     44 H20        7.1958    1.1110   13.6937 H         1 RES1    0.0000
     45 C25        5.4436    1.7514   12.9372 C.ar      1 RES1    0.0000
     46 H21        5.5622    1.3848   12.0901 H         1 RES1    0.0000
     47 C26        3.0864    2.1936    8.4804 C.ar      1 RES1    0.0000
     48 C27        4.2146    1.4223    8.2630 C.ar      1 RES1    0.0000
     49 H22        4.6997    1.1018    8.9902 H         1 RES1    0.0000
     50 C28        4.6303    1.1230    6.9772 C.ar      1 RES1    0.0000
     51 H23        5.3818    0.5916    6.8481 H         1 RES1    0.0000
     52 C29        3.9458    1.6021    5.8979 C.ar      1 RES1    0.0000
     53 H24        4.2349    1.4096    5.0349 H         1 RES1    0.0000
     54 C30        2.8273    2.3698    6.0979 C.ar      1 RES1    0.0000
     55 H25        2.3538    2.6932    5.3663 H         1 RES1    0.0000
     56 C31        2.3991    2.6663    7.3737 C.ar      1 RES1    0.0000
     57 H26        1.6403    3.1900    7.4939 H         1 RES1    0.0000
     58 N1         1.3644   -0.3814   11.5347 N.3       1 RES1    0.0000
     59 N2         3.5749    2.2651   10.8818 N.3       1 RES1    0.0000
     60 N3        -0.1967    2.7137   11.8549 N.2       1 RES1    0.0000
     61 O1        -0.3523    3.0697   13.2148 O.3       1 RES1    0.0000
     62 H27        1.4972   -1.2808   11.5515 H         1 RES1    0.0000
     63 H28        4.3565    2.7456   10.6913 H         1 RES1    0.0000
     64 H29       -1.1722    3.5806   13.2355 H         1 RES1    0.0000
     65 O2        -1.0384    2.9579   10.7405 Du        2 SUP2    0.0000
@<TRIPOS>BOND
     1    1    2 1
     2    3    1 1
     3    4    3 1
     4    5    6 1
     5    7    5 1
     6    8    7 1
     7    9    7 1
     8   10    9 1
     9   11    1 1
    10   12   11 1
    11   13    1 1
    12   14    3 1
    13   15   14 ar
    14   16   15 1
    15   17   15 ar
    16   18   17 1
    17   19   17 ar
    18   20   19 1
    19   21   19 ar
    20   22   21 1
    21   23   14 ar
    22   24   23 1
    23   25    5 1
    24   26   25 ar
    25   27   26 1
    26   28   26 ar
    27   29   28 1
    28   30   28 ar
    29   31   30 1
    30   32   30 ar
    31   33   32 1
    32   34   25 ar
    33   35   34 1
    34   36    9 1
    35   37   36 ar
    36   38   37 1
    37   39   37 ar
    38   40   39 1
    39   41   39 ar
    40   42   41 1
    41   43   41 ar
    42   44   43 1
    43   45   36 ar
    44   46   45 1
    45   47   11 1
    46   48   47 ar
    47   49   48 1
    48   50   48 ar
    49   51   50 1
    50   52   50 ar
    51   53   52 1
    52   54   52 ar
    53   55   54 1
    54   56   47 ar
    55   57   56 1
    56   58    3 1
    57   59    9 1
    58   60   13 2
    59   61   60 1
    60   62   58 1
    61   63   59 1
    62   64   61 1
    63    5   58 1
    64    7   13 1
    65   11   59 1
    66   21   23 ar
    67   32   34 ar
    68   43   45 ar
    69   54   56 ar
@<TRIPOS>SUBSTRUCTURE
     1 RES1 1
     2 SUP2 65

@<TRIPOS>CRYSIN
  14.4165    7.0762   24.5488  90.0000  96.9130  90.0000  14 1

