# MOL2 file generated by ConQuest
# Please check atom types

@<TRIPOS>MOLECULE
QALWOR
    36    35     1
SMALL
NO_CHARGES
****
Generated from CSD

@<TRIPOS>ATOM
      1 C1         2.2733   -0.5922   12.9224 C.3       1 RES1    0.0000
      2 H1         3.1685   -0.4224   13.3336 H         1 RES1    0.0000
      3 C2         2.0725   -2.1226   12.8944 C.3       1 RES1    0.0000
      4 H2         1.6782   -2.4244   13.7501 H         1 RES1    0.0000
      5 H3         1.4492   -2.3651   12.1646 H         1 RES1    0.0000
      6 C3         2.3352   -0.0690   11.4939 C.3       1 RES1    0.0000
      7 H4         2.9536   -0.6160   10.9486 H         1 RES1    0.0000
      8 H5         1.4388   -0.0884   11.0762 H         1 RES1    0.0000
      9 C4         1.6274    0.9481   14.9173 C.3       1 RES1    0.0000
     10 H6         0.7788    1.3527   15.2572 H         1 RES1    0.0000
     11 C5         2.2170    0.1060   16.0475 C.3       1 RES1    0.0000
     12 H7         3.1342   -0.1769   15.8037 H         1 RES1    0.0000
     13 H8         2.2752    0.6545   16.8696 H         1 RES1    0.0000
     14 C6         2.5770    2.0913   14.5964 C.3       1 RES1    0.0000
     15 H9         2.8764    2.5378   15.4274 H         1 RES1    0.0000
     16 H10        3.3730    1.7553   14.1129 H         1 RES1    0.0000
     17 N1         1.2815    0.1181   13.7461 N.3       1 RES1    0.0000
     18 N2        -0.0276   -0.1892   13.5671 N.pl3     1 RES1    0.0000
     19 N3         4.0985   -2.9634   13.8692 N.pl3     1 RES1    0.0000
     20 N4         2.5238    2.1005   10.4951 N.pl3     1 RES1    0.0000
     21 N5         0.2320   -0.7851   17.0479 N.pl3     1 RES1    0.0000
     22 N6         2.2464    4.3478   13.8659 N.pl3     1 RES1    0.0000
     23 O1        -0.8578    0.2354   14.3798 O.2       1 RES1    0.0000
     24 O2        -0.3147   -0.8825   12.5849 O.2       1 RES1    0.0000
     25 O3         3.3485   -2.7776   12.6859 O.3       1 RES1    0.0000
     26 O4         5.1461   -3.5093   13.6686 O.2       1 RES1    0.0000
     27 O5         3.6173   -2.5777   14.9097 O.2       1 RES1    0.0000
     28 O6         2.8201    1.2953   11.6054 O.3       1 RES1    0.0000
     29 O7         2.8825    3.2418   10.6574 O.2       1 RES1    0.0000
     30 O8         1.9850    1.5995    9.5469 O.2       1 RES1    0.0000
     31 O9         1.4094   -1.0603   16.3053 O.3       1 RES1    0.0000
     32 O10       -0.4598   -1.7621   17.1641 O.2       1 RES1    0.0000
     33 O11        0.0514    0.3286   17.4467 O.2       1 RES1    0.0000
     34 O12        1.8288    3.0149   13.7651 O.3       1 RES1    0.0000
     35 O13        3.0999    4.6326   14.6692 O.2       1 RES1    0.0000
     36 O14        1.6556    5.0682   13.1027 O.2       1 RES1    0.0000
@<TRIPOS>BOND
     1    1    2 1
     2    3    1 1
     3    4    3 1
     4    5    3 1
     5    6    1 1
     6    7    6 1
     7    8    6 1
     8    9   10 1
     9   11    9 1
    10   12   11 1
    11   13   11 1
    12   14    9 1
    13   15   14 1
    14   16   14 1
    15   17    1 1
    16   18   17 1
    17   19   25 1
    18   20   28 1
    19   21   31 1
    20   22   34 1
    21   23   18 2
    22   24   18 2
    23   25    3 1
    24   26   19 2
    25   27   19 2
    26   28    6 1
    27   29   20 2
    28   30   20 2
    29   31   11 1
    30   32   21 2
    31   33   21 2
    32   34   14 1
    33   35   22 2
    34   36   22 2
    35    9   17 1
@<TRIPOS>SUBSTRUCTURE
     1 RES1 1

@<TRIPOS>CRYSIN
   6.1227   10.4051   22.3943  90.0000  90.0000  90.0000  19 1

