# MOL2 file generated by ConQuest
# Please check atom types

@<TRIPOS>MOLECULE
QAMJIA
   120   124     4
SMALL
NO_CHARGES
****
Generated from CSD

@<TRIPOS>ATOM
      1 N1        -0.2717   13.3319    5.7987 N.pl3     1 RES1    0.0000
      2 N2         3.4077   10.8378    9.1896 N.pl3     1 RES1    0.0000
      3 H1         3.9540   11.3981    9.5929 H         1 RES1    0.0000
      4 O1        -1.0246   12.6349    5.1210 O.2       1 RES1    0.0000
      5 O2        -0.3646   14.5720    5.8176 O.2       1 RES1    0.0000
      6 O3         3.9602    5.5397   10.8424 O.3       1 RES1    0.0000
      7 C1         0.7437   12.6794    6.5895 C.ar      1 RES1    0.0000
      8 C2         0.8727   11.3086    6.5518 C.ar      1 RES1    0.0000
      9 H2         0.3402   10.8025    5.9484 H         1 RES1    0.0000
     10 C3         1.5406   13.4505    7.4387 C.ar      1 RES1    0.0000
     11 H3         1.4633   14.3971    7.4515 H         1 RES1    0.0000
     12 C4         1.7553   10.6676    7.3723 C.ar      1 RES1    0.0000
     13 H4         1.8396    9.7220    7.3307 H         1 RES1    0.0000
     14 C5         2.4438   12.8008    8.2601 C.ar      1 RES1    0.0000
     15 H5         3.0108   13.3166    8.8220 H         1 RES1    0.0000
     16 C6         2.5452   11.4044    8.2859 C.ar      1 RES1    0.0000
     17 C7         3.5409    9.4845    9.5631 C.ar      1 RES1    0.0000
     18 C8         2.4445    8.6189    9.6692 C.ar      1 RES1    0.0000
     19 H6         1.5703    8.9311    9.4631 H         1 RES1    0.0000
     20 C9         4.7906    9.0128    9.9159 C.ar      1 RES1    0.0000
     21 H7         5.5390    9.5949    9.8614 H         1 RES1    0.0000
     22 C10        2.6324    7.3148   10.0715 C.ar      1 RES1    0.0000
     23 H8         1.8896    6.7254   10.1062 H         1 RES1    0.0000
     24 C11        4.9766    7.7119   10.3469 C.ar      1 RES1    0.0000
     25 H9         5.8431    7.4057   10.5877 H         1 RES1    0.0000
     26 C12        3.8828    6.8539   10.4223 C.ar      1 RES1    0.0000
     27 C13        5.2600    5.0442   11.2229 C.3       1 RES1    0.0000
     28 H10        5.8632    5.0823   10.4510 H         1 RES1    0.0000
     29 H11        5.1801    4.1171   11.5281 H         1 RES1    0.0000
     30 H12        5.6204    5.5978   11.9472 H         1 RES1    0.0000
     31 N3         4.6094   13.7219    5.9216 N.pl3     2 RES2    0.0000
     32 N4         8.4471   11.1441    9.0370 N.pl3     2 RES2    0.0000
     33 H13        9.0002   11.6782    9.4660 H         2 RES2    0.0000
     34 O4         3.8331   13.0722    5.2418 O.2       2 RES2    0.0000
     35 O5         4.5357   14.9743    5.9929 O.2       2 RES2    0.0000
     36 O6         9.2316    5.7278   10.0487 O.3       2 RES2    0.0000
     37 C14        5.6598   13.0586    6.6509 C.ar      2 RES2    0.0000
     38 C15        5.6370   11.6820    6.7292 C.ar      2 RES2    0.0000
     39 H14        4.9696   11.1909    6.2635 H         2 RES2    0.0000
     40 C16        6.6168   13.7940    7.3326 C.ar      2 RES2    0.0000
     41 H15        6.6175   14.7431    7.2801 H         2 RES2    0.0000
     42 C17        6.5697   11.0221    7.4733 C.ar      2 RES2    0.0000
     43 H16        6.5616   10.0728    7.5060 H         2 RES2    0.0000
     44 C18        7.5615   13.1443    8.0837 C.ar      2 RES2    0.0000
     45 H17        8.2304   13.6461    8.5336 H         2 RES2    0.0000
     46 C19        7.5518   11.7410    8.1977 C.ar      2 RES2    0.0000
     47 C20        8.5800    9.7606    9.2897 C.ar      2 RES2    0.0000
     48 C21        8.7592    8.8310    8.2621 C.ar      2 RES2    0.0000
     49 H18        8.7557    9.1194    7.3574 H         2 RES2    0.0000
     50 C22        8.5825    9.3063   10.5917 C.ar      2 RES2    0.0000
     51 H19        8.4431    9.9268   11.2972 H         2 RES2    0.0000
     52 C23        8.9389    7.4991    8.5544 C.ar      2 RES2    0.0000
     53 H20        9.0424    6.8713    7.8489 H         2 RES2    0.0000
     54 C24        8.7837    7.9685   10.8999 C.ar      2 RES2    0.0000
     55 H21        8.7912    7.6787   11.8046 H         2 RES2    0.0000
     56 C25        8.9718    7.0639    9.8763 C.ar      2 RES2    0.0000
     57 C26        9.3340    5.2374   11.3785 C.3       2 RES2    0.0000
     58 H22       10.0625    5.7014   11.8432 H         2 RES2    0.0000
     59 H23        9.5186    4.2749   11.3596 H         2 RES2    0.0000
     60 H24        8.4910    5.3977   11.8521 H         2 RES2    0.0000
     61 N5        -1.4671   13.2542    0.8839 N.pl3     3 RES3    0.0000
     62 N6         2.3166   15.8071    4.0607 N.pl3     3 RES3    0.0000
     63 H25        2.8646   15.2657    4.4868 H         3 RES3    0.0000
     64 O7        -2.2352   13.9286    0.1744 O.2       3 RES3    0.0000
     65 O8        -1.5586   12.0231    0.9622 O.2       3 RES3    0.0000
     66 O9         3.1582   21.2164    5.0823 O.3       3 RES3    0.0000
     67 C27       -0.4684   13.9213    1.6558 C.ar      3 RES3    0.0000
     68 C28       -0.4215   15.3055    1.6518 C.ar      3 RES3    0.0000
     69 H26       -1.0275   15.8024    1.1158 H         3 RES3    0.0000
     70 C29        0.4492   13.1650    2.3970 C.ar      3 RES3    0.0000
     71 H27        0.4306   12.2149    2.3633 H         3 RES3    0.0000
     72 C30        0.5157   15.9568    2.4336 C.ar      3 RES3    0.0000
     73 H28        0.5547   16.9064    2.4366 H         3 RES3    0.0000
     74 C31        1.3663   13.8112    3.1649 C.ar      3 RES3    0.0000
     75 H29        1.9903   13.3072    3.6723 H         3 RES3    0.0000
     76 C32        1.4049   15.2160    3.2194 C.ar      3 RES3    0.0000
     77 C33        2.4691   17.1894    4.3183 C.ar      3 RES3    0.0000
     78 C34        2.6799   18.1096    3.2987 C.ar      3 RES3    0.0000
     79 H30        2.6845   17.8174    2.3940 H         3 RES3    0.0000
     80 C35        2.4821   17.6357    5.6293 C.ar      3 RES3    0.0000
     81 H31        2.3290   17.0171    6.3338 H         3 RES3    0.0000
     82 C36        2.8818   19.4464    3.5900 C.ar      3 RES3    0.0000
     83 H32        2.9946   20.0702    2.8835 H         3 RES3    0.0000
     84 C37        2.7146   18.9747    5.9325 C.ar      3 RES3    0.0000
     85 H33        2.7319   19.2651    6.8372 H         3 RES3    0.0000
     86 C38        2.9212   19.8807    4.9030 C.ar      3 RES3    0.0000
     87 C39        3.2915   21.7076    6.4121 C.3       3 RES3    0.0000
     88 H34        2.4504   21.5721    6.8966 H         3 RES3    0.0000
     89 H35        3.5023   22.6643    6.3883 H         3 RES3    0.0000
     90 H36        4.0135   21.2260    6.8679 H         3 RES3    0.0000
     91 N7         3.5907   13.3738    0.9443 N.pl3     4 RES4    0.0000
     92 N8         7.3355   15.8655    4.2361 N.pl3     4 RES4    0.0000
     93 H37        7.9073   15.3104    4.6087 H         4 RES4    0.0000
     94 O10        2.8397   14.0666    0.2418 O.2       4 RES4    0.0000
     95 O11        3.4836   12.1466    1.0286 O.2       4 RES4    0.0000
     96 O12        7.9177   21.1749    5.8572 O.3       4 RES4    0.0000
     97 C40        4.6105   14.0331    1.7192 C.ar      4 RES4    0.0000
     98 C41        4.7205   15.4142    1.6677 C.ar      4 RES4    0.0000
     99 H38        4.1734   15.9177    1.0771 H         4 RES4    0.0000
    100 C42        5.4838   13.2716    2.4941 C.ar      4 RES4    0.0000
    101 H39        5.4562   12.3232    2.4574 H         4 RES4    0.0000
    102 C43        5.6399   16.0491    2.4881 C.ar      4 RES4    0.0000
    103 H40        5.7236   16.9959    2.4594 H         4 RES4    0.0000
    104 C44        6.3750   13.8999    3.3017 C.ar      4 RES4    0.0000
    105 H41        6.9641   13.3825    3.8377 H         4 RES4    0.0000
    106 C45        6.4427   15.3066    3.3591 C.ar      4 RES4    0.0000
    107 C46        7.4535   17.2230    4.6176 C.ar      4 RES4    0.0000
    108 C47        6.3798   18.0855    4.7494 C.ar      4 RES4    0.0000
    109 H42        5.5022   17.7727    4.5631 H         4 RES4    0.0000
    110 C48        8.7247   17.7040    4.9436 C.ar      4 RES4    0.0000
    111 H43        9.4736   17.1230    4.8693 H         4 RES4    0.0000
    112 C49        6.5639   19.3958    5.1477 C.ar      4 RES4    0.0000
    113 H44        5.8199   19.9831    5.2082 H         4 RES4    0.0000
    114 C50        8.9180   19.0027    5.3697 C.ar      4 RES4    0.0000
    115 H45        9.7911   19.3028    5.5976 H         4 RES4    0.0000
    116 C51        7.8572   19.8583    5.4658 C.ar      4 RES4    0.0000
    117 C52        9.1983   21.6872    6.2030 C.3       4 RES4    0.0000
    118 H46        9.5877   21.1389    6.9165 H         4 RES4    0.0000
    119 H47        9.1081   22.6125    6.5132 H         4 RES4    0.0000
    120 H48        9.7827   21.6639    5.4162 H         4 RES4    0.0000
@<TRIPOS>BOND
     1    1    4 2
     2    2    3 1
     3    5    1 2
     4    6   26 1
     5    7    1 1
     6    8    7 ar
     7    9    8 1
     8   10    7 ar
     9   11   10 1
    10   12    8 ar
    11   13   12 1
    12   14   10 ar
    13   15   14 1
    14   16    2 1
    15   17    2 1
    16   18   17 ar
    17   19   18 1
    18   20   17 ar
    19   21   20 1
    20   22   18 ar
    21   23   22 1
    22   24   20 ar
    23   25   24 1
    24   26   22 ar
    25   27    6 1
    26   28   27 1
    27   29   27 1
    28   30   27 1
    29   31   34 2
    30   32   33 1
    31   35   31 2
    32   36   56 1
    33   37   31 1
    34   38   37 ar
    35   39   38 1
    36   40   37 ar
    37   41   40 1
    38   42   38 ar
    39   43   42 1
    40   44   40 ar
    41   45   44 1
    42   46   32 1
    43   47   32 1
    44   48   47 ar
    45   49   48 1
    46   50   47 ar
    47   51   50 1
    48   52   48 ar
    49   53   52 1
    50   54   50 ar
    51   55   54 1
    52   56   52 ar
    53   57   36 1
    54   58   57 1
    55   59   57 1
    56   60   57 1
    57   61   64 2
    58   62   63 1
    59   65   61 2
    60   66   86 1
    61   67   61 1
    62   68   67 ar
    63   69   68 1
    64   70   67 ar
    65   71   70 1
    66   72   68 ar
    67   73   72 1
    68   74   70 ar
    69   75   74 1
    70   76   62 1
    71   77   62 1
    72   78   77 ar
    73   79   78 1
    74   80   77 ar
    75   81   80 1
    76   82   78 ar
    77   83   82 1
    78   84   80 ar
    79   85   84 1
    80   86   82 ar
    81   87   66 1
    82   88   87 1
    83   89   87 1
    84   90   87 1
    85   91   94 2
    86   92   93 1
    87   95   91 2
    88   96  116 1
    89   97   91 1
    90   98   97 ar
    91   99   98 1
    92  100   97 ar
    93  101  100 1
    94  102   98 ar
    95  103  102 1
    96  104  100 ar
    97  105  104 1
    98  106   92 1
    99  107   92 1
   100  108  107 ar
   101  109  108 1
   102  110  107 ar
   103  111  110 1
   104  112  108 ar
   105  113  112 1
   106  114  110 ar
   107  115  114 1
   108  116  112 ar
   109  117   96 1
   110  118  117 1
   111  119  117 1
   112  120  117 1
   113   12   16 ar
   114   14   16 ar
   115   24   26 ar
   116   42   46 ar
   117   44   46 ar
   118   54   56 ar
   119   72   76 ar
   120   74   76 ar
   121   84   86 ar
   122  102  106 ar
   123  104  106 ar
   124  114  116 ar
@<TRIPOS>SUBSTRUCTURE
     1 RES1 1
     2 RES2 31
     3 RES3 61
     4 RES4 91

@<TRIPOS>CRYSIN
   9.9620   23.5400   10.2850  90.0000 105.5410  90.0000   4 1

