# MOL2 file generated by ConQuest
# Please check atom types

@<TRIPOS>MOLECULE
QAMNAT01
    52    56     2
SMALL
NO_CHARGES
****
Generated from CSD

@<TRIPOS>ATOM
      1 N1         5.4421    3.8847   11.1374 N.pl3     1 RES1    0.0000
      2 O1         5.9597    3.1789   11.9773 O.2       1 RES1    0.0000
      3 O2         5.9743    4.8911   10.6725 O.2       1 RES1    0.0000
      4 C1         1.4443    3.0641   10.1647 C.ar      1 RES1    0.0000
      5 H1         0.5459    2.8958    9.9933 H         1 RES1    0.0000
      6 C2         1.7950    4.2002   10.8257 C.ar      1 RES1    0.0000
      7 H2         1.1416    4.8063   11.0903 H         1 RES1    0.0000
      8 C3         3.1298    4.4534   11.1042 C.ar      1 RES1    0.0000
      9 H3         3.3732    5.2179   11.5745 H         1 RES1    0.0000
     10 C4         4.0845    3.5642   10.6810 C.ar      1 RES1    0.0000
     11 C5         3.7942    2.3782    9.9440 C.ar      1 RES1    0.0000
     12 C6         4.7746    1.4329    9.4180 C.ar      1 RES1    0.0000
     13 C7         6.1677    1.6649    9.3440 C.ar      1 RES1    0.0000
     14 H4         6.5070    2.4817    9.6301 H         1 RES1    0.0000
     15 C8         7.0274    0.7158    8.8598 C.ar      1 RES1    0.0000
     16 H5         7.9385    0.8992    8.8137 H         1 RES1    0.0000
     17 C9         6.5528   -0.5200    8.4366 C.ar      1 RES1    0.0000
     18 H6         7.1457   -1.1748    8.1463 H         1 RES1    0.0000
     19 C10        5.2191   -0.7657    8.4495 C.ar      1 RES1    0.0000
     20 H7         4.9061   -1.5925    8.1570 H         1 RES1    0.0000
     21 C11        4.2926    0.1983    8.8952 C.ar      1 RES1    0.0000
     22 C12        2.8982   -0.0249    8.7677 C.ar      1 RES1    0.0000
     23 H8         2.5964   -0.8343    8.4238 H         1 RES1    0.0000
     24 C13        2.0041    0.9054    9.1308 C.ar      1 RES1    0.0000
     25 H9         1.0993    0.7495    8.9894 H         1 RES1    0.0000
     26 C14        2.4210    2.1325    9.7340 C.ar      1 RES1    0.0000
     27 N2        10.1123    3.7762    9.7811 N.pl3     2 RES2    0.0000
     28 O3         9.9530    4.6891    8.9830 O.2       2 RES2    0.0000
     29 O4         9.2150    3.0429   10.1486 O.2       2 RES2    0.0000
     30 C15       13.7754    3.3285   11.7695 C.ar      2 RES2    0.0000
     31 H10       14.5585    3.2400   12.2623 H         2 RES2    0.0000
     32 C16       12.9871    4.4322   11.9516 C.ar      2 RES2    0.0000
     33 H11       13.2475    5.1019   12.5430 H         2 RES2    0.0000
     34 C17       11.8052    4.5432   11.2553 C.ar      2 RES2    0.0000
     35 H12       11.2493    5.2752   11.3956 H         2 RES2    0.0000
     36 C18       11.4517    3.5804   10.3586 C.ar      2 RES2    0.0000
     37 C19       12.2390    2.4356   10.0725 C.ar      2 RES2    0.0000
     38 C20       11.9319    1.3992    9.0858 C.ar      2 RES2    0.0000
     39 C21       10.9101    1.4778    8.1184 C.ar      2 RES2    0.0000
     40 H13       10.4091    2.2585    8.0520 H         2 RES2    0.0000
     41 C22       10.6347    0.4340    7.2732 C.ar      2 RES2    0.0000
     42 H14        9.9529    0.5151    6.6454 H         2 RES2    0.0000
     43 C23       11.3675   -0.7458    7.3460 C.ar      2 RES2    0.0000
     44 H15       11.1493   -1.4691    6.8039 H         2 RES2    0.0000
     45 C24       12.4038   -0.8343    8.2149 C.ar      2 RES2    0.0000
     46 H16       12.9108   -1.6125    8.2395 H         2 RES2    0.0000
     47 C25       12.7290    0.2295    9.0848 C.ar      2 RES2    0.0000
     48 C26       13.8768    0.1347    9.9322 C.ar      2 RES2    0.0000
     49 H17       14.3891   -0.6410    9.9258 H         2 RES2    0.0000
     50 C27       14.2213    1.1498   10.7335 C.ar      2 RES2    0.0000
     51 H18       15.0040    1.0875   11.2317 H         2 RES2    0.0000
     52 C28       13.4184    2.3209   10.8439 C.ar      2 RES2    0.0000
@<TRIPOS>BOND
     1    1    2 2
     2    3    1 2
     3    4    5 1
     4    6    4 ar
     5    7    6 1
     6    8    6 ar
     7    9    8 1
     8   10    1 1
     9   11   10 ar
    10   12   11 ar
    11   13   12 ar
    12   14   13 1
    13   15   13 ar
    14   16   15 1
    15   17   15 ar
    16   18   17 1
    17   19   17 ar
    18   20   19 1
    19   21   12 ar
    20   22   21 ar
    21   23   22 1
    22   24   22 ar
    23   25   24 1
    24   26    4 ar
    25   27   28 2
    26   29   27 2
    27   30   31 1
    28   32   30 ar
    29   33   32 1
    30   34   32 ar
    31   35   34 1
    32   36   27 1
    33   37   36 ar
    34   38   37 ar
    35   39   38 ar
    36   40   39 1
    37   41   39 ar
    38   42   41 1
    39   43   41 ar
    40   44   43 1
    41   45   43 ar
    42   46   45 1
    43   47   38 ar
    44   48   47 ar
    45   49   48 1
    46   50   48 ar
    47   51   50 1
    48   52   30 ar
    49    8   10 ar
    50   11   26 ar
    51   19   21 ar
    52   24   26 ar
    53   34   36 ar
    54   37   52 ar
    55   45   47 ar
    56   50   52 ar
@<TRIPOS>SUBSTRUCTURE
     1 RES1 1
     2 RES2 27

@<TRIPOS>CRYSIN
  15.9340   12.4710   11.4360  90.0000 110.4800  90.0000  14 1

