# MOL2 file generated by ConQuest
# Please check atom types

@<TRIPOS>MOLECULE
QAMNAT
    26    28     1
SMALL
NO_CHARGES
****
Generated from CSD

@<TRIPOS>ATOM
      1 N1         5.7446    3.8165    0.8426 N.pl3     1 RES1    0.0000
      2 O1         6.6901    3.1289    0.4723 O.2       1 RES1    0.0000
      3 O2         5.8509    4.7561    1.6297 O.2       1 RES1    0.0000
      4 C1         2.0672    3.1274   -1.1135 C.ar      1 RES1    0.0000
      5 C2         2.8015    4.2577   -1.3585 C.ar      1 RES1    0.0000
      6 C3         3.9923    4.4671   -0.6531 C.ar      1 RES1    0.0000
      7 C4         4.3991    3.5394    0.2714 C.ar      1 RES1    0.0000
      8 C5         5.0809    1.5265    2.5598 C.ar      1 RES1    0.0000
      9 C6         5.4425    0.5102    3.4127 C.ar      1 RES1    0.0000
     10 C7         4.7698   -0.7137    3.3800 C.ar      1 RES1    0.0000
     11 C8         3.6963   -0.8687    2.5365 C.ar      1 RES1    0.0000
     12 C9         2.1275   -0.0042    0.8378 C.ar      1 RES1    0.0000
     13 C10        1.7133    0.9679    0.0126 C.ar      1 RES1    0.0000
     14 C11        3.6654    2.3727    0.6111 C.ar      1 RES1    0.0000
     15 C12        4.0379    1.3767    1.6133 C.ar      1 RES1    0.0000
     16 C13        3.2927    0.1605    1.6595 C.ar      1 RES1    0.0000
     17 C14        2.4706    2.1786   -0.1480 C.ar      1 RES1    0.0000
     18 H1         1.2626    2.8832   -1.6325 H         1 RES1    0.0000
     19 H2         2.5428    4.8626   -2.0779 H         1 RES1    0.0000
     20 H3         4.5248    5.2336   -0.8163 H         1 RES1    0.0000
     21 H4         5.5436    2.3840    2.5913 H         1 RES1    0.0000
     22 H5         6.1914    0.6735    4.0667 H         1 RES1    0.0000
     23 H6         5.0283   -1.4329    3.9609 H         1 RES1    0.0000
     24 H7         3.1762   -1.7018    2.5169 H         1 RES1    0.0000
     25 H8         1.6748   -0.8167    0.9043 H         1 RES1    0.0000
     26 H9         0.9385    0.8465   -0.5491 H         1 RES1    0.0000
@<TRIPOS>BOND
     1    1    2 2
     2    3    1 2
     3    4    5 ar
     4    5    6 ar
     5    6    7 ar
     6    7    1 1
     7    8    9 ar
     8    9   10 ar
     9   10   11 ar
    10   11   16 ar
    11   12   13 ar
    12   13   17 ar
    13   14    7 ar
    14   15    8 ar
    15   16   12 ar
    16   17    4 ar
    17   18    4 1
    18   19    5 1
    19   20    6 1
    20   21    8 1
    21   22    9 1
    22   23   10 1
    23   24   11 1
    24   25   12 1
    25   26   13 1
    26   14   15 ar
    27   14   17 ar
    28   15   16 ar
@<TRIPOS>SUBSTRUCTURE
     1 RES1 1

@<TRIPOS>CRYSIN
   8.0610   12.4490   11.1320  90.0000 109.7300  90.0000  14 1

