# MOL2 file generated by ConQuest
# Please check atom types

@<TRIPOS>MOLECULE
QAMZOV
    40    42     1
SMALL
NO_CHARGES
****
Generated from CSD

@<TRIPOS>ATOM
      1 C1         4.2645    1.1484    4.5444 C.2       1 RES1    0.0000
      2 C2         5.3755    0.2599    5.0402 C.3       1 RES1    0.0000
      3 H1         4.9859   -0.5874    5.3080 H         1 RES1    0.0000
      4 H2         5.7531    0.6671    5.8354 H         1 RES1    0.0000
      5 C3         6.5212   -0.0306    4.0661 C.3       1 RES1    0.0000
      6 H3         7.2827   -0.3819    4.5526 H         1 RES1    0.0000
      7 H4         6.2399   -0.6975    3.4206 H         1 RES1    0.0000
      8 C4         6.9229    1.2526    3.3375 C.3       1 RES1    0.0000
      9 C5         7.8762    1.1224    2.1401 C.3       1 RES1    0.0000
     10 H5         7.7196    0.2916    1.6653 H         1 RES1    0.0000
     11 H6         8.8004    1.1487    2.4324 H         1 RES1    0.0000
     12 C6         7.5461    2.3426    1.2419 C.3       1 RES1    0.0000
     13 H7         8.2371    3.0187    1.3226 H         1 RES1    0.0000
     14 H8         7.4860    2.0713    0.3122 H         1 RES1    0.0000
     15 C7         6.1898    2.8952    1.7319 C.3       1 RES1    0.0000
     16 H9         6.3043    3.7157    2.2371 H         1 RES1    0.0000
     17 H10        5.5856    3.0589    0.9905 H         1 RES1    0.0000
     18 C8         5.6865    1.7598    2.6195 C.3       1 RES1    0.0000
     19 H11        5.3646    1.0430    2.0348 H         1 RES1    0.0000
     20 C9         7.5024    2.2774    4.3199 C.3       1 RES1    0.0000
     21 H12        7.7434    3.0756    3.8439 H         1 RES1    0.0000
     22 H13        8.2806    1.9097    4.7444 H         1 RES1    0.0000
     23 H14        6.8439    2.4892    4.9864 H         1 RES1    0.0000
     24 C10        3.3563    3.9974    3.6615 C.3       1 RES1    0.0000
     25 H15        4.2096    4.4247    3.8334 H         1 RES1    0.0000
     26 H16        2.9159    3.8405    4.5117 H         1 RES1    0.0000
     27 C11        2.5074    4.8773    2.8008 C.ar      1 RES1    0.0000
     28 C12        2.8202    5.0886    1.4571 C.ar      1 RES1    0.0000
     29 H17        3.5529    4.6570    1.0806 H         1 RES1    0.0000
     30 C13        2.0634    5.9218    0.6923 C.ar      1 RES1    0.0000
     31 H18        2.2709    6.0458   -0.2058 H         1 RES1    0.0000
     32 C14        0.9936    6.5784    1.2466 C.ar      1 RES1    0.0000
     33 H19        0.4844    7.1563    0.7250 H         1 RES1    0.0000
     34 C15        0.6738    6.3860    2.5657 C.ar      1 RES1    0.0000
     35 H20       -0.0541    6.8305    2.9364 H         1 RES1    0.0000
     36 C16        1.4281    5.5352    3.3422 C.ar      1 RES1    0.0000
     37 H21        1.2075    5.4055    4.2357 H         1 RES1    0.0000
     38 N1         4.6292    2.0664    3.5720 N.am      1 RES1    0.0000
     39 O1         3.1514    1.1303    5.0392 O.2       1 RES1    0.0000
     40 O2         3.5602    2.7475    2.9732 O.3       1 RES1    0.0000
@<TRIPOS>BOND
     1    1    2 1
     2    2    3 1
     3    4    2 1
     4    5    2 1
     5    6    5 1
     6    7    5 1
     7    8    5 1
     8    9    8 1
     9   10    9 1
    10   11    9 1
    11   12    9 1
    12   13   12 1
    13   14   12 1
    14   15   12 1
    15   16   15 1
    16   17   15 1
    17   18    8 1
    18   19   18 1
    19   20    8 1
    20   21   20 1
    21   22   20 1
    22   23   20 1
    23   24   25 1
    24   26   24 1
    25   27   24 1
    26   28   27 ar
    27   29   28 1
    28   30   28 ar
    29   31   30 1
    30   32   30 ar
    31   33   32 1
    32   34   32 ar
    33   35   34 1
    34   36   27 ar
    35   37   36 1
    36   38    1 1
    37   39    1 2
    38   40   24 1
    39   15   18 1
    40   18   38 1
    41   34   36 ar
    42   38   40 1
@<TRIPOS>SUBSTRUCTURE
     1 RES1 1

@<TRIPOS>CRYSIN
   7.6550    8.2390   11.8700  97.3600  94.2800 105.8400   2 1

