# MOL2 file generated by ConQuest
# Please check atom types

@<TRIPOS>MOLECULE
QANHET
    67    69     1
SMALL
NO_CHARGES
****
Generated from CSD

@<TRIPOS>ATOM
      1 O1         0.0465   -3.5615   -1.0880 O.2       1 RES1    0.0000
      2 O2        -0.2049   -2.2983   -2.8070 O.2       1 RES1    0.0000
      3 O3         3.8304    1.2345    9.2211 O.2       1 RES1    0.0000
      4 O4         4.5818    3.1292    9.9294 O.2       1 RES1    0.0000
      5 O5         7.7520    1.5150    8.8352 O.2       1 RES1    0.0000
      6 O6         8.2480    3.3866    9.7632 O.2       1 RES1    0.0000
      7 N1         3.8203    6.1080    1.9947 N.3       1 RES1    0.0000
      8 N2         0.2350   -2.5083   -1.6860 N.pl3     1 RES1    0.0000
      9 N3         3.4105    2.7558    0.3811 N.2       1 RES1    0.0000
     10 N4         3.9977    2.4471    9.1048 N.pl3     1 RES1    0.0000
     11 N5         2.0612    6.2502    4.2640 N.2       1 RES1    0.0000
     12 N6         7.7950    2.7309    8.8373 N.pl3     1 RES1    0.0000
     13 N7         6.2315    6.6930    4.0085 N.2       1 RES1    0.0000
     14 C1         2.3502    0.5974    0.2316 C.ar      1 RES1    0.0000
     15 C2         1.8801   -0.4934    0.9618 C.ar      1 RES1    0.0000
     16 C3         1.1963   -1.5245    0.3354 C.ar      1 RES1    0.0000
     17 C4         0.9956   -1.4445   -1.0236 C.ar      1 RES1    0.0000
     18 C5         1.4633   -0.3827   -1.7835 C.ar      1 RES1    0.0000
     19 C6         2.1482    0.6350   -1.1466 C.ar      1 RES1    0.0000
     20 C7         3.0252    1.6936    0.9462 C.2       1 RES1    0.0000
     21 C8         4.0323    3.7633    1.2257 C.3       1 RES1    0.0000
     22 C9         3.3646    5.1168    1.0125 C.3       1 RES1    0.0000
     23 C10        2.4592    4.3367    5.6581 C.ar      1 RES1    0.0000
     24 C11        2.4331    2.9539    5.7597 C.ar      1 RES1    0.0000
     25 C12        2.9215    2.3264    6.8942 C.ar      1 RES1    0.0000
     26 C13        3.4466    3.1101    7.9140 C.ar      1 RES1    0.0000
     27 C14        3.4897    4.4894    7.8441 C.ar      1 RES1    0.0000
     28 C15        2.9777    5.0936    6.7094 C.ar      1 RES1    0.0000
     29 C16        1.9639    5.0066    4.4355 C.2       1 RES1    0.0000
     30 C17        1.6273    6.7677    2.9746 C.3       1 RES1    0.0000
     31 C18        2.8464    7.1955    2.1620 C.3       1 RES1    0.0000
     32 C19        6.4204    4.7480    5.3946 C.ar      1 RES1    0.0000
     33 C20        6.3382    3.3715    5.4726 C.ar      1 RES1    0.0000
     34 C21        6.7915    2.7012    6.5945 C.ar      1 RES1    0.0000
     35 C22        7.2929    3.4433    7.6473 C.ar      1 RES1    0.0000
     36 C23        7.3785    4.8187    7.6178 C.ar      1 RES1    0.0000
     37 C24        6.9353    5.4627    6.4732 C.ar      1 RES1    0.0000
     38 C25        5.9942    5.4689    4.1656 C.2       1 RES1    0.0000
     39 C26        5.8367    7.3899    2.7779 C.3       1 RES1    0.0000
     40 C27        5.1547    6.6101    1.6620 C.3       1 RES1    0.0000
     41 H1         2.0293   -0.5310    1.8993 H         1 RES1    0.0000
     42 H2         0.8749   -2.2679    0.8323 H         1 RES1    0.0000
     43 H3         1.3161   -0.3562   -2.7220 H         1 RES1    0.0000
     44 H4         2.4836    1.3655   -1.6522 H         1 RES1    0.0000
     45 H5         3.1784    1.5975    1.8786 H         1 RES1    0.0000
     46 H6         4.9957    3.8302    1.0090 H         1 RES1    0.0000
     47 H7         3.9483    3.4976    2.1754 H         1 RES1    0.0000
     48 H8         3.5702    5.4418    0.1008 H         1 RES1    0.0000
     49 H9         2.3834    5.0123    1.0849 H         1 RES1    0.0000
     50 H10        2.0780    2.4342    5.0478 H         1 RES1    0.0000
     51 H11        2.8976    1.3803    6.9733 H         1 RES1    0.0000
     52 H12        3.8578    5.0055    8.5510 H         1 RES1    0.0000
     53 H13        2.9791    6.0412    6.6448 H         1 RES1    0.0000
     54 H14        1.5579    4.4808    3.7558 H         1 RES1    0.0000
     55 H15        1.0258    7.5429    3.1098 H         1 RES1    0.0000
     56 H16        1.1261    6.0683    2.4845 H         1 RES1    0.0000
     57 H17        2.5489    7.5045    1.2699 H         1 RES1    0.0000
     58 H18        3.2870    7.9582    2.6157 H         1 RES1    0.0000
     59 H19        5.9664    2.8799    4.7496 H         1 RES1    0.0000
     60 H20        6.7582    1.7528    6.6406 H         1 RES1    0.0000
     61 H21        7.7281    5.3071    8.3536 H         1 RES1    0.0000
     62 H22        6.9835    6.4108    6.4239 H         1 RES1    0.0000
     63 H23        5.5332    4.9940    3.4839 H         1 RES1    0.0000
     64 H24        6.6511    7.8033    2.3962 H         1 RES1    0.0000
     65 H25        5.2310    8.1286    3.0367 H         1 RES1    0.0000
     66 H26        5.0831    7.1951    0.8668 H         1 RES1    0.0000
     67 H27        5.7292    5.8420    1.4176 H         1 RES1    0.0000
@<TRIPOS>BOND
     1    1    8 2
     2    2    8 2
     3    3   10 2
     4    4   10 2
     5    5   12 2
     6    6   12 2
     7    7   22 1
     8    8   17 1
     9    9   20 2
    10   10   26 1
    11   11   29 2
    12   12   35 1
    13   13   38 2
    14   14   15 ar
    15   15   16 ar
    16   16   17 ar
    17   17   18 ar
    18   18   19 ar
    19   19   14 ar
    20   20   14 1
    21   21    9 1
    22   22   21 1
    23   23   24 ar
    24   24   25 ar
    25   25   26 ar
    26   26   27 ar
    27   27   28 ar
    28   28   23 ar
    29   29   23 1
    30   30   11 1
    31   31    7 1
    32   32   33 ar
    33   33   34 ar
    34   34   35 ar
    35   35   36 ar
    36   36   37 ar
    37   37   32 ar
    38   38   32 1
    39   39   13 1
    40   40    7 1
    41   41   15 1
    42   42   16 1
    43   43   18 1
    44   44   19 1
    45   45   20 1
    46   46   21 1
    47   47   21 1
    48   48   22 1
    49   49   22 1
    50   50   24 1
    51   51   25 1
    52   52   27 1
    53   53   28 1
    54   54   29 1
    55   55   30 1
    56   56   30 1
    57   57   31 1
    58   58   31 1
    59   59   33 1
    60   60   34 1
    61   61   36 1
    62   62   37 1
    63   63   38 1
    64   64   39 1
    65   65   39 1
    66   66   40 1
    67   67   40 1
    68   30   31 1
    69   39   40 1
@<TRIPOS>SUBSTRUCTURE
     1 RES1 1

@<TRIPOS>CRYSIN
   7.8020   12.5233   13.8920  83.5872  89.0220  72.6110   2 1

