# MOL2 file generated by ConQuest
# Please check atom types

@<TRIPOS>MOLECULE
QANSEG
    57    61     1
SMALL
NO_CHARGES
****
Generated from CSD

@<TRIPOS>ATOM
      1 O1         3.0713   13.3653   13.1793 O.3       1 RES1    0.0000
      2 O2         1.0858   15.8432   15.6057 O.3       1 RES1    0.0000
      3 O3         5.3318   10.0333   19.0922 O.2       1 RES1    0.0000
      4 O4         7.0641   10.2937   17.8437 O.2       1 RES1    0.0000
      5 N1         2.0930   14.0712   12.3539 N.3       1 RES1    0.0000
      6 N2         2.4441   15.6003   16.0050 N.3       1 RES1    0.0000
      7 C1         2.5804   15.4876   12.2526 C.3       1 RES1    0.0000
      8 C2         1.6038   11.8442    8.8140 C.ar      1 RES1    0.0000
      9 H1         1.4768   11.3519    8.0354 H         1 RES1    0.0000
     10 C3         2.8054   11.7961    9.4702 C.ar      1 RES1    0.0000
     11 H2         3.4908   11.2620    9.1370 H         1 RES1    0.0000
     12 C4         3.0095   12.5362   10.6271 C.ar      1 RES1    0.0000
     13 H3         3.8304   12.5037   11.0632 H         1 RES1    0.0000
     14 C5         1.9907   13.3186   11.1285 C.ar      1 RES1    0.0000
     15 C6         2.7763   13.6902   14.5314 C.3       1 RES1    0.0000
     16 H4         1.8230   13.5338   14.6986 H         1 RES1    0.0000
     17 C7         3.0932   15.1704   14.7684 C.3       1 RES1    0.0000
     18 H5         4.0618   15.3100   14.8205 H         1 RES1    0.0000
     19 C8         3.0104   16.7348   16.6713 C.ar      1 RES1    0.0000
     20 C9         2.2877   17.8832   16.9362 C.ar      1 RES1    0.0000
     21 H6         1.4308   17.9857   16.5896 H         1 RES1    0.0000
     22 C10        2.8442   18.8775   17.7181 C.ar      1 RES1    0.0000
     23 H7         2.3533   19.6472   17.8937 H         1 RES1    0.0000
     24 C11        4.0977   18.7517   18.2374 C.ar      1 RES1    0.0000
     25 H8         4.4544   19.4232   18.7721 H         1 RES1    0.0000
     26 C12        0.5916   12.6207    9.3085 C.ar      1 RES1    0.0000
     27 H9        -0.2219   12.6642    8.8601 H         1 RES1    0.0000
     28 C13        0.7759   13.3410   10.4736 C.ar      1 RES1    0.0000
     29 H10        0.0750   13.8460   10.8193 H         1 RES1    0.0000
     30 C14        1.0731   16.2568   14.2251 C.3       1 RES1    0.0000
     31 H11        0.8143   17.1884   14.1571 H         1 RES1    0.0000
     32 H12        0.4381   15.7245   13.7210 H         1 RES1    0.0000
     33 C15        2.4789   16.0591   13.6758 C.3       1 RES1    0.0000
     34 H13        2.9378   16.9256   13.6921 H         1 RES1    0.0000
     35 C16        1.6645   16.2711   11.3151 C.3       1 RES1    0.0000
     36 H14        1.7890   15.9626   10.4142 H         1 RES1    0.0000
     37 H15        1.8785   17.2061   11.3670 H         1 RES1    0.0000
     38 H16        0.7499   16.1372   11.5757 H         1 RES1    0.0000
     39 C17        4.0138   15.5839   11.7398 C.3       1 RES1    0.0000
     40 H17        4.5970   15.0965   12.3260 H         1 RES1    0.0000
     41 H18        4.2832   16.5058   11.7142 H         1 RES1    0.0000
     42 H19        4.0639   15.2112   10.8565 H         1 RES1    0.0000
     43 C18        4.2913   16.6102   17.1793 C.ar      1 RES1    0.0000
     44 H20        4.7901   15.8479   16.9947 H         1 RES1    0.0000
     45 C19        4.8342   17.6137   17.9593 C.ar      1 RES1    0.0000
     46 H21        5.6958   17.5236   18.2967 H         1 RES1    0.0000
     47 C20        3.5904   12.7992   15.4325 C.ar      1 RES1    0.0000
     48 C21        4.8407   12.3212   15.0472 C.ar      1 RES1    0.0000
     49 H22        5.1722   12.5196   14.2005 H         1 RES1    0.0000
     50 C22        5.5890   11.5539   15.9161 C.ar      1 RES1    0.0000
     51 H23        6.4252   11.2338   15.6637 H         1 RES1    0.0000
     52 C23        5.0795   11.2728   17.1547 C.ar      1 RES1    0.0000
     53 N3         5.8786   10.4734   18.0959 N.pl3     1 RES1    0.0000
     54 C24        3.8477   11.7088   17.5573 C.ar      1 RES1    0.0000
     55 H24        3.5170   11.4948   18.4001 H         1 RES1    0.0000
     56 C25        3.1068   12.4776   16.6766 C.ar      1 RES1    0.0000
     57 H25        2.2660   12.7824   16.9327 H         1 RES1    0.0000
@<TRIPOS>BOND
     1    1    5 1
     2    2    6 1
     3    3   53 2
     4    4   53 2
     5    5    7 1
     6    6   17 1
     7    7   33 1
     8    8    9 1
     9   10    8 ar
    10   11   10 1
    11   12   10 ar
    12   13   12 1
    13   14    5 1
    14   15    1 1
    15   16   15 1
    16   17   15 1
    17   18   17 1
    18   19    6 1
    19   20   19 ar
    20   21   20 1
    21   22   20 ar
    22   23   22 1
    23   24   22 ar
    24   25   24 1
    25   26    8 ar
    26   27   26 1
    27   28   14 ar
    28   29   28 1
    29   30    2 1
    30   31   30 1
    31   32   30 1
    32   33   17 1
    33   34   33 1
    34   35    7 1
    35   36   35 1
    36   37   35 1
    37   38   35 1
    38   39    7 1
    39   40   39 1
    40   41   39 1
    41   42   39 1
    42   43   19 ar
    43   44   43 1
    44   45   24 ar
    45   46   45 1
    46   47   15 1
    47   48   47 ar
    48   49   48 1
    49   50   48 ar
    50   51   50 1
    51   52   50 ar
    52   53   52 1
    53   54   52 ar
    54   55   54 1
    55   56   47 ar
    56   57   56 1
    57   12   14 ar
    58   26   28 ar
    59   30   33 1
    60   43   45 ar
    61   54   56 ar
@<TRIPOS>SUBSTRUCTURE
     1 RES1 1

@<TRIPOS>CRYSIN
   6.2364   17.6382   20.6899  90.0000  92.6790  90.0000  14 1

