# MOL2 file generated by ConQuest
# Please check atom types

@<TRIPOS>MOLECULE
QANWAE
    25    26     1
SMALL
NO_CHARGES
****
Generated from CSD

@<TRIPOS>ATOM
      1 O1         1.8969    8.4098   12.6229 O.2       1 RES1    0.0000
      2 O2         0.8170    7.2314   14.0527 O.2       1 RES1    0.0000
      3 O3        -0.3400    3.8758    8.9731 O.3       1 RES1    0.0000
      4 N1         1.1842    7.4594   12.9142 N.pl3     1 RES1    0.0000
      5 N2         0.7770    5.4095    7.2315 N.2       1 RES1    0.0000
      6 C1         0.7687    6.5470   11.8599 C.ar      1 RES1    0.0000
      7 C2         0.0721    5.4014   12.2050 C.ar      1 RES1    0.0000
      8 H1        -0.1463    5.2360   13.0942 H         1 RES1    0.0000
      9 C3        -0.2907    4.5164   11.2298 C.ar      1 RES1    0.0000
     10 H2        -0.7533    3.7420   11.4577 H         1 RES1    0.0000
     11 C4         0.0256    4.7643    9.8996 C.ar      1 RES1    0.0000
     12 C5         0.7203    5.9496    9.5506 C.ar      1 RES1    0.0000
     13 C6         1.0874    6.8316   10.5522 C.ar      1 RES1    0.0000
     14 H3         1.5469    7.6125   10.3417 H         1 RES1    0.0000
     15 C7         1.0638    6.2267    8.1624 C.2       1 RES1    0.0000
     16 H4         1.5028    7.0193    7.9533 H         1 RES1    0.0000
     17 C8         1.1801    5.6930    5.8933 C.3       1 RES1    0.0000
     18 H5         1.6132    6.5581    5.7342 H         1 RES1    0.0000
     19 C9         1.6458    4.5451    5.0693 C.3       1 RES1    0.0000
     20 H6         2.3592    4.7070    4.4340 H         1 RES1    0.0000
     21 H7         1.6607    3.6683    5.4836 H         1 RES1    0.0000
     22 C10        0.3302    5.1500    4.7919 C.3       1 RES1    0.0000
     23 H8        -0.4607    4.6450    5.0380 H         1 RES1    0.0000
     24 H9         0.2388    5.6831    3.9863 H         1 RES1    0.0000
     25 H10       -0.0470    4.2142    8.1868 H         1 RES1    0.0000
@<TRIPOS>BOND
     1    1    4 2
     2    2    4 2
     3    3   11 1
     4    4    6 1
     5    5   15 2
     6    6    7 ar
     7    7    8 1
     8    9    7 ar
     9   10    9 1
    10   11    9 ar
    11   12   11 ar
    12   13    6 ar
    13   14   13 1
    14   15   12 1
    15   16   15 1
    16   17    5 1
    17   18   17 1
    18   19   17 1
    19   20   19 1
    20   21   19 1
    21   22   17 1
    22   23   22 1
    23   24   22 1
    24   25    3 1
    25   12   13 ar
    26   19   22 1
@<TRIPOS>SUBSTRUCTURE
     1 RES1 1

@<TRIPOS>CRYSIN
   7.8000    5.8450   21.6100  90.0000  97.5990  90.0000  14 1

