# MOL2 file generated by ConQuest
# Please check atom types

@<TRIPOS>MOLECULE
QAPKEX
    35    37     1
SMALL
NO_CHARGES
****
Generated from CSD

@<TRIPOS>ATOM
      1 C1         0.7832    5.5740    9.3808 C.3       1 RES1    0.0000
      2 C2         1.3416    6.3408   10.5555 C.3       1 RES1    0.0000
      3 O1         0.3421    7.2596   10.9314 O.3       1 RES1    0.0000
      4 C3         0.5727    8.1779   11.9116 C.ar      1 RES1    0.0000
      5 C4        -0.4842    9.0504   12.1296 C.ar      1 RES1    0.0000
      6 O2        -1.5379    8.8812   11.2864 O.3       1 RES1    0.0000
      7 C5        -2.8150    9.4293   11.6075 C.3       1 RES1    0.0000
      8 C6        -3.8470    8.6459   10.8557 C.3       1 RES1    0.0000
      9 O3        -4.0622    7.3668   11.3843 O.3       1 RES1    0.0000
     10 C7        -3.2627    6.3418   10.8361 C.3       1 RES1    0.0000
     11 C8        -3.7696    5.1149   11.0449 C.3       1 RES1    0.0000
     12 O4        -2.9229    4.0380   10.6978 O.3       1 RES1    0.0000
     13 C9        -3.3151    3.3017    9.5870 C.3       1 RES1    0.0000
     14 C10       -2.3920    2.1660    9.3573 C.3       1 RES1    0.0000
     15 O5        -1.1296    2.6693    8.9357 O.3       1 RES1    0.0000
     16 C11       -0.1596    1.7730    8.5767 C.ar      1 RES1    0.0000
     17 C12        1.0200    2.3369    8.0638 C.ar      1 RES1    0.0000
     18 O6         1.0925    3.6969    7.9085 O.3       1 RES1    0.0000
     19 C13        1.6537    4.4052    9.0153 C.3       1 RES1    0.0000
     20 O7         0.7063    6.3996    8.2191 O.3       1 RES1    0.0000
     21 C14       -0.4730    7.1773    8.0925 C.3       1 RES1    0.0000
     22 C15       -1.4953    6.5975    7.1527 C.2       1 RES1    0.0000
     23 O8        -2.4710    7.2900    6.8186 O.2       1 RES1    0.0000
     24 N1        -1.3027    5.3639    6.7638 N.am      1 RES1    0.0000
     25 H1        -0.6998    4.6537    6.9778 H         1 RES1    0.0000
     26 O9        -2.0582    4.8167    5.7496 O.3       1 RES1    0.0000
     27 H2        -2.2690    4.1058    5.1322 H         1 RES1    0.0000
     28 C16        1.7102    8.2646   12.6856 C.ar      1 RES1    0.0000
     29 C17        1.7925    9.2512   13.6659 C.ar      1 RES1    0.0000
     30 C18        0.7746   10.1098   13.8747 C.ar      1 RES1    0.0000
     31 C19       -0.3794   10.0152   13.1098 C.ar      1 RES1    0.0000
     32 C20       -0.2572    0.3967    8.6903 C.ar      1 RES1    0.0000
     33 C21        0.7693   -0.4094    8.2674 C.ar      1 RES1    0.0000
     34 C22        1.9290    0.1369    7.7570 C.ar      1 RES1    0.0000
     35 C23        2.0568    1.5179    7.6683 C.ar      1 RES1    0.0000
@<TRIPOS>BOND
     1    1    2 1
     2    2    3 1
     3    3    4 1
     4    4    5 ar
     5    5    6 1
     6    6    7 1
     7    7    8 1
     8    8    9 1
     9    9   10 1
    10   10   11 1
    11   11   12 1
    12   12   13 1
    13   13   14 1
    14   14   15 1
    15   15   16 1
    16   16   17 ar
    17   17   18 1
    18   18   19 1
    19   19    1 1
    20   20    1 1
    21   21   20 1
    22   22   21 1
    23   23   22 2
    24   24   22 1
    25   25   24 1
    26   26   24 1
    27   27   26 1
    28   28    4 ar
    29   29   28 ar
    30   30   29 ar
    31   31    5 ar
    32   32   16 ar
    33   33   32 ar
    34   34   33 ar
    35   35   17 ar
    36   30   31 ar
    37   34   35 ar
@<TRIPOS>SUBSTRUCTURE
     1 RES1 1

@<TRIPOS>CRYSIN
   8.7900   10.0560   13.1250  84.0720  90.0000  79.5250   1 1

