# MOL2 file generated by ConQuest
# Please check atom types

@<TRIPOS>MOLECULE
QAPRUV
    48    51     1
SMALL
NO_CHARGES
****
Generated from CSD

@<TRIPOS>ATOM
      1 N1         3.4087   -1.9431    6.5235 N.pl3     1 RES1    0.0000
      2 N2         6.5355    0.9853    8.9095 N.pl3     1 RES1    0.0000
      3 O1         2.6435    3.9376    7.7331 O.3       1 RES1    0.0000
      4 O2         1.0428    2.5958    6.8755 O.2       1 RES1    0.0000
      5 O3         2.5198   -2.0173    5.7097 O.2       1 RES1    0.0000
      6 O4         4.0569   -2.8740    6.9216 O.2       1 RES1    0.0000
      7 O5         7.3442    0.0849    8.8351 O.2       1 RES1    0.0000
      8 O6         6.6918    2.0258    9.5284 O.2       1 RES1    0.0000
      9 C1         1.2176    5.3133    9.2036 C.3       1 RES1    0.0000
     10 H1         0.6990    4.5563    9.6005 H         1 RES1    0.0000
     11 N3         2.4617    5.6973    9.9654 N.3       1 RES1    0.0000
     12 C2         3.3394    6.2716    8.9839 C.3       1 RES1    0.0000
     13 H2         4.1189    5.6847    8.8150 H         1 RES1    0.0000
     14 H3         3.6616    7.1628    9.2721 H         1 RES1    0.0000
     15 C3         2.4740    6.3776    7.7756 C.3       1 RES1    0.0000
     16 H4         2.9771    6.5351    6.9251 H         1 RES1    0.0000
     17 C4         1.3388    7.3496    8.0118 C.3       1 RES1    0.0000
     18 H5         0.8735    7.5663    7.1661 H         1 RES1    0.0000
     19 H6         1.6686    8.1881    8.4217 H         1 RES1    0.0000
     20 C5         0.4128    6.5922    8.9744 C.3       1 RES1    0.0000
     21 H7         0.2754    7.0931    9.8178 H         1 RES1    0.0000
     22 H8        -0.4654    6.4004    8.5599 H         1 RES1    0.0000
     23 C6         1.7309    5.0683    7.8181 C.3       1 RES1    0.0000
     24 H9         0.9978    5.0217    7.1401 H         1 RES1    0.0000
     25 C7         3.0612    4.6875   10.7958 C.3       1 RES1    0.0000
     26 H10        3.3912    3.9510   10.2218 H         1 RES1    0.0000
     27 H11        2.3726    4.3155   11.4017 H         1 RES1    0.0000
     28 C8         4.2285    5.2353   11.6344 C.ar      1 RES1    0.0000
     29 C9         5.4064    4.4932   11.7691 C.ar      1 RES1    0.0000
     30 H12        5.5107    3.6627   11.3214 H         1 RES1    0.0000
     31 C10        6.4548    5.0168   12.5994 C.ar      1 RES1    0.0000
     32 H13        7.2442    4.5135   12.7624 H         1 RES1    0.0000
     33 C11        6.2871    6.2502   13.1439 C.ar      1 RES1    0.0000
     34 H14        6.9786    6.6117   13.6849 H         1 RES1    0.0000
     35 C12        5.1840    6.9716   12.9431 C.ar      1 RES1    0.0000
     36 H15        5.1351    7.8474   13.3058 H         1 RES1    0.0000
     37 C13        4.1223    6.4934   12.2333 C.ar      1 RES1    0.0000
     38 H16        3.3271    7.0053   12.1470 H         1 RES1    0.0000
     39 C14        2.1595    2.7615    7.3173 C.2       1 RES1    0.0000
     40 C15        3.1604    1.6772    7.4401 C.ar      1 RES1    0.0000
     41 C16        2.8412    0.4109    6.9181 C.ar      1 RES1    0.0000
     42 H17        2.0119    0.2617    6.4798 H         1 RES1    0.0000
     43 C17        3.7462   -0.5934    7.0539 C.ar      1 RES1    0.0000
     44 C18        4.9631   -0.4460    7.6893 C.ar      1 RES1    0.0000
     45 H18        5.5743   -1.1690    7.7708 H         1 RES1    0.0000
     46 C19        5.2456    0.8064    8.1996 C.ar      1 RES1    0.0000
     47 C20        4.3714    1.8580    8.0898 C.ar      1 RES1    0.0000
     48 H19        4.5943    2.7050    8.4583 H         1 RES1    0.0000
@<TRIPOS>BOND
     1    1    5 2
     2    2    7 2
     3    3   23 1
     4    4   39 2
     5    6    1 2
     6    8    2 2
     7    9   10 1
     8   11    9 1
     9   12   11 1
    10   13   12 1
    11   14   12 1
    12   15   12 1
    13   16   15 1
    14   17   15 1
    15   18   17 1
    16   19   17 1
    17   20    9 1
    18   21   20 1
    19   22   20 1
    20   23    9 1
    21   24   23 1
    22   25   11 1
    23   26   25 1
    24   27   25 1
    25   28   25 1
    26   29   28 ar
    27   30   29 1
    28   31   29 ar
    29   32   31 1
    30   33   31 ar
    31   34   33 1
    32   35   33 ar
    33   36   35 1
    34   37   28 ar
    35   38   37 1
    36   39    3 1
    37   40   39 1
    38   41   40 ar
    39   42   41 1
    40   43    1 1
    41   44   43 ar
    42   45   44 1
    43   46    2 1
    44   47   40 ar
    45   48   47 1
    46   15   23 1
    47   17   20 1
    48   35   37 ar
    49   41   43 ar
    50   44   46 ar
    51   46   47 ar
@<TRIPOS>SUBSTRUCTURE
     1 RES1 1

@<TRIPOS>CRYSIN
   7.0130   11.2270   12.1750  76.6740  84.3490  84.1490   2 1

