# MOL2 file generated by ConQuest
# Please check atom types

@<TRIPOS>MOLECULE
QAPXUD
   213   225     3
SMALL
NO_CHARGES
****
Generated from CSD

@<TRIPOS>ATOM
      1 C1        -4.6020    4.2002    9.6559 C.3       1 RES1    0.0000
      2 H1        -4.4835    4.9236    8.9893 H         1 RES1    0.0000
      3 H2        -5.5603    4.1437    9.8947 H         1 RES1    0.0000
      4 C2        -4.1277    2.9047    9.1014 C.2       1 RES1    0.0000
      5 C3        -3.0174    2.4061   10.0009 C.3       1 RES1    0.0000
      6 H3        -3.4321    1.8121   10.6910 H         1 RES1    0.0000
      7 C4        -1.9180    1.6290    9.3403 C.3       1 RES1    0.0000
      8 H4        -2.2868    0.7706    8.9864 H         1 RES1    0.0000
      9 C5        -0.7289    1.3213   10.2693 C.3       1 RES1    0.0000
     10 H5        -1.0580    0.8084   11.0509 H         1 RES1    0.0000
     11 H6        -0.0834    0.7481    9.7827 H         1 RES1    0.0000
     12 C6        -0.0104    2.5465   10.7618 C.2       1 RES1    0.0000
     13 C7        -0.4563    3.2140   12.0271 C.3       1 RES1    0.0000
     14 H7         0.0759    4.0477   12.1686 H         1 RES1    0.0000
     15 C8        -0.2642    2.2575   13.2598 C.3       1 RES1    0.0000
     16 H8         0.0557    2.7966   14.0384 H         1 RES1    0.0000
     17 C9        -1.6521    1.7743   13.5459 C.2       1 RES1    0.0000
     18 H9        -1.8389    1.0163   14.0856 H         1 RES1    0.0000
     19 C10       -2.5787    2.4928   12.9797 C.2       1 RES1    0.0000
     20 C11       -1.9818    3.5579   12.0860 C.3       1 RES1    0.0000
     21 H10       -2.0791    4.4355   12.5550 H         1 RES1    0.0000
     22 C12       -2.6022    3.7038   10.7028 C.3       1 RES1    0.0000
     23 H11       -1.9654    4.2007   10.1130 H         1 RES1    0.0000
     24 C13       -1.1636    1.7738    7.0900 C.2       1 RES1    0.0000
     25 C14       -0.3584    2.6162    6.1551 C.ar      1 RES1    0.0000
     26 C15        0.3103    3.7389    6.6270 C.ar      1 RES1    0.0000
     27 H12        0.2014    4.0334    7.5235 H         1 RES1    0.0000
     28 C16        1.1378    4.4152    5.7510 C.ar      1 RES1    0.0000
     29 C17        1.3420    4.0395    4.4386 C.ar      1 RES1    0.0000
     30 H13        1.9028    4.5337    3.8547 H         1 RES1    0.0000
     31 C18        0.6705    2.8910    4.0257 C.ar      1 RES1    0.0000
     32 C19       -0.1471    2.1692    4.8456 C.ar      1 RES1    0.0000
     33 H14       -0.5664    1.3761    4.5330 H         1 RES1    0.0000
     34 C20        2.0156    1.6070   13.2156 C.3       1 RES1    0.0000
     35 H15        2.1865    1.7858   14.1741 H         1 RES1    0.0000
     36 H16        2.1752    2.4440   12.7113 H         1 RES1    0.0000
     37 C21        2.9288    0.5512   12.7319 C.ar      1 RES1    0.0000
     38 C22        3.1630    0.3795   11.3635 C.ar      1 RES1    0.0000
     39 H17        2.7343    0.9609   10.7441 H         1 RES1    0.0000
     40 C23        3.9952   -0.6083   10.8857 C.ar      1 RES1    0.0000
     41 H18        4.1146   -0.7108    9.9478 H         1 RES1    0.0000
     42 C24        4.6427   -1.4381   11.7439 C.ar      1 RES1    0.0000
     43 C25        4.4711   -1.2604   13.1124 C.ar      1 RES1    0.0000
     44 H19        4.9390   -1.8182   13.7199 H         1 RES1    0.0000
     45 C26        3.6343   -0.2918   13.5872 C.ar      1 RES1    0.0000
     46 H20        3.5324   -0.1898   14.5251 H         1 RES1    0.0000
     47 C27        5.4810   -2.7862    9.9744 C.3       1 RES1    0.0000
     48 H21        5.9037   -2.0480    9.4877 H         1 RES1    0.0000
     49 H22        4.5678   -2.9129    9.6470 H         1 RES1    0.0000
     50 H23        5.9953   -3.6067    9.8358 H         1 RES1    0.0000
     51 C28       -4.5745    2.3272    7.9954 C.2       1 RES1    0.0000
     52 H24       -5.2581    2.7456    7.4852 H         1 RES1    0.0000
     53 H25       -4.2118    1.4951    7.7152 H         1 RES1    0.0000
     54 C29        1.0212    3.0429   10.0835 C.2       1 RES1    0.0000
     55 H26        1.4702    3.8179   10.3991 H         1 RES1    0.0000
     56 H27        1.3080    2.6222    9.2813 H         1 RES1    0.0000
     57 C30       -4.0674    2.4182   13.2333 C.3       1 RES1    0.0000
     58 H28       -4.3047    3.0281   13.9647 H         1 RES1    0.0000
     59 H29       -4.3110    1.5017   13.4840 H         1 RES1    0.0000
     60 H30       -4.5533    2.6765   12.4223 H         1 RES1    0.0000
     61 N1         1.9023    5.5752    6.2554 N.pl3     1 RES1    0.0000
     62 N2         0.9356    2.3919    2.6691 N.pl3     1 RES1    0.0000
     63 O1        -3.8121    4.4596   10.8182 O.3       1 RES1    0.0000
     64 O2        -1.3895    2.4105    8.2393 O.3       1 RES1    0.0000
     65 O3        -1.5320    0.6505    6.8084 O.2       1 RES1    0.0000
     66 O4         1.7335    5.9065    7.4144 O.2       1 RES1    0.0000
     67 O5         2.6485    6.1489    5.4824 O.2       1 RES1    0.0000
     68 O6         1.6486    3.0829    1.9388 O.2       1 RES1    0.0000
     69 O7         0.4483    1.3092    2.3405 O.2       1 RES1    0.0000
     70 O8         0.6522    1.1858   13.0348 O.3       1 RES1    0.0000
     71 O9         5.4479   -2.4741   11.3753 O.3       1 RES1    0.0000
     72 C31       11.2462    1.9498    0.2536 C.3       2 RES2    0.0000
     73 H31       10.9743    2.7604    0.7550 H         2 RES2    0.0000
     74 H32       12.2289    1.8494    0.3215 H         2 RES2    0.0000
     75 C32       10.5490    0.7295    0.8081 C.2       2 RES2    0.0000
     76 C33        9.5393    0.2973   -0.2271 C.3       2 RES2    0.0000
     77 H33        9.9461   -0.4678   -0.7255 H         2 RES2    0.0000
     78 C34        8.1975   -0.1656    0.2595 C.3       2 RES2    0.0000
     79 H34        8.3253   -0.9812    0.8258 H         2 RES2    0.0000
     80 C35        7.2389   -0.4958   -0.8582 C.3       2 RES2    0.0000
     81 H35        6.4238   -0.9022   -0.4719 H         2 RES2    0.0000
     82 H36        7.6581   -1.1682   -1.4510 H         2 RES2    0.0000
     83 C36        6.8405    0.7064   -1.6870 C.2       2 RES2    0.0000
     84 C37        7.6452    1.0723   -2.9198 C.3       2 RES2    0.0000
     85 H37        7.2865    1.9196   -3.3120 H         2 RES2    0.0000
     86 C38        7.5635   -0.0691   -3.9844 C.3       2 RES2    0.0000
     87 H38        7.4070    0.3450   -4.8810 H         2 RES2    0.0000
     88 C39        8.9222   -0.6845   -3.9756 C.2       2 RES2    0.0000
     89 H39        9.1291   -1.4979   -4.4209 H         2 RES2    0.0000
     90 C40        9.8103    0.0170   -3.2884 C.2       2 RES2    0.0000
     91 C41        9.1744    1.2313   -2.6484 C.3       2 RES2    0.0000
     92 H40        9.4812    2.0288   -3.1675 H         2 RES2    0.0000
     93 C42        9.5141    1.4946   -1.1885 C.3       2 RES2    0.0000
     94 H41        8.8707    2.1725   -0.8317 H         2 RES2    0.0000
     95 C43        7.2418    0.5671    2.3476 C.2       2 RES2    0.0000
     96 C44        6.3735    1.6465    2.9463 C.ar      2 RES2    0.0000
     97 C45        5.7409    2.5976    2.1648 C.ar      2 RES2    0.0000
     98 H42        5.8832    2.6184    1.2239 H         2 RES2    0.0000
     99 C46        4.8993    3.5212    2.7693 C.ar      2 RES2    0.0000
    100 C47        4.6821    3.5343    4.1231 C.ar      2 RES2    0.0000
    101 H43        4.1348    4.1947    4.5301 H         2 RES2    0.0000
    102 C48        5.2919    2.5520    4.8692 C.ar      2 RES2    0.0000
    103 C49        6.1243    1.6021    4.3148 C.ar      2 RES2    0.0000
    104 H44        6.5206    0.9297    4.8574 H         2 RES2    0.0000
    105 C50        5.2665   -0.5852   -4.2263 C.3       2 RES2    0.0000
    106 H45        5.2574   -0.5666   -5.2143 H         2 RES2    0.0000
    107 H46        5.0950    0.3324   -3.8960 H         2 RES2    0.0000
    108 C51        4.2029   -1.5171   -3.7220 C.ar      2 RES2    0.0000
    109 C52        3.7517   -2.5877   -4.4740 C.ar      2 RES2    0.0000
    110 H47        4.0723   -2.6968   -5.3617 H         2 RES2    0.0000
    111 C53        2.8504   -3.5003   -3.9667 C.ar      2 RES2    0.0000
    112 H48        2.5502   -4.2276   -4.4976 H         2 RES2    0.0000
    113 C54        2.3919   -3.3391   -2.6632 C.ar      2 RES2    0.0000
    114 C55        2.7759   -2.2471   -1.9141 C.ar      2 RES2    0.0000
    115 H49        2.4247   -2.1160   -1.0411 H         2 RES2    0.0000
    116 C56        3.6728   -1.3481   -2.4449 C.ar      2 RES2    0.0000
    117 H50        3.9353   -0.5945   -1.9318 H         2 RES2    0.0000
    118 C57        1.3324   -4.3845   -0.7933 C.3       2 RES2    0.0000
    119 H51        0.6648   -3.7142   -0.5368 H         2 RES2    0.0000
    120 H52        2.1755   -4.1980   -0.3333 H         2 RES2    0.0000
    121 H53        1.0115   -5.2763   -0.5456 H         2 RES2    0.0000
    122 C58       10.7515    0.2090    1.9996 C.2       2 RES2    0.0000
    123 H54       10.2273   -0.5271    2.2886 H         2 RES2    0.0000
    124 H55       11.4227    0.5693    2.5659 H         2 RES2    0.0000
    125 C59        5.7793    1.4474   -1.3714 C.2       2 RES2    0.0000
    126 H56        5.2530    1.2253   -0.6134 H         2 RES2    0.0000
    127 H57        5.5496    2.1983   -1.9052 H         2 RES2    0.0000
    128 C60       11.2832   -0.2342   -3.2530 C.3       2 RES2    0.0000
    129 H58       11.7463    0.4772   -3.7426 H         2 RES2    0.0000
    130 H59       11.4765   -1.0986   -3.6718 H         2 RES2    0.0000
    131 H60       11.5907   -0.2452   -2.3240 H         2 RES2    0.0000
    132 N3         4.2421    4.5578    1.9465 N.pl3     2 RES2    0.0000
    133 N4         4.9820    2.5021    6.3173 N.pl3     2 RES2    0.0000
    134 O10       10.8440    2.0447   -1.1133 O.3       2 RES2    0.0000
    135 O11        7.5894    0.8896    1.0865 O.3       2 RES2    0.0000
    136 O12        7.5508   -0.4256    2.9439 O.2       2 RES2    0.0000
    137 O13        4.3235    4.4338    0.7291 O.2       2 RES2    0.0000
    138 O14        3.6717    5.4704    2.5275 O.2       2 RES2    0.0000
    139 O15        4.2634    3.3863    6.7694 O.2       2 RES2    0.0000
    140 O16        5.4986    1.6021    6.9543 O.2       2 RES2    0.0000
    141 O17        6.5438   -1.0459   -3.7550 O.3       2 RES2    0.0000
    142 O18        1.5413   -4.3313   -2.2167 O.3       2 RES2    0.0000
    143 C61       17.9727    6.9255   10.7500 C.3       3 RES3    0.0000
    144 H61       17.8424    7.6166   11.4490 H         3 RES3    0.0000
    145 H62       18.9366    6.8833   10.5259 H         3 RES3    0.0000
    146 C62       17.4942    5.5949   11.2426 C.2       3 RES3    0.0000
    147 C63       16.4540    5.1024   10.2487 C.3       3 RES3    0.0000
    148 H63       16.9349    4.5699    9.5497 H         3 RES3    0.0000
    149 C64       15.3373    4.2358   10.7943 C.3       3 RES3    0.0000
    150 H64       15.7223    3.3638   11.1010 H         3 RES3    0.0000
    151 C65       14.2231    3.9649    9.7915 C.3       3 RES3    0.0000
    152 H65       14.6156    3.5086    9.0041 H         3 RES3    0.0000
    153 H66       13.5748    3.3424   10.2044 H         3 RES3    0.0000
    154 C66       13.4801    5.1874    9.3137 C.2       3 RES3    0.0000
    155 C67       13.9786    5.9372    8.1045 C.3       3 RES3    0.0000
    156 H67       13.4181    6.7550    7.9689 H         3 RES3    0.0000
    157 C68       13.9270    5.0552    6.7951 C.3       3 RES3    0.0000
    158 H68       13.6210    5.6394    6.0430 H         3 RES3    0.0000
    159 C69       15.3498    4.7048    6.5473 C.2       3 RES3    0.0000
    160 H69       15.6199    4.0225    5.9457 H         3 RES3    0.0000
    161 C70       16.1920    5.4288    7.2404 C.2       3 RES3    0.0000
    162 C71       15.4740    6.3491    8.1783 C.3       3 RES3    0.0000
    163 H70       15.5428    7.2689    7.7919 H         3 RES3    0.0000
    164 C72       16.0120    6.4226    9.5969 C.3       3 RES3    0.0000
    165 H71       15.3285    6.8575   10.1808 H         3 RES3    0.0000
    166 C73       14.7295    4.2534   13.1094 C.2       3 RES3    0.0000
    167 C74       14.0196    5.0229   14.1564 C.ar      3 RES3    0.0000
    168 C75       13.2903    6.1643   13.8585 C.ar      3 RES3    0.0000
    169 H72       13.2703    6.5054   12.9708 H         3 RES3    0.0000
    170 C76       12.5938    6.7955   14.8613 C.ar      3 RES3    0.0000
    171 C77       12.5099    6.2959   16.1354 C.ar      3 RES3    0.0000
    172 H73       11.9785    6.7160   16.7989 H         3 RES3    0.0000
    173 C78       13.2331    5.1600   16.4037 C.ar      3 RES3    0.0000
    174 C79       13.9814    4.5068   15.4452 C.ar      3 RES3    0.0000
    175 H74       14.4633    3.7181   15.6635 H         3 RES3    0.0000
    176 C80       11.7051    4.2918    6.5532 C.3       3 RES3    0.0000
    177 H75       11.6584    4.7146    5.6596 H         3 RES3    0.0000
    178 H76       11.3913    4.9516    7.2198 H         3 RES3    0.0000
    179 C81       10.8171    3.0928    6.5827 C.ar      3 RES3    0.0000
    180 C82       10.4285    2.4681    5.3971 C.ar      3 RES3    0.0000
    181 H77       10.7839    2.7687    4.5684 H         3 RES3    0.0000
    182 C83        9.5396    1.4238    5.4148 C.ar      3 RES3    0.0000
    183 H78        9.2590    1.0185    4.6038 H         3 RES3    0.0000
    184 C84        9.0503    0.9648    6.6299 C.ar      3 RES3    0.0000
    185 C85        9.4133    1.5609    7.8008 C.ar      3 RES3    0.0000
    186 H79        9.0608    1.2565    8.6266 H         3 RES3    0.0000
    187 C86       10.3046    2.6146    7.7654 C.ar      3 RES3    0.0000
    188 H80       10.5719    3.0210    8.5823 H         3 RES3    0.0000
    189 C87        7.6413   -0.6198    7.7359 C.3       3 RES3    0.0000
    190 H81        7.1555    0.0861    8.2078 H         3 RES3    0.0000
    191 H82        8.3784   -0.9445    8.2962 H         3 RES3    0.0000
    192 H83        7.0310   -1.3624    7.5412 H         3 RES3    0.0000
    193 C88       17.9109    4.9801   12.3485 C.2       3 RES3    0.0000
    194 H84       18.5690    5.3882   12.9000 H         3 RES3    0.0000
    195 H85       17.5515    4.1333   12.5845 H         3 RES3    0.0000
    196 C89       12.3865    5.5895    9.9301 C.2       3 RES3    0.0000
    197 H86       12.0592    5.1079   10.6792 H         3 RES3    0.0000
    198 H87       11.9242    6.3601    9.6205 H         3 RES3    0.0000
    199 C90       17.6879    5.4770    7.0458 C.3       3 RES3    0.0000
    200 H88       17.9418    6.3496    6.6801 H         3 RES3    0.0000
    201 H89       17.9604    4.7700    6.4264 H         3 RES3    0.0000
    202 H90       18.1342    5.3437    7.9099 H         3 RES3    0.0000
    203 N5        11.7786    7.9824   14.5310 N.pl3     3 RES3    0.0000
    204 N6        13.0830    4.5474   17.7427 N.pl3     3 RES3    0.0000
    205 O19       17.2009    7.2414    9.5833 O.3       3 RES3    0.0000
    206 O20       14.7389    4.9236   11.9442 O.3       3 RES3    0.0000
    207 O21       15.2106    3.1614   13.2967 O.2       3 RES3    0.0000
    208 O22       11.7540    8.3395   13.3572 O.2       3 RES3    0.0000
    209 O23       11.2157    8.5583   15.4511 O.2       3 RES3    0.0000
    210 O24       12.5108    5.1841   18.6009 O.2       3 RES3    0.0000
    211 O25       13.5691    3.4274   17.9108 O.2       3 RES3    0.0000
    212 O26       13.0766    3.9287    6.8434 O.3       3 RES3    0.0000
    213 O27        8.1694   -0.1020    6.5117 O.3       3 RES3    0.0000
@<TRIPOS>BOND
     1    1    2 1
     2    3    1 1
     3    4    1 1
     4    5    4 1
     5    6    5 1
     6    7    5 1
     7    8    7 1
     8    9    7 1
     9   10    9 1
    10   11    9 1
    11   12    9 1
    12   13   12 1
    13   14   13 1
    14   15   13 1
    15   16   15 1
    16   17   15 1
    17   18   17 1
    18   19   17 2
    19   20   13 1
    20   21   20 1
    21   22    5 1
    22   23   22 1
    23   24   25 1
    24   25   26 ar
    25   26   27 1
    26   28   26 ar
    27   29   28 ar
    28   30   29 1
    29   31   29 ar
    30   32   25 ar
    31   33   32 1
    32   34   35 1
    33   36   34 1
    34   37   34 1
    35   38   37 ar
    36   39   38 1
    37   40   38 ar
    38   41   40 1
    39   42   40 ar
    40   43   42 ar
    41   44   43 1
    42   45   37 ar
    43   46   45 1
    44   47   48 1
    45   49   47 1
    46   50   47 1
    47   51    4 2
    48   52   51 1
    49   53   51 1
    50   54   12 2
    51   55   54 1
    52   56   54 1
    53   57   19 1
    54   58   57 1
    55   59   57 1
    56   60   57 1
    57   61   28 1
    58   62   31 1
    59   63    1 1
    60   64    7 1
    61   65   24 2
    62   66   61 2
    63   67   61 2
    64   68   62 2
    65   69   62 2
    66   70   15 1
    67   71   42 1
    68   72   73 1
    69   74   72 1
    70   75   72 1
    71   76   75 1
    72   77   76 1
    73   78   76 1
    74   79   78 1
    75   80   78 1
    76   81   80 1
    77   82   80 1
    78   83   80 1
    79   84   83 1
    80   85   84 1
    81   86   84 1
    82   87   86 1
    83   88   86 1
    84   89   88 1
    85   90   88 2
    86   91   84 1
    87   92   91 1
    88   93   76 1
    89   94   93 1
    90   95   96 1
    91   96   97 ar
    92   97   98 1
    93   99   97 ar
    94  100   99 ar
    95  101  100 1
    96  102  100 ar
    97  103   96 ar
    98  104  103 1
    99  105  106 1
   100  107  105 1
   101  108  105 1
   102  109  108 ar
   103  110  109 1
   104  111  109 ar
   105  112  111 1
   106  113  111 ar
   107  114  113 ar
   108  115  114 1
   109  116  108 ar
   110  117  116 1
   111  118  119 1
   112  120  118 1
   113  121  118 1
   114  122   75 2
   115  123  122 1
   116  124  122 1
   117  125   83 2
   118  126  125 1
   119  127  125 1
   120  128   90 1
   121  129  128 1
   122  130  128 1
   123  131  128 1
   124  132   99 1
   125  133  102 1
   126  134   72 1
   127  135   78 1
   128  136   95 2
   129  137  132 2
   130  138  132 2
   131  139  133 2
   132  140  133 2
   133  141   86 1
   134  142  113 1
   135  143  144 1
   136  145  143 1
   137  146  143 1
   138  147  146 1
   139  148  147 1
   140  149  147 1
   141  150  149 1
   142  151  149 1
   143  152  151 1
   144  153  151 1
   145  154  151 1
   146  155  154 1
   147  156  155 1
   148  157  155 1
   149  158  157 1
   150  159  157 1
   151  160  159 1
   152  161  159 2
   153  162  155 1
   154  163  162 1
   155  164  147 1
   156  165  164 1
   157  166  167 1
   158  167  168 ar
   159  168  169 1
   160  170  168 ar
   161  171  170 ar
   162  172  171 1
   163  173  171 ar
   164  174  167 ar
   165  175  174 1
   166  176  177 1
   167  178  176 1
   168  179  176 1
   169  180  179 ar
   170  181  180 1
   171  182  180 ar
   172  183  182 1
   173  184  182 ar
   174  185  184 ar
   175  186  185 1
   176  187  179 ar
   177  188  187 1
   178  189  190 1
   179  191  189 1
   180  192  189 1
   181  193  146 2
   182  194  193 1
   183  195  193 1
   184  196  154 2
   185  197  196 1
   186  198  196 1
   187  199  161 1
   188  200  199 1
   189  201  199 1
   190  202  199 1
   191  203  170 1
   192  204  173 1
   193  205  143 1
   194  206  149 1
   195  207  166 2
   196  208  203 2
   197  209  203 2
   198  210  204 2
   199  211  204 2
   200  212  157 1
   201  213  184 1
   202   19   20 1
   203   20   22 1
   204   22   63 1
   205   24   64 1
   206   31   32 ar
   207   34   70 1
   208   43   45 ar
   209   47   71 1
   210   90   91 1
   211   91   93 1
   212   93  134 1
   213   95  135 1
   214  102  103 ar
   215  105  141 1
   216  114  116 ar
   217  118  142 1
   218  161  162 1
   219  162  164 1
   220  164  205 1
   221  166  206 1
   222  173  174 ar
   223  176  212 1
   224  185  187 ar
   225  189  213 1
@<TRIPOS>SUBSTRUCTURE
     1 RES1 1
     2 RES2 72
     3 RES3 143

@<TRIPOS>CRYSIN
  25.0440    5.4847   29.7510  90.0000  97.5580  90.0000   4 1

