# MOL2 file generated by ConQuest
# Please check atom types

@<TRIPOS>MOLECULE
QAPXIR
    37    41     1
SMALL
NO_CHARGES
****
Generated from CSD

@<TRIPOS>ATOM
      1 N1         1.2560    6.8553   16.2006 N.am      1 RES1    0.0000
      2 N2         0.6587    9.0588   15.4680 N.2       1 RES1    0.0000
      3 N3        -1.5563    6.9885   10.9369 N.pl3     1 RES1    0.0000
      4 O1         2.3127    6.4715   18.1950 O.2       1 RES1    0.0000
      5 O2        -1.7996    8.1756   10.8275 O.2       1 RES1    0.0000
      6 O3        -1.8842    6.1603   10.1141 O.2       1 RES1    0.0000
      7 C1         0.7037    2.0865   17.0251 C.3       1 RES1    0.0000
      8 H1         0.5362    2.4495   17.9083 H         1 RES1    0.0000
      9 H2         0.0755    1.4049   16.7385 H         1 RES1    0.0000
     10 C2         1.2477    3.0241   15.9726 C.3       1 RES1    0.0000
     11 C3         2.0544    1.9525   16.6118 C.3       1 RES1    0.0000
     12 H3         2.2828    1.1803   16.0710 H         1 RES1    0.0000
     13 H4         2.7436    2.2236   17.2392 H         1 RES1    0.0000
     14 C4         1.4398    4.4133   16.3912 C.2       1 RES1    0.0000
     15 H5         1.8428    4.5464   17.2187 H         1 RES1    0.0000
     16 C5         1.0966    5.5114   15.7081 C.2       1 RES1    0.0000
     17 C6         0.4429    5.6716   14.4058 C.ar      1 RES1    0.0000
     18 C7         0.0214    4.7434   13.4525 C.ar      1 RES1    0.0000
     19 H6         0.1733    3.8348   13.5788 H         1 RES1    0.0000
     20 C8        -0.6239    5.1936   12.3218 C.ar      1 RES1    0.0000
     21 H7        -0.9137    4.5842   11.6817 H         1 RES1    0.0000
     22 C9        -0.8431    6.5467   12.1313 C.ar      1 RES1    0.0000
     23 C10       -0.4282    7.4896   13.0415 C.ar      1 RES1    0.0000
     24 H8        -0.5757    8.3968   12.9034 H         1 RES1    0.0000
     25 C11        0.2207    7.0263   14.1753 C.ar      1 RES1    0.0000
     26 C12        0.7224    7.7802   15.2986 C.2       1 RES1    0.0000
     27 C13        1.1517    9.5460   16.6667 C.ar      1 RES1    0.0000
     28 C14        1.0591   10.9215   16.9360 C.ar      1 RES1    0.0000
     29 H9         0.6828   11.4926   16.3056 H         1 RES1    0.0000
     30 C15        1.5156   11.4221   18.1131 C.ar      1 RES1    0.0000
     31 H10        1.4467   12.3348   18.2814 H         1 RES1    0.0000
     32 C16        2.0798   10.5956   19.0613 C.ar      1 RES1    0.0000
     33 H11        2.3840   10.9547   19.8636 H         1 RES1    0.0000
     34 C17        2.1960    9.2449   18.8293 C.ar      1 RES1    0.0000
     35 H12        2.5830    8.6932   19.4700 H         1 RES1    0.0000
     36 C18        1.7303    8.7034   17.6280 C.ar      1 RES1    0.0000
     37 C19        1.8164    7.2664   17.4070 C.2       1 RES1    0.0000
@<TRIPOS>BOND
     1    1   16 1
     2    2   26 2
     3    3    5 2
     4    4   37 2
     5    6    3 2
     6    7    8 1
     7    9    7 1
     8   10    7 1
     9   11    7 1
    10   12   11 1
    11   13   11 1
    12   14   10 1
    13   15   14 1
    14   16   14 2
    15   17   16 1
    16   18   17 ar
    17   19   18 1
    18   20   18 ar
    19   21   20 1
    20   22    3 1
    21   23   22 ar
    22   24   23 1
    23   25   17 ar
    24   26    1 1
    25   27    2 1
    26   28   27 ar
    27   29   28 1
    28   30   28 ar
    29   31   30 1
    30   32   30 ar
    31   33   32 1
    32   34   32 ar
    33   35   34 1
    34   36   27 ar
    35   37    1 1
    36   10   11 1
    37   20   22 ar
    38   23   25 ar
    39   25   26 1
    40   34   36 ar
    41   36   37 1
@<TRIPOS>SUBSTRUCTURE
     1 RES1 1

@<TRIPOS>CRYSIN
   7.5350   13.0568   15.7680  90.0000  93.1920  90.0000  14 1

