# MOL2 file generated by ConQuest
# Please check atom types

@<TRIPOS>MOLECULE
QAPYOW
    51    54     1
SMALL
NO_CHARGES
****
Generated from CSD

@<TRIPOS>ATOM
      1 O1        -1.1686    9.1395   11.1332 O.2       1 RES1    0.0000
      2 O2        -1.9351    4.7514    9.8866 O.2       1 RES1    0.0000
      3 O3        -5.0896    6.9711   16.1420 O.2       1 RES1    0.0000
      4 O4        -6.3394    5.6822   14.9587 O.2       1 RES1    0.0000
      5 N1        -1.7998    6.9192   10.7608 N.am      1 RES1    0.0000
      6 N2         0.9960    8.1884    8.8657 N.2       1 RES1    0.0000
      7 N3         1.3220    7.1449    8.0779 N.pl3     1 RES1    0.0000
      8 N4         0.5748    6.0240    8.1797 N.2       1 RES1    0.0000
      9 N5         2.4033    7.3426    7.2219 N.2       1 RES1    0.0000
     10 N6        -5.3415    6.3814   15.1035 N.pl3     1 RES1    0.0000
     11 N7         6.2006    7.4793    2.1171 N.3       1 RES1    0.0000
     12 C1        -1.0135    8.0937   10.5630 C.2       1 RES1    0.0000
     13 C2        -0.0528    7.6852    9.5214 C.2       1 RES1    0.0000
     14 C3        -0.3055    6.4061    9.1170 C.2       1 RES1    0.0000
     15 C4        -1.4278    5.8378    9.8971 C.2       1 RES1    0.0000
     16 C5        -2.7052    6.7718   11.8562 C.ar      1 RES1    0.0000
     17 C6        -3.8972    6.0758   11.6815 C.ar      1 RES1    0.0000
     18 H1        -4.1207    5.7102   10.8454 H         1 RES1    0.0000
     19 C7        -4.7487    5.9325   12.7668 C.ar      1 RES1    0.0000
     20 H2        -5.5470    5.4425   12.6818 H         1 RES1    0.0000
     21 C8        -4.4177    6.5107   13.9648 C.ar      1 RES1    0.0000
     22 C9        -3.2414    7.2075   14.1479 C.ar      1 RES1    0.0000
     23 H3        -3.0395    7.5995   14.9780 H         1 RES1    0.0000
     24 C10       -2.3694    7.3154   13.0878 C.ar      1 RES1    0.0000
     25 H4        -1.5477    7.7569   13.1987 H         1 RES1    0.0000
     26 C11        2.5165    6.4811    6.2728 C.2       1 RES1    0.0000
     27 H5         1.9254    5.7513    6.2251 H         1 RES1    0.0000
     28 C12        3.5578    6.6408    5.2800 C.ar      1 RES1    0.0000
     29 C13        3.5153    5.9095    4.0939 C.ar      1 RES1    0.0000
     30 H6         2.8657    5.2366    3.9953 H         1 RES1    0.0000
     31 C14        4.3981    6.1450    3.0604 C.ar      1 RES1    0.0000
     32 H7         4.3422    5.6336    2.2746 H         1 RES1    0.0000
     33 C15        5.3793    7.1424    3.1737 C.ar      1 RES1    0.0000
     34 C16        5.4699    7.8252    4.4079 C.ar      1 RES1    0.0000
     35 H8         6.1591    8.4512    4.5400 H         1 RES1    0.0000
     36 C17        4.5702    7.5913    5.4161 C.ar      1 RES1    0.0000
     37 H9         4.6370    8.0822    6.2159 H         1 RES1    0.0000
     38 C18        6.1234    6.7825    0.8114 C.3       1 RES1    0.0000
     39 H10        6.4216    7.3912    0.1034 H         1 RES1    0.0000
     40 H11        5.1915    6.5412    0.6296 H         1 RES1    0.0000
     41 C19        6.9591    5.5570    0.7853 C.3       1 RES1    0.0000
     42 H12        7.8832    5.7925    0.9599 H         1 RES1    0.0000
     43 H13        6.8909    5.1377   -0.0864 H         1 RES1    0.0000
     44 H14        6.6491    4.9392    1.4660 H         1 RES1    0.0000
     45 C20        7.2814    8.4693    2.2748 C.3       1 RES1    0.0000
     46 H15        6.9399    9.2270    2.7947 H         1 RES1    0.0000
     47 H16        7.5315    8.8053    1.3889 H         1 RES1    0.0000
     48 C21        8.5099    7.9348    2.9519 C.3       1 RES1    0.0000
     49 H17        8.2703    7.5790    3.8224 H         1 RES1    0.0000
     50 H18        9.1562    8.6497    3.0616 H         1 RES1    0.0000
     51 H19        8.8970    7.2289    2.4104 H         1 RES1    0.0000
@<TRIPOS>BOND
     1    1   12 2
     2    2   15 2
     3    3   10 2
     4    4   10 2
     5    5   12 1
     6    6    7 1
     7    7    8 1
     8    8   14 2
     9    9    7 1
    10   10   21 1
    11   11   33 1
    12   12   13 1
    13   13    6 2
    14   14   13 1
    15   15    5 1
    16   16    5 1
    17   17   16 ar
    18   18   17 1
    19   19   17 ar
    20   20   19 1
    21   21   19 ar
    22   22   21 ar
    23   23   22 1
    24   24   16 ar
    25   25   24 1
    26   26    9 2
    27   27   26 1
    28   28   26 1
    29   29   28 ar
    30   30   29 1
    31   31   29 ar
    32   32   31 1
    33   33   31 ar
    34   34   33 ar
    35   35   34 1
    36   36   28 ar
    37   37   36 1
    38   38   11 1
    39   39   38 1
    40   40   38 1
    41   41   38 1
    42   42   41 1
    43   43   41 1
    44   44   41 1
    45   45   11 1
    46   46   45 1
    47   47   45 1
    48   48   45 1
    49   49   48 1
    50   50   48 1
    51   51   48 1
    52   14   15 1
    53   22   24 ar
    54   34   36 ar
@<TRIPOS>SUBSTRUCTURE
     1 RES1 1

@<TRIPOS>CRYSIN
  15.8360    8.2362   15.4470  90.0000  92.5510  90.0000  14 1

