# MOL2 file generated by ConQuest
# Please check atom types

@<TRIPOS>MOLECULE
QAQDAN
    36    37     1
SMALL
NO_CHARGES
****
Generated from CSD

@<TRIPOS>ATOM
      1 O1        -3.7675    0.9972    2.4289 O.2       1 RES1    0.0000
      2 O2        -2.8063    2.4699    1.1824 O.2       1 RES1    0.0000
      3 N1         2.0281    0.8395    4.8438 N.3       1 RES1    0.0000
      4 N2         2.0575    0.0455    5.9506 N.2       1 RES1    0.0000
      5 N3         3.2181   -0.1063    6.3880 N.2       1 RES1    0.0000
      6 N4         3.3002    2.8637    4.7297 N.3       1 RES1    0.0000
      7 N5        -2.7846    1.6551    2.0854 N.pl3     1 RES1    0.0000
      8 C1         0.8250    1.0755    4.1745 C.ar      1 RES1    0.0000
      9 C2        -0.3540    0.4661    4.6290 C.ar      1 RES1    0.0000
     10 C3        -1.5193    0.6629    3.9311 C.ar      1 RES1    0.0000
     11 C4        -1.5319    1.4555    2.8261 C.ar      1 RES1    0.0000
     12 C5        -0.3837    2.0707    2.3764 C.ar      1 RES1    0.0000
     13 C6         0.7885    1.8765    3.0525 C.ar      1 RES1    0.0000
     14 C7         3.3421    1.4424    4.5656 C.3       1 RES1    0.0000
     15 C8         4.1699    0.5926    5.5064 C.3       1 RES1    0.0000
     16 C9         3.1216    3.3072    6.1049 C.3       1 RES1    0.0000
     17 C10        2.7696    4.7693    6.2294 C.3       1 RES1    0.0000
     18 C11        4.3188    3.5786    3.9231 C.3       1 RES1    0.0000
     19 C12        5.6883    3.5187    4.4295 C.3       1 RES1    0.0000
     20 H1        -0.2802   -0.1563    5.4423 H         1 RES1    0.0000
     21 H2        -2.2485    0.2235    4.1672 H         1 RES1    0.0000
     22 H3        -0.3587    2.5616    1.5924 H         1 RES1    0.0000
     23 H4         1.5512    2.3552    2.8188 H         1 RES1    0.0000
     24 H5         3.6136    1.3096    3.6669 H         1 RES1    0.0000
     25 H6         4.6863   -0.0676    5.0458 H         1 RES1    0.0000
     26 H7         4.7599    1.0535    5.9732 H         1 RES1    0.0000
     27 H8         2.4531    2.7774    6.4985 H         1 RES1    0.0000
     28 H9         3.9619    3.1357    6.5613 H         1 RES1    0.0000
     29 H10        3.4744    5.3076    5.9488 H         1 RES1    0.0000
     30 H11        1.9666    4.9509    5.8768 H         1 RES1    0.0000
     31 H12        2.7025    4.9380    7.2422 H         1 RES1    0.0000
     32 H13        4.3371    3.2034    3.0848 H         1 RES1    0.0000
     33 H14        4.0976    4.4826    3.9292 H         1 RES1    0.0000
     34 H15        6.0309    2.6055    4.4716 H         1 RES1    0.0000
     35 H16        6.3000    4.0032    3.8536 H         1 RES1    0.0000
     36 H17        5.7917    3.8861    5.3148 H         1 RES1    0.0000
@<TRIPOS>BOND
     1    1    7 2
     2    2    7 2
     3    3    4 1
     4    4    5 2
     5    5   15 1
     6    6   14 1
     7    7   11 1
     8    8    3 1
     9    9    8 ar
    10   10    9 ar
    11   11   10 ar
    12   12   11 ar
    13   13    8 ar
    14   14    3 1
    15   15   14 1
    16   16    6 1
    17   17   16 1
    18   18    6 1
    19   19   18 1
    20   20    9 1
    21   21   10 1
    22   22   12 1
    23   23   13 1
    24   24   14 1
    25   25   15 1
    26   26   15 1
    27   27   16 1
    28   28   16 1
    29   29   17 1
    30   30   17 1
    31   31   17 1
    32   32   18 1
    33   33   18 1
    34   34   19 1
    35   35   19 1
    36   36   19 1
    37   12   13 ar
@<TRIPOS>SUBSTRUCTURE
     1 RES1 1

@<TRIPOS>CRYSIN
   9.9983   11.2046    6.1873  99.4720  90.4530  79.3140   2 1

