# MOL2 file generated by ConQuest
# Please check atom types

@<TRIPOS>MOLECULE
QAQLIF
    84    89     1
SMALL
NO_CHARGES
****
Generated from CSD

@<TRIPOS>ATOM
      1 N1         2.4656   14.9969   -1.1882 N.3       1 RES1    0.0000
      2 N2         6.3409    7.5788    3.1658 N.3       1 RES1    0.0000
      3 N3         5.0291   13.6959    4.5768 N.am      1 RES1    0.0000
      4 N4         2.3260   11.7011    6.2319 N.pl3     1 RES1    0.0000
      5 H1         1.6537   12.1366    6.5453 H         1 RES1    0.0000
      6 N5         1.5539    6.3194    4.9895 N.pl3     1 RES1    0.0000
      7 O1         4.7878   11.5473    1.0668 O.3       1 RES1    0.0000
      8 O2         5.5104   14.9526    6.4384 O.2       1 RES1    0.0000
      9 O3         0.5722    5.7470    5.4836 O.2       1 RES1    0.0000
     10 O4         2.3810    5.7354    4.3047 O.2       1 RES1    0.0000
     11 C1         6.4957   11.0998    4.2660 C.ar      1 RES1    0.0000
     12 H2         6.8291   11.5876    4.9852 H         1 RES1    0.0000
     13 C2         6.6637    9.7338    4.2563 C.ar      1 RES1    0.0000
     14 H3         7.0935    9.3188    4.9683 H         1 RES1    0.0000
     15 C3         6.1900    8.9547    3.1779 C.ar      1 RES1    0.0000
     16 C4         5.5621    9.6329    2.1316 C.ar      1 RES1    0.0000
     17 H4         5.2474    9.1559    1.3977 H         1 RES1    0.0000
     18 C5         4.2872   15.0398    2.0278 C.ar      1 RES1    0.0000
     19 H5         4.4896   15.6448    2.7051 H         1 RES1    0.0000
     20 C6         3.5041   15.4620    0.9812 C.ar      1 RES1    0.0000
     21 H6         3.1788   16.3337    0.9756 H         1 RES1    0.0000
     22 C7         3.1865   14.5918   -0.0843 C.ar      1 RES1    0.0000
     23 C8         3.6583   13.2804    0.0198 C.ar      1 RES1    0.0000
     24 H7         3.4489   12.6653   -0.6452 H         1 RES1    0.0000
     25 C9         5.6493   13.2912    3.2814 C.3       1 RES1    0.0000
     26 C10        5.8452   11.7786    3.2367 C.ar      1 RES1    0.0000
     27 C11        5.4021   11.0091    2.1735 C.ar      1 RES1    0.0000
     28 C12        4.7930   13.7367    2.1165 C.ar      1 RES1    0.0000
     29 C13        4.4311   12.8805    1.0973 C.ar      1 RES1    0.0000
     30 C14        6.9964   13.9981    3.3880 C.ar      1 RES1    0.0000
     31 C15        8.0426   14.0139    2.4961 C.ar      1 RES1    0.0000
     32 H8         7.9602   13.6142    1.6589 H         1 RES1    0.0000
     33 C16        9.2229   14.6393    2.8717 C.ar      1 RES1    0.0000
     34 H9         9.9419   14.6569    2.2815 H         1 RES1    0.0000
     35 C17        9.3449   15.2374    4.1198 C.ar      1 RES1    0.0000
     36 H10       10.1504   15.6339    4.3612 H         1 RES1    0.0000
     37 C18        8.2821   15.2520    5.0092 C.ar      1 RES1    0.0000
     38 H11        8.3571   15.6664    5.8380 H         1 RES1    0.0000
     39 C19        7.1016   14.6268    4.6230 C.ar      1 RES1    0.0000
     40 C20        5.8230   14.4752    5.3444 C.2       1 RES1    0.0000
     41 C21        1.8983   16.3354   -1.2904 C.3       1 RES1    0.0000
     42 H12        2.5001   16.9570   -0.8542 H         1 RES1    0.0000
     43 H13        1.8563   16.5787   -2.2293 H         1 RES1    0.0000
     44 C22        0.5928   16.4919   -0.7229 C.3       1 RES1    0.0000
     45 H14       -0.0012   15.8384   -1.0998 H         1 RES1    0.0000
     46 H15        0.2637   17.3722   -0.9163 H         1 RES1    0.0000
     47 H16        0.6404   16.3687    0.2273 H         1 RES1    0.0000
     48 C23        2.1801   14.0595   -2.2759 C.3       1 RES1    0.0000
     49 H17        2.9787   13.5371   -2.4524 H         1 RES1    0.0000
     50 H18        1.9774   14.5662   -3.0778 H         1 RES1    0.0000
     51 C24        1.0398   13.1165   -2.0020 C.3       1 RES1    0.0000
     52 H19        1.2004   12.6518   -1.1775 H         1 RES1    0.0000
     53 H20        0.9691   12.4831   -2.7192 H         1 RES1    0.0000
     54 H21        0.2225   13.6161   -1.9328 H         1 RES1    0.0000
     55 C25        5.9397    6.8189    1.9907 C.3       1 RES1    0.0000
     56 H22        5.2875    7.3629    1.5220 H         1 RES1    0.0000
     57 H23        6.7203    6.7696    1.4175 H         1 RES1    0.0000
     58 C26        5.4575    5.6459    2.0458 C.3       1 RES1    0.0000
     59 H24        4.7512    5.5600    1.4006 H         1 RES1    0.0000
     60 H25        5.1086    5.4840    2.9253 H         1 RES1    0.0000
     61 H26        6.1474    5.0069    1.8523 H         1 RES1    0.0000
     62 C27        7.0807    6.9080    4.2242 C.3       1 RES1    0.0000
     63 H27        7.8497    7.4504    4.4600 H         1 RES1    0.0000
     64 H28        7.4102    6.0609    3.8882 H         1 RES1    0.0000
     65 C28        6.2643    6.6526    5.4737 C.3       1 RES1    0.0000
     66 H29        5.8950    7.4814    5.7900 H         1 RES1    0.0000
     67 H30        6.8271    6.2734    6.1514 H         1 RES1    0.0000
     68 H31        5.5514    6.0425    5.2704 H         1 RES1    0.0000
     69 C29        3.6738   13.2985    4.9177 C.3       1 RES1    0.0000
     70 H32        3.2807   12.8394    4.1593 H         1 RES1    0.0000
     71 H33        3.1462   14.0944    5.0869 H         1 RES1    0.0000
     72 C30        3.5992   12.3880    6.1369 C.3       1 RES1    0.0000
     73 H34        4.3125   11.7318    6.0879 H         1 RES1    0.0000
     74 H35        3.7364   12.9173    6.9378 H         1 RES1    0.0000
     75 C31        2.1302   10.4125    5.8556 C.ar      1 RES1    0.0000
     76 C32        3.0615    9.7021    5.0595 C.ar      1 RES1    0.0000
     77 H36        3.8181   10.1330    4.7339 H         1 RES1    0.0000
     78 C33        2.8464    8.3784    4.7678 C.ar      1 RES1    0.0000
     79 H37        3.4610    7.9179    4.2440 H         1 RES1    0.0000
     80 C34        1.7338    7.7264    5.2435 C.ar      1 RES1    0.0000
     81 C35        0.7779    8.4166    6.0081 C.ar      1 RES1    0.0000
     82 H38        0.0214    7.9751    6.3208 H         1 RES1    0.0000
     83 C36        0.9687    9.7409    6.2881 C.ar      1 RES1    0.0000
     84 H39        0.3226   10.2051    6.7698 H         1 RES1    0.0000
@<TRIPOS>BOND
     1    1   22 1
     2    2   15 1
     3    3   25 1
     4    4    5 1
     5    6    9 2
     6    7   27 1
     7    8   40 2
     8   10    6 2
     9   11   12 1
    10   13   11 ar
    11   14   13 1
    12   15   13 ar
    13   16   15 ar
    14   17   16 1
    15   18   19 1
    16   20   18 ar
    17   21   20 1
    18   22   20 ar
    19   23   22 ar
    20   24   23 1
    21   25   26 1
    22   26   11 ar
    23   27   16 ar
    24   28   18 ar
    25   29    7 1
    26   30   25 1
    27   31   30 ar
    28   32   31 1
    29   33   31 ar
    30   34   33 1
    31   35   33 ar
    32   36   35 1
    33   37   35 ar
    34   38   37 1
    35   39   30 ar
    36   40    3 1
    37   41    1 1
    38   42   41 1
    39   43   41 1
    40   44   41 1
    41   45   44 1
    42   46   44 1
    43   47   44 1
    44   48    1 1
    45   49   48 1
    46   50   48 1
    47   51   48 1
    48   52   51 1
    49   53   51 1
    50   54   51 1
    51   55    2 1
    52   56   55 1
    53   57   55 1
    54   58   55 1
    55   59   58 1
    56   60   58 1
    57   61   58 1
    58   62    2 1
    59   63   62 1
    60   64   62 1
    61   65   62 1
    62   66   65 1
    63   67   65 1
    64   68   65 1
    65   69    3 1
    66   70   69 1
    67   71   69 1
    68   72    4 1
    69   73   72 1
    70   74   72 1
    71   75    4 1
    72   76   75 ar
    73   77   76 1
    74   78   76 ar
    75   79   78 1
    76   80    6 1
    77   81   80 ar
    78   82   81 1
    79   83   75 ar
    80   84   83 1
    81   23   29 ar
    82   25   28 1
    83   26   27 ar
    84   28   29 ar
    85   37   39 ar
    86   39   40 1
    87   69   72 1
    88   78   80 ar
    89   81   83 ar
@<TRIPOS>SUBSTRUCTURE
     1 RES1 1

@<TRIPOS>CRYSIN
   9.2250   12.1440   14.8860  74.7300  78.2900  83.9900   2 1

