# MOL2 file generated by ConQuest
# Please check atom types

@<TRIPOS>MOLECULE
QAQPIH
    20    20     1
SMALL
NO_CHARGES
****
Generated from CSD

@<TRIPOS>ATOM
      1 O1         4.3795    2.0925    3.5380 O.3       1 RES1    0.0000
      2 O2         3.5789    1.6736    1.0763 O.2       1 RES1    0.0000
      3 O3         1.6028    2.4711    1.5374 O.2       1 RES1    0.0000
      4 N1         5.6408    2.6996    3.2584 N.2       1 RES1    0.0000
      5 N2         2.7787    2.2711    1.7759 N.pl3     1 RES1    0.0000
      6 N3         7.3617    5.4290    2.2095 N.1       1 RES1    0.0000
      7 N4         1.4602    2.8996    4.8570 N.1       1 RES1    0.0000
      8 C1         5.4141    3.8756    2.8216 C.2       1 RES1    0.0000
      9 C2         3.9676    4.3279    2.7382 C.3       1 RES1    0.0000
     10 C3         3.3440    2.9258    3.0737 C.3       1 RES1    0.0000
     11 C4         6.5311    4.7243    2.4850 C.1       1 RES1    0.0000
     12 C5         3.6653    5.3421    3.8482 C.3       1 RES1    0.0000
     13 C6         3.6036    4.8969    1.3717 C.3       1 RES1    0.0000
     14 C7         2.2404    2.9103    4.0656 C.1       1 RES1    0.0000
     15 H1         3.8442    5.0338    4.8011 H         1 RES1    0.0000
     16 H2         2.7197    5.6480    3.7469 H         1 RES1    0.0000
     17 H3         4.1381    6.1610    3.6193 H         1 RES1    0.0000
     18 H4         4.1030    5.8527    1.2958 H         1 RES1    0.0000
     19 H5         2.6463    5.1016    1.3253 H         1 RES1    0.0000
     20 H6         3.9395    4.3541    0.6342 H         1 RES1    0.0000
@<TRIPOS>BOND
     1    1    4 1
     2    2    5 2
     3    3    5 2
     4    4    8 2
     5    5   10 1
     6    6   11 3
     7    7   14 3
     8    8    9 1
     9    9   10 1
    10   10    1 1
    11   11    8 1
    12   12    9 1
    13   13    9 1
    14   14   10 1
    15   15   12 1
    16   16   12 1
    17   17   12 1
    18   18   13 1
    19   19   13 1
    20   20   13 1
@<TRIPOS>SUBSTRUCTURE
     1 RES1 1

@<TRIPOS>CRYSIN
   7.2740   11.9030   10.7350  90.0000 100.6000  90.0000 231 1

