# MOL2 file generated by ConQuest
# Please check atom types

@<TRIPOS>MOLECULE
QARHEZ
    34    36     1
SMALL
NO_CHARGES
****
Generated from CSD

@<TRIPOS>ATOM
      1 O1         3.7542    2.0974   12.1122 O.2       1 RES1    0.0000
      2 O2         2.2591   -0.7539   12.0133 O.2       1 RES1    0.0000
      3 O3         0.7963    0.8036   12.2647 O.2       1 RES1    0.0000
      4 N1         4.5131    1.9802    9.9662 N.am      1 RES1    0.0000
      5 N2         1.3902    1.6353    9.6871 N.3       1 RES1    0.0000
      6 N3         1.7420    0.3038   11.7185 N.pl3     1 RES1    0.0000
      7 C1         3.6163    1.7315   10.9588 C.2       1 RES1    0.0000
      8 C2         2.3536    1.0259   10.5494 C.3       1 RES1    0.0000
      9 C3         2.1850    0.4844    9.1862 C.3       1 RES1    0.0000
     10 C4         3.3292    0.6669    8.2732 C.ar      1 RES1    0.0000
     11 C5         3.2970    0.0828    7.0246 C.ar      1 RES1    0.0000
     12 C6         4.3500    0.2223    6.1439 C.ar      1 RES1    0.0000
     13 C7         5.4492    0.9389    6.5367 C.ar      1 RES1    0.0000
     14 C8         5.5189    1.5230    7.7778 C.ar      1 RES1    0.0000
     15 C9         4.4534    1.3960    8.6752 C.ar      1 RES1    0.0000
     16 C10        5.6611    2.8348   10.3073 C.3       1 RES1    0.0000
     17 C11        1.5927    3.0143    9.2094 C.3       1 RES1    0.0000
     18 C12        0.3162    3.5114    8.6049 C.3       1 RES1    0.0000
     19 C13       -0.8213    3.6605    9.5735 C.3       1 RES1    0.0000
     20 H1         1.7102   -0.3701    9.1169 H         1 RES1    0.0000
     21 H2         2.5530   -0.4156    6.7714 H         1 RES1    0.0000
     22 H3         4.3131   -0.1616    5.2983 H         1 RES1    0.0000
     23 H4         6.1637    1.0328    5.9498 H         1 RES1    0.0000
     24 H5         6.2774    2.0035    8.0227 H         1 RES1    0.0000
     25 H6         6.4633    2.3073   10.3063 H         1 RES1    0.0000
     26 H7         5.5292    3.2145   11.1788 H         1 RES1    0.0000
     27 H8         5.7399    3.5390    9.6594 H         1 RES1    0.0000
     28 H9         2.3016    3.0336    8.5467 H         1 RES1    0.0000
     29 H10        1.8510    3.5859    9.9496 H         1 RES1    0.0000
     30 H11        0.0469    2.8983    7.9026 H         1 RES1    0.0000
     31 H12        0.4848    4.3730    8.1918 H         1 RES1    0.0000
     32 H13       -1.4934    4.2308    9.1927 H         1 RES1    0.0000
     33 H14       -0.4985    4.0471   10.3904 H         1 RES1    0.0000
     34 H15       -1.2009    2.7975    9.7565 H         1 RES1    0.0000
@<TRIPOS>BOND
     1    1    7 2
     2    2    6 2
     3    3    6 2
     4    4    7 1
     5    5    8 1
     6    6    8 1
     7    7    8 1
     8    8    9 1
     9    9    5 1
    10   10    9 1
    11   11   10 ar
    12   12   11 ar
    13   13   12 ar
    14   14   13 ar
    15   15    4 1
    16   16    4 1
    17   17    5 1
    18   18   17 1
    19   19   18 1
    20   20    9 1
    21   21   11 1
    22   22   12 1
    23   23   13 1
    24   24   14 1
    25   25   16 1
    26   26   16 1
    27   27   16 1
    28   28   17 1
    29   29   17 1
    30   30   18 1
    31   31   18 1
    32   32   19 1
    33   33   19 1
    34   34   19 1
    35   10   15 ar
    36   14   15 ar
@<TRIPOS>SUBSTRUCTURE
     1 RES1 1

@<TRIPOS>CRYSIN
  10.2400   13.8080   10.3630  90.0000 116.9000  90.0000  14 1

