# MOL2 file generated by ConQuest
# Please check atom types

@<TRIPOS>MOLECULE
QATJEB
    44    46     1
SMALL
NO_CHARGES
****
Generated from CSD

@<TRIPOS>ATOM
      1 O1         1.2379    1.7316    6.0503 O.3       1 RES1    0.0000
      2 N1         1.2296    2.0790    4.6331 N.3       1 RES1    0.0000
      3 C1         2.1000    1.0558    3.9973 C.3       1 RES1    0.0000
      4 H1         2.6693    1.4853    3.2962 H         1 RES1    0.0000
      5 C2         3.0007    0.4753    5.1190 C.3       1 RES1    0.0000
      6 H2         2.7538   -0.4836    5.2612 H         1 RES1    0.0000
      7 C3         2.5765    1.2731    6.3456 C.3       1 RES1    0.0000
      8 H3         2.5810    0.7013    7.1545 H         1 RES1    0.0000
      9 H4         3.1851    2.0391    6.4932 H         1 RES1    0.0000
     10 C4         1.2218   -0.0107    3.3611 C.3       1 RES1    0.0000
     11 H5         0.5371   -0.3265    4.0172 H         1 RES1    0.0000
     12 C5         0.5384    0.4420    2.0683 C.3       1 RES1    0.0000
     13 H6        -0.3617    0.0400    1.9821 H         1 RES1    0.0000
     14 H7         0.4565    1.4288    2.0351 H         1 RES1    0.0000
     15 O2         1.4178   -0.0365    1.0439 O.3       1 RES1    0.0000
     16 C6         1.9427   -1.2764    1.5295 C.3       1 RES1    0.0000
     17 O3         2.0497   -1.1100    2.9481 O.3       1 RES1    0.0000
     18 C7         3.3096   -1.4756    0.9427 C.3       1 RES1    0.0000
     19 H8         3.2419   -1.5252   -0.0342 H         1 RES1    0.0000
     20 H9         3.6938   -2.3092    1.2867 H         1 RES1    0.0000
     21 H10        3.8853   -0.7233    1.1927 H         1 RES1    0.0000
     22 C8         1.0026   -2.4324    1.2388 C.3       1 RES1    0.0000
     23 H11        0.0903   -2.1838    1.4969 H         1 RES1    0.0000
     24 H12        1.2844   -3.2185    1.7515 H         1 RES1    0.0000
     25 H13        1.0271   -2.6399    0.2819 H         1 RES1    0.0000
     26 C9         4.4856    0.5530    4.8209 C.3       1 RES1    0.0000
     27 H14        5.0027    0.2962    5.6252 H         1 RES1    0.0000
     28 H15        4.7145   -0.0758    4.0907 H         1 RES1    0.0000
     29 O4         4.8234    1.8803    4.4354 O.3       1 RES1    0.0000
     30 H16        5.6591    1.9661    4.4308 H         1 RES1    0.0000
     31 C10        1.7789    3.4514    4.4952 C.3       1 RES1    0.0000
     32 H17        2.7557    3.4390    4.6546 H         1 RES1    0.0000
     33 H18        1.3630    4.0480    5.1672 H         1 RES1    0.0000
     34 C11        1.4965    3.9719    3.1067 C.ar      1 RES1    0.0000
     35 C12        0.1992    4.3617    2.7572 C.ar      1 RES1    0.0000
     36 H19       -0.5061    4.2808    3.3884 H         1 RES1    0.0000
     37 C13       -0.0619    4.8683    1.4875 C.ar      1 RES1    0.0000
     38 H20       -0.9420    5.1392    1.2559 H         1 RES1    0.0000
     39 C14        0.9652    4.9769    0.5617 C.ar      1 RES1    0.0000
     40 H21        0.7866    5.3211   -0.3059 H         1 RES1    0.0000
     41 C15        2.2547    4.5838    0.8988 C.ar      1 RES1    0.0000
     42 H22        2.9575    4.6570    0.2631 H         1 RES1    0.0000
     43 C16        2.5113    4.0826    2.1691 C.ar      1 RES1    0.0000
     44 H23        3.3927    3.8124    2.3974 H         1 RES1    0.0000
@<TRIPOS>BOND
     1    1    2 1
     2    2    3 1
     3    3    4 1
     4    5    3 1
     5    6    5 1
     6    7    1 1
     7    8    7 1
     8    9    7 1
     9   10    3 1
    10   11   10 1
    11   12   10 1
    12   13   12 1
    13   14   12 1
    14   15   12 1
    15   16   15 1
    16   17   10 1
    17   18   16 1
    18   19   18 1
    19   20   18 1
    20   21   18 1
    21   22   16 1
    22   23   22 1
    23   24   22 1
    24   25   22 1
    25   26    5 1
    26   27   26 1
    27   28   26 1
    28   29   26 1
    29   30   29 1
    30   31    2 1
    31   32   31 1
    32   33   31 1
    33   34   31 1
    34   35   34 ar
    35   36   35 1
    36   37   35 ar
    37   38   37 1
    38   39   37 ar
    39   40   39 1
    40   41   39 ar
    41   42   41 1
    42   43   34 ar
    43   44   43 1
    44    5    7 1
    45   16   17 1
    46   41   43 ar
@<TRIPOS>SUBSTRUCTURE
     1 RES1 1

@<TRIPOS>CRYSIN
   6.4476   13.7780   17.0874  90.0000  90.0000  90.0000  19 1

