# MOL2 file generated by ConQuest
# Please check atom types

@<TRIPOS>MOLECULE
QATYES
    39    42     1
SMALL
NO_CHARGES
****
Generated from CSD

@<TRIPOS>ATOM
      1 C1         8.1725   14.6614   13.7669 C.ar      1 RES1    0.0000
      2 C2         9.0556   13.5529   13.6425 C.ar      1 RES1    0.0000
      3 C3        10.1688   13.5440   12.7717 C.ar      1 RES1    0.0000
      4 H1        10.3561   14.2911   12.2502 H         1 RES1    0.0000
      5 C4        10.9721   12.4383   12.6964 C.ar      1 RES1    0.0000
      6 H2        11.6953   12.4320   12.1128 H         1 RES1    0.0000
      7 C5        10.7135   11.3164   13.4926 C.ar      1 RES1    0.0000
      8 H3        11.2741   10.5758   13.4408 H         1 RES1    0.0000
      9 C6         9.6604   11.2987   14.3315 C.ar      1 RES1    0.0000
     10 H4         9.5073   10.5471   14.8576 H         1 RES1    0.0000
     11 C7         8.7882   12.3963   14.4260 C.ar      1 RES1    0.0000
     12 C8         7.6642   12.3857   15.2767 C.ar      1 RES1    0.0000
     13 H5         7.4948   11.6334   15.7965 H         1 RES1    0.0000
     14 C9         6.8294   13.4423   15.3543 C.ar      1 RES1    0.0000
     15 H6         6.0864   13.4105   15.9128 H         1 RES1    0.0000
     16 C10        7.0855   14.5911   14.5884 C.ar      1 RES1    0.0000
     17 H7         6.5045   15.3155   14.6419 H         1 RES1    0.0000
     18 C11        8.4574   15.9036   13.0208 C.2       1 RES1    0.0000
     19 C12        9.4343   16.8655   13.1303 C.2       1 RES1    0.0000
     20 C13        6.5618   15.7602   11.3299 C.3       1 RES1    0.0000
     21 H8         5.9492   16.4681   11.0766 H         1 RES1    0.0000
     22 H9         6.1077   15.1875   11.9690 H         1 RES1    0.0000
     23 C14        6.9204   14.9540   10.1083 C.ar      1 RES1    0.0000
     24 C15        7.5081   13.7063   10.2218 C.ar      1 RES1    0.0000
     25 H10        7.6767   13.3500   11.0639 H         1 RES1    0.0000
     26 C16        7.8467   12.9857    9.0947 C.ar      1 RES1    0.0000
     27 H11        8.2489   12.1514    9.1797 H         1 RES1    0.0000
     28 C17        7.5904   13.5002    7.8445 C.ar      1 RES1    0.0000
     29 H12        7.8288   13.0205    7.0841 H         1 RES1    0.0000
     30 C18        6.9801   14.7263    7.7232 C.ar      1 RES1    0.0000
     31 H13        6.7885   15.0652    6.8790 H         1 RES1    0.0000
     32 C19        6.6497   15.4571    8.8477 C.ar      1 RES1    0.0000
     33 H14        6.2449   16.2897    8.7568 H         1 RES1    0.0000
     34 N1         7.7453   16.3520   11.9686 N.3       1 RES1    0.0000
     35 N2         8.2571   17.5052   11.4735 N.2       1 RES1    0.0000
     36 N3         9.3029   17.8166   12.1878 N.2       1 RES1    0.0000
     37 N4        10.4597   16.9465   14.1280 N.pl3     1 RES1    0.0000
     38 O1        10.3909   16.1697   15.0604 O.2       1 RES1    0.0000
     39 O2        11.3382   17.7753   14.0039 O.2       1 RES1    0.0000
@<TRIPOS>BOND
     1    1    2 ar
     2    2    3 ar
     3    3    4 1
     4    5    3 ar
     5    6    5 1
     6    7    5 ar
     7    8    7 1
     8    9    7 ar
     9   10    9 1
    10   11    2 ar
    11   12   11 ar
    12   13   12 1
    13   14   12 ar
    14   15   14 1
    15   16    1 ar
    16   17   16 1
    17   18    1 1
    18   19   18 2
    19   20   21 1
    20   22   20 1
    21   23   20 1
    22   24   23 ar
    23   25   24 1
    24   26   24 ar
    25   27   26 1
    26   28   26 ar
    27   29   28 1
    28   30   28 ar
    29   31   30 1
    30   32   23 ar
    31   33   32 1
    32   34   18 1
    33   35   34 1
    34   36   19 1
    35   37   19 1
    36   38   37 2
    37   39   37 2
    38    9   11 ar
    39   14   16 ar
    40   20   34 1
    41   30   32 ar
    42   35   36 2
@<TRIPOS>SUBSTRUCTURE
     1 RES1 1

@<TRIPOS>CRYSIN
  10.6369   14.3889   21.1466  90.0000  90.0000  90.0000  61 1

