# MOL2 file generated by ConQuest
# Please check atom types

@<TRIPOS>MOLECULE
QATYAO
    52    56     1
SMALL
NO_CHARGES
****
Generated from CSD

@<TRIPOS>ATOM
      1 C1         0.2522   13.3540    7.8418 C.2       1 RES1    0.0000
      2 C2        -1.0170   13.8537    7.7275 C.2       1 RES1    0.0000
      3 H1        -1.8068   13.3631    7.7594 H         1 RES1    0.0000
      4 C3         1.0942   14.4947    7.7541 C.2       1 RES1    0.0000
      5 C4        -1.9634   16.1241    7.3241 C.ar      1 RES1    0.0000
      6 C5        -3.2698   15.7489    7.4628 C.ar      1 RES1    0.0000
      7 H2        -3.4864   14.8816    7.7195 H         1 RES1    0.0000
      8 C6        -4.2637   16.6756    7.2172 C.ar      1 RES1    0.0000
      9 H3        -5.1528   16.4261    7.3257 H         1 RES1    0.0000
     10 C7        -3.9727   17.9394    6.8210 C.ar      1 RES1    0.0000
     11 H4        -4.6540   18.5489    6.6495 H         1 RES1    0.0000
     12 C8        -2.6837   18.2994    6.6782 C.ar      1 RES1    0.0000
     13 H5        -2.4764   19.1641    6.4088 H         1 RES1    0.0000
     14 C9        -1.6640   17.3998    6.9270 C.ar      1 RES1    0.0000
     15 H6        -0.7776   17.6608    6.8257 H         1 RES1    0.0000
     16 C10        2.5639   14.5547    7.8510 C.ar      1 RES1    0.0000
     17 C11        3.2843   15.4548    7.0849 C.ar      1 RES1    0.0000
     18 H7         2.8399   16.0492    6.5244 H         1 RES1    0.0000
     19 C12        4.6664   15.4699    7.1534 C.ar      1 RES1    0.0000
     20 H8         5.1476   16.0708    6.6328 H         1 RES1    0.0000
     21 C13        5.3342   14.5989    7.9874 C.ar      1 RES1    0.0000
     22 H9         6.2637   14.6108    8.0265 H         1 RES1    0.0000
     23 C14        4.6266   13.7188    8.7568 C.ar      1 RES1    0.0000
     24 H10        5.0752   13.1378    9.3277 H         1 RES1    0.0000
     25 C15        3.2502   13.6895    8.6903 C.ar      1 RES1    0.0000
     26 H11        2.7774   13.0837    9.2137 H         1 RES1    0.0000
     27 C16        0.6072   11.9365    7.8819 C.2       1 RES1    0.0000
     28 C17        0.2279   10.8967    8.7018 C.2       1 RES1    0.0000
     29 C18       -0.6411   10.9168    9.8834 C.2       1 RES1    0.0000
     30 C19       -0.4979    9.8149   10.8793 C.3       1 RES1    0.0000
     31 H12        0.3396    9.9059   11.3393 H         1 RES1    0.0000
     32 H13       -0.5246    8.9679   10.4272 H         1 RES1    0.0000
     33 H14       -1.2178    9.8604   11.5139 H         1 RES1    0.0000
     34 C20        2.2809   11.9640    5.9930 C.ar      1 RES1    0.0000
     35 C21        1.7240   12.8144    5.0589 C.ar      1 RES1    0.0000
     36 H15        0.8038   12.9472    5.0334 H         1 RES1    0.0000
     37 C22        2.5507   13.4686    4.1619 C.ar      1 RES1    0.0000
     38 H16        2.1857   14.0584    3.5416 H         1 RES1    0.0000
     39 C23        3.9100   13.2524    4.1827 C.ar      1 RES1    0.0000
     40 H17        4.4726   13.7097    3.6006 H         1 RES1    0.0000
     41 C24        4.4155   12.3470    5.0812 C.ar      1 RES1    0.0000
     42 C25        3.6358   11.7017    6.0077 C.ar      1 RES1    0.0000
     43 H18        4.0062   11.1103    6.6224 H         1 RES1    0.0000
     44 N1        -0.9128   15.1846    7.5607 N.pl3     1 RES1    0.0000
     45 N2         0.3801   15.5984    7.5849 N.2       1 RES1    0.0000
     46 N3         1.4795   11.3611    7.0126 N.pl3     1 RES1    0.0000
     47 N4         1.6381   10.0333    7.2890 N.2       1 RES1    0.0000
     48 N5         0.8789    9.7625    8.3048 N.2       1 RES1    0.0000
     49 N6         5.8616   12.0619    5.0733 N.pl3     1 RES1    0.0000
     50 O1        -1.4271   11.8156   10.0525 O.2       1 RES1    0.0000
     51 O2         6.5721   12.7306    4.3573 O.2       1 RES1    0.0000
     52 O3         6.2711   11.1534    5.7542 O.2       1 RES1    0.0000
@<TRIPOS>BOND
     1    1    2 2
     2    2    3 1
     3    4    1 1
     4    5    6 ar
     5    6    7 1
     6    8    6 ar
     7    9    8 1
     8   10    8 ar
     9   11   10 1
    10   12   10 ar
    11   13   12 1
    12   14    5 ar
    13   15   14 1
    14   16    4 1
    15   17   16 ar
    16   18   17 1
    17   19   17 ar
    18   20   19 1
    19   21   19 ar
    20   22   21 1
    21   23   21 ar
    22   24   23 1
    23   25   16 ar
    24   26   25 1
    25   27    1 1
    26   28   27 2
    27   29   28 1
    28   30   29 1
    29   31   30 1
    30   32   30 1
    31   33   30 1
    32   34   35 ar
    33   35   36 1
    34   37   35 ar
    35   38   37 1
    36   39   37 ar
    37   40   39 1
    38   41   39 ar
    39   42   34 ar
    40   43   42 1
    41   44    2 1
    42   45    4 2
    43   46   27 1
    44   47   46 1
    45   48   28 1
    46   49   41 1
    47   50   29 2
    48   51   49 2
    49   52   49 2
    50    5   44 1
    51   12   14 ar
    52   23   25 ar
    53   34   46 1
    54   41   42 ar
    55   44   45 1
    56   47   48 2
@<TRIPOS>SUBSTRUCTURE
     1 RES1 1

@<TRIPOS>CRYSIN
  12.7054   21.6617    8.1228  90.0000 101.0180  90.0000  14 1

