# MOL2 file generated by ConQuest
# Please check atom types

@<TRIPOS>MOLECULE
QAVCIC
    32    34     1
SMALL
NO_CHARGES
****
Generated from CSD

@<TRIPOS>ATOM
      1 O1         4.8494    5.5996    7.5606 O.2       1 RES1    0.0000
      2 O2         1.4042    5.6240    4.2462 O.2       1 RES1    0.0000
      3 N1         2.1305    6.1177    3.3917 N.pl3     1 RES1    0.0000
      4 O3         1.1707    8.2670    8.0672 O.2       1 RES1    0.0000
      5 N2         3.0284    7.0245    7.4719 N.am      1 RES1    0.0000
      6 N3         5.8928    8.8358    2.0387 N.pl3     1 RES1    0.0000
      7 O4         5.6189    8.5384    0.8822 O.2       1 RES1    0.0000
      8 O5         1.9671    5.9120    2.1952 O.2       1 RES1    0.0000
      9 N4         2.6822    6.8110    6.1579 N.pl3     1 RES1    0.0000
     10 H1         2.1084    6.1138    5.9569 H         1 RES1    0.0000
     11 O6         6.8651    9.5094    2.3411 O.2       1 RES1    0.0000
     12 C1         3.2139    6.9939    3.7997 C.ar      1 RES1    0.0000
     13 C2         3.4430    7.3186    5.1540 C.ar      1 RES1    0.0000
     14 C3         4.0119    7.4971    2.7999 C.ar      1 RES1    0.0000
     15 H2         3.8523    7.2631    1.9148 H         1 RES1    0.0000
     16 C4         3.8523    6.5827    9.5533 C.ar      1 RES1    0.0000
     17 C5         2.1597    7.6620    8.3749 C.2       1 RES1    0.0000
     18 C6         4.0438    6.2921    8.1155 C.2       1 RES1    0.0000
     19 C7         5.0430    8.3444    3.1114 C.ar      1 RES1    0.0000
     20 C8         2.7221    7.3724    9.7032 C.ar      1 RES1    0.0000
     21 C9         4.4983    8.2098    5.4147 C.ar      1 RES1    0.0000
     22 H3         4.6623    8.4672    6.2932 H         1 RES1    0.0000
     23 C10        5.2894    8.7101    4.4227 C.ar      1 RES1    0.0000
     24 H4         5.9872    9.2907    4.6261 H         1 RES1    0.0000
     25 C11        4.5738    6.1536   10.6365 C.ar      1 RES1    0.0000
     26 H5         5.3336    5.6279   10.5335 H         1 RES1    0.0000
     27 C12        2.2848    7.7610   10.9467 C.ar      1 RES1    0.0000
     28 H6         1.5336    8.2993   11.0497 H         1 RES1    0.0000
     29 C13        4.1257    6.5372   11.8891 C.ar      1 RES1    0.0000
     30 H7         4.5922    6.2582   12.6425 H         1 RES1    0.0000
     31 C14        3.0095    7.3178   12.0416 C.ar      1 RES1    0.0000
     32 H8         2.7334    7.5539   12.8980 H         1 RES1    0.0000
@<TRIPOS>BOND
     1    1   18 2
     2    2    3 2
     3    3    8 2
     4    4   17 2
     5    5    9 1
     6    6    7 2
     7    9   10 1
     8   11    6 2
     9   12    3 1
    10   13    9 1
    11   14   12 ar
    12   15   14 1
    13   16   18 1
    14   17    5 1
    15   18    5 1
    16   19    6 1
    17   20   16 ar
    18   21   13 ar
    19   22   21 1
    20   23   19 ar
    21   24   23 1
    22   25   16 ar
    23   26   25 1
    24   27   20 ar
    25   28   27 1
    26   29   25 ar
    27   30   29 1
    28   31   27 ar
    29   32   31 1
    30   12   13 ar
    31   14   19 ar
    32   17   20 1
    33   21   23 ar
    34   29   31 ar
@<TRIPOS>SUBSTRUCTURE
     1 RES1 1

@<TRIPOS>CRYSIN
   5.3924   19.5141   13.0349  90.0000  90.0000  90.0000  33 1

