# MOL2 file generated by ConQuest
# Please check atom types

@<TRIPOS>MOLECULE
QAVYAO
    82    86     2
SMALL
NO_CHARGES
****
Generated from CSD

@<TRIPOS>ATOM
      1 O1         3.8487    1.7883    4.0794 O.2       1 RES1    0.0000
      2 O2         0.9815    3.7231    4.9696 O.3       1 RES1    0.0000
      3 O3         4.6819   11.5135    3.7333 O.2       1 RES1    0.0000
      4 N1         1.6111    1.3121    4.0686 N.am      1 RES1    0.0000
      5 H1         0.8436    1.6768    4.2026 H         1 RES1    0.0000
      6 N2         0.9886    4.9946    4.3473 N.2       1 RES1    0.0000
      7 N3         3.1075   10.7136    2.4175 N.am      1 RES1    0.0000
      8 H2         2.5809   10.9429    1.7767 H         1 RES1    0.0000
      9 C1         2.6617   -0.5488    2.8362 C.ar      1 RES1    0.0000
     10 H3         3.3965   -0.0218    2.6157 H         1 RES1    0.0000
     11 C2         2.5970   -1.8652    2.4335 C.ar      1 RES1    0.0000
     12 H4         3.2985   -2.2285    1.9451 H         1 RES1    0.0000
     13 C3         1.5144   -2.6430    2.7436 C.ar      1 RES1    0.0000
     14 H5         1.4851   -3.5351    2.4779 H         1 RES1    0.0000
     15 C4         0.4652   -2.0928    3.4547 C.ar      1 RES1    0.0000
     16 H6        -0.2778   -2.6169    3.6537 H         1 RES1    0.0000
     17 C5         0.5016   -0.7872    3.8719 C.ar      1 RES1    0.0000
     18 H7        -0.2116   -0.4247    4.3465 H         1 RES1    0.0000
     19 C6         1.6059   -0.0160    3.5810 C.ar      1 RES1    0.0000
     20 C7         2.6936    2.0663    4.3457 C.2       1 RES1    0.0000
     21 C8         2.3581    3.3130    5.1694 C.3       1 RES1    0.0000
     22 H8         2.4898    3.1069    6.1186 H         1 RES1    0.0000
     23 C9         3.2010    4.5220    4.8135 C.3       1 RES1    0.0000
     24 H9         3.6301    4.8998    5.5973 H         1 RES1    0.0000
     25 H10        3.8760    4.3046    4.1521 H         1 RES1    0.0000
     26 C10        2.1820    5.4315    4.2646 C.2       1 RES1    0.0000
     27 C11        2.4501    6.7857    3.7479 C.ar      1 RES1    0.0000
     28 C12        3.6328    7.4307    4.0250 C.ar      1 RES1    0.0000
     29 H11        4.2995    6.9759    4.4874 H         1 RES1    0.0000
     30 C13        3.8554    8.7311    3.6369 C.ar      1 RES1    0.0000
     31 H12        4.6527    9.1536    3.8650 H         1 RES1    0.0000
     32 C14        2.9094    9.4088    2.9166 C.ar      1 RES1    0.0000
     33 C15        1.7276    8.7747    2.6111 C.ar      1 RES1    0.0000
     34 H13        1.0754    9.2226    2.1227 H         1 RES1    0.0000
     35 C16        1.5036    7.4833    3.0222 C.ar      1 RES1    0.0000
     36 H14        0.6989    7.0703    2.8079 H         1 RES1    0.0000
     37 C17        3.9875   11.6467    2.7872 C.2       1 RES1    0.0000
     38 C18        4.0625   12.8706    1.9566 C.3       1 RES1    0.0000
     39 H15        4.7231   13.4654    2.3210 H         1 RES1    0.0000
     40 H16        3.2073   13.3057    1.9528 H         1 RES1    0.0000
     41 H17        4.3049   12.6343    1.0587 H         1 RES1    0.0000
     42 O4         6.6170    1.7059    7.9918 O.2       2 RES2    0.0000
     43 O5         3.8194    3.7322    8.9349 O.3       2 RES2    0.0000
     44 O6         7.3331   11.3255    7.6435 O.2       2 RES2    0.0000
     45 N4         4.3812    1.2903    8.0048 N.am      2 RES2    0.0000
     46 H18        3.6173    1.6478    8.1687 H         2 RES2    0.0000
     47 N5         3.7761    5.0541    8.4320 N.2       2 RES2    0.0000
     48 N6         5.8900   10.6740    6.1332 N.am      2 RES2    0.0000
     49 H19        5.4321   10.9066    5.4435 H         2 RES2    0.0000
     50 C19        5.3993   -0.9135    7.7178 C.ar      2 RES2    0.0000
     51 H20        6.1485   -0.6388    8.1955 H         2 RES2    0.0000
     52 C20        5.3184   -2.2049    7.2554 C.ar      2 RES2    0.0000
     53 H21        6.0043   -2.8056    7.4391 H         2 RES2    0.0000
     54 C21        4.2381   -2.6122    6.5274 C.ar      2 RES2    0.0000
     55 H22        4.1938   -3.4807    6.1944 H         2 RES2    0.0000
     56 C22        3.2270   -1.7313    6.2947 C.ar      2 RES2    0.0000
     57 H23        2.4830   -2.0071    5.8086 H         2 RES2    0.0000
     58 C23        3.2875   -0.4384    6.7678 C.ar      2 RES2    0.0000
     59 H24        2.5879    0.1524    6.6032 H         2 RES2    0.0000
     60 C24        4.3748   -0.0272    7.4782 C.ar      2 RES2    0.0000
     61 C25        5.4679    2.0234    8.2697 C.2       2 RES2    0.0000
     62 C26        5.2094    3.3268    9.0069 C.3       2 RES2    0.0000
     63 H25        5.4476    3.2012    9.9492 H         2 RES2    0.0000
     64 C27        6.0249    4.4781    8.4550 C.3       2 RES2    0.0000
     65 H26        6.6650    4.8055    9.1056 H         2 RES2    0.0000
     66 H27        6.4919    4.2284    7.6420 H         2 RES2    0.0000
     67 C28        4.9602    5.4715    8.1878 C.2       2 RES2    0.0000
     68 C29        5.1962    6.8275    7.6680 C.ar      2 RES2    0.0000
     69 C30        6.4059    7.1468    7.0480 C.ar      2 RES2    0.0000
     70 H28        7.0702    6.5004    6.9752 H         2 RES2    0.0000
     71 C31        6.6248    8.4056    6.5435 C.ar      2 RES2    0.0000
     72 H29        7.4291    8.5983    6.1186 H         2 RES2    0.0000
     73 C32        5.6701    9.3739    6.6622 C.ar      2 RES2    0.0000
     74 C33        4.4685    9.0777    7.2784 C.ar      2 RES2    0.0000
     75 H30        3.8142    9.7343    7.3534 H         2 RES2    0.0000
     76 C34        4.2320    7.8074    7.7859 C.ar      2 RES2    0.0000
     77 H31        3.4244    7.6183    8.2054 H         2 RES2    0.0000
     78 C35        6.7454   11.5440    6.6246 C.2       2 RES2    0.0000
     79 C36        6.9443   12.8118    5.8783 C.3       2 RES2    0.0000
     80 H32        7.5845   13.3566    6.3399 H         2 RES2    0.0000
     81 H33        6.1089   13.2803    5.8163 H         2 RES2    0.0000
     82 H34        7.2675   12.6161    4.9957 H         2 RES2    0.0000
@<TRIPOS>BOND
     1    1   20 2
     2    2    6 1
     3    3   37 2
     4    4    5 1
     5    6   26 2
     6    7    8 1
     7    9   10 1
     8   11    9 ar
     9   12   11 1
    10   13   11 ar
    11   14   13 1
    12   15   13 ar
    13   16   15 1
    14   17   15 ar
    15   18   17 1
    16   19    4 1
    17   20    4 1
    18   21    2 1
    19   22   21 1
    20   23   21 1
    21   24   23 1
    22   25   23 1
    23   26   23 1
    24   27   26 1
    25   28   27 ar
    26   29   28 1
    27   30   28 ar
    28   31   30 1
    29   32    7 1
    30   33   32 ar
    31   34   33 1
    32   35   27 ar
    33   36   35 1
    34   37    7 1
    35   38   37 1
    36   39   38 1
    37   40   38 1
    38   41   38 1
    39   42   61 2
    40   43   47 1
    41   44   78 2
    42   45   46 1
    43   47   67 2
    44   48   49 1
    45   50   51 1
    46   52   50 ar
    47   53   52 1
    48   54   52 ar
    49   55   54 1
    50   56   54 ar
    51   57   56 1
    52   58   56 ar
    53   59   58 1
    54   60   45 1
    55   61   45 1
    56   62   43 1
    57   63   62 1
    58   64   62 1
    59   65   64 1
    60   66   64 1
    61   67   64 1
    62   68   67 1
    63   69   68 ar
    64   70   69 1
    65   71   69 ar
    66   72   71 1
    67   73   48 1
    68   74   73 ar
    69   75   74 1
    70   76   68 ar
    71   77   76 1
    72   78   48 1
    73   79   78 1
    74   80   79 1
    75   81   79 1
    76   82   79 1
    77    9   19 ar
    78   17   19 ar
    79   20   21 1
    80   30   32 ar
    81   33   35 ar
    82   50   60 ar
    83   58   60 ar
    84   61   62 1
    85   71   73 ar
    86   74   76 ar
@<TRIPOS>SUBSTRUCTURE
     1 RES1 1
     2 RES2 42

@<TRIPOS>CRYSIN
   5.6269   36.2950    7.6556  90.0000  90.7120  90.0000   4 1

