# MOL2 file generated by ConQuest
# Please check atom types

@<TRIPOS>MOLECULE
QAWGUQ
    40    42     1
SMALL
NO_CHARGES
****
Generated from CSD

@<TRIPOS>ATOM
      1 O1         8.7744    2.6440    1.8533 O.3       1 RES1    0.0000
      2 O2        10.0215    4.2151    0.6558 O.3       1 RES1    0.0000
      3 O3        12.0341   -2.4453   -1.4885 O.2       1 RES1    0.0000
      4 O4        13.2363   -1.0275   -2.5349 O.2       1 RES1    0.0000
      5 O5         5.2037    3.1653   -3.2659 O.3       1 RES1    0.0000
      6 N1        12.3360   -1.3033   -1.7648 N.pl3     1 RES1    0.0000
      7 C1         9.3361    2.9809    0.6101 C.3       1 RES1    0.0000
      8 C2         9.7424    2.6034    2.9188 C.3       1 RES1    0.0000
      9 C3        10.4563    3.9250    3.0183 C.3       1 RES1    0.0000
     10 C4        11.0428    4.2429    1.6764 C.3       1 RES1    0.0000
     11 C5        10.2398    1.8509    0.0685 C.ar      1 RES1    0.0000
     12 C6         9.9495    0.5261    0.3920 C.ar      1 RES1    0.0000
     13 C7        10.6405   -0.5118   -0.2004 C.ar      1 RES1    0.0000
     14 C8        11.6230   -0.1947   -1.1193 C.ar      1 RES1    0.0000
     15 C9        11.9477    1.0935   -1.4531 C.ar      1 RES1    0.0000
     16 C10       11.2409    2.1314   -0.8408 C.ar      1 RES1    0.0000
     17 C11        8.1956    3.1391   -0.3913 C.ar      1 RES1    0.0000
     18 C12        8.3305    3.9520   -1.4922 C.ar      1 RES1    0.0000
     19 C13        7.3464    4.0069   -2.4700 C.ar      1 RES1    0.0000
     20 C14        6.2205    3.2138   -2.3403 C.ar      1 RES1    0.0000
     21 C15        6.0647    2.4087   -1.2299 C.ar      1 RES1    0.0000
     22 C16        7.0445    2.3579   -0.2697 C.ar      1 RES1    0.0000
     23 C17        5.4218    3.8225   -4.5053 C.3       1 RES1    0.0000
     24 H1         9.2537    2.3905    3.8141 H         1 RES1    0.0000
     25 H2        10.4361    1.8509    2.7198 H         1 RES1    0.0000
     26 H3         9.7717    4.6768    3.2887 H         1 RES1    0.0000
     27 H4        11.1982    3.8797    3.7485 H         1 RES1    0.0000
     28 H5        11.7911    3.5348    1.4340 H         1 RES1    0.0000
     29 H6        11.5002    5.1894    1.6816 H         1 RES1    0.0000
     30 H7         9.2117    0.3187    1.1083 H         1 RES1    0.0000
     31 H8        10.4071   -1.5139    0.0147 H         1 RES1    0.0000
     32 H9        12.7134    1.3081   -2.1583 H         1 RES1    0.0000
     33 H10       11.4656    3.1327   -1.0633 H         1 RES1    0.0000
     34 H11        9.1891    4.5576   -1.5718 H         1 RES1    0.0000
     35 H12        7.4626    4.6180   -3.3270 H         1 RES1    0.0000
     36 H13        5.1828    1.8421   -1.1134 H         1 RES1    0.0000
     37 H14        6.9185    1.7428    0.5703 H         1 RES1    0.0000
     38 H15        6.2519    3.4188   -4.9976 H         1 RES1    0.0000
     39 H16        4.5905    3.7343   -5.1317 H         1 RES1    0.0000
     40 H17        5.6042    4.8493   -4.3506 H         1 RES1    0.0000
@<TRIPOS>BOND
     1    1    7 1
     2    2    7 1
     3    3    6 2
     4    4    6 2
     5    5   20 1
     6    6   14 1
     7    7   11 1
     8    8    1 1
     9    9    8 1
    10   10    2 1
    11   11   12 ar
    12   12   13 ar
    13   13   14 ar
    14   14   15 ar
    15   15   16 ar
    16   16   11 ar
    17   17    7 1
    18   18   17 ar
    19   19   18 ar
    20   20   19 ar
    21   21   20 ar
    22   22   17 ar
    23   23    5 1
    24   24    8 1
    25   25    8 1
    26   26    9 1
    27   27    9 1
    28   28   10 1
    29   29   10 1
    30   30   12 1
    31   31   13 1
    32   32   15 1
    33   33   16 1
    34   34   18 1
    35   35   19 1
    36   36   21 1
    37   37   22 1
    38   38   23 1
    39   39   23 1
    40   40   23 1
    41    9   10 1
    42   21   22 ar
@<TRIPOS>SUBSTRUCTURE
     1 RES1 1

@<TRIPOS>CRYSIN
  26.1570    7.9470    7.3800  90.0000  93.1500  90.0000  14 2

