# MOL2 file generated by ConQuest
# Please check atom types

@<TRIPOS>MOLECULE
QAWMUW
    23    24     1
SMALL
NO_CHARGES
****
Generated from CSD

@<TRIPOS>ATOM
      1 O1         1.9682    4.8542    9.4027 O.3       1 RES1    0.0000
      2 O2         3.3156    3.3220   10.2541 O.2       1 RES1    0.0000
      3 O3        -0.6919    1.2135    5.3322 O.2       1 RES1    0.0000
      4 O4        -2.3262    2.1695    4.2858 O.2       1 RES1    0.0000
      5 O5        -0.3183    6.1392    2.0825 O.2       1 RES1    0.0000
      6 O6         0.7989    7.5158    3.3073 O.2       1 RES1    0.0000
      7 N1        -0.4087    3.0191    7.5520 N.pl3     1 RES1    0.0000
      8 N2        -1.6818    2.5417    7.7695 N.2       1 RES1    0.0000
      9 N3        -1.2856    2.1926    4.9299 N.pl3     1 RES1    0.0000
     10 N4         0.1910    6.4747    3.1392 N.pl3     1 RES1    0.0000
     11 C1         2.5004    3.6469    9.4422 C.2       1 RES1    0.0000
     12 C2         1.9642    2.7352    8.3761 C.3       1 RES1    0.0000
     13 C3         0.4921    2.4965    8.4404 C.2       1 RES1    0.0000
     14 C4        -0.2306    1.6752    9.2536 C.2       1 RES1    0.0000
     15 C5        -1.5591    1.7299    8.8059 C.2       1 RES1    0.0000
     16 C6        -2.7533    1.0106    9.3438 C.3       1 RES1    0.0000
     17 C7         2.4351    5.8153   10.3804 C.3       1 RES1    0.0000
     18 C8        -0.2015    3.8594    6.4378 C.ar      1 RES1    0.0000
     19 C9        -0.6844    3.5123    5.1786 C.ar      1 RES1    0.0000
     20 C10       -0.5884    4.3652    4.1003 C.ar      1 RES1    0.0000
     21 C11        0.0554    5.5661    4.2906 C.ar      1 RES1    0.0000
     22 C12        0.5739    5.9363    5.5108 C.ar      1 RES1    0.0000
     23 C13        0.4182    5.0908    6.5884 C.ar      1 RES1    0.0000
@<TRIPOS>BOND
     1    1   11 1
     2    2   11 2
     3    3    9 2
     4    4    9 2
     5    5   10 2
     6    6   10 2
     7    7    8 1
     8    8   15 2
     9    9   19 1
    10   10   21 1
    11   11   12 1
    12   12   13 1
    13   13    7 1
    14   14   13 2
    15   15   14 1
    16   16   15 1
    17   17    1 1
    18   18    7 1
    19   19   18 ar
    20   20   19 ar
    21   21   20 ar
    22   22   21 ar
    23   23   18 ar
    24   22   23 ar
@<TRIPOS>SUBSTRUCTURE
     1 RES1 1

@<TRIPOS>CRYSIN
   8.4260   10.5160   16.4720  90.0000  95.3100  90.0000 231 1

