# MOL2 file generated by ConQuest
# Please check atom types

@<TRIPOS>MOLECULE
QAWPEK
    48    48     2
SMALL
NO_CHARGES
****
Generated from CSD

@<TRIPOS>ATOM
      1 O1         8.8551    3.2154    2.6204 O.2       1 RES1    0.0000
      2 O2         9.1633    2.6962    4.7030 O.2       1 RES1    0.0000
      3 N1         8.7778    3.4591    3.8245 N.pl3     1 RES1    0.0000
      4 C1         8.2337    4.7640    4.2298 C.ar      1 RES1    0.0000
      5 C2         7.2442    5.3788    3.4557 C.ar      1 RES1    0.0000
      6 C3         6.8673    6.6618    3.8567 C.ar      1 RES1    0.0000
      7 H1         6.2177    7.1340    3.3476 H         1 RES1    0.0000
      8 C4         7.4149    7.2642    4.9759 C.ar      1 RES1    0.0000
      9 H2         7.1529    8.1460    5.2126 H         1 RES1    0.0000
     10 C5         8.3416    6.5906    5.7513 C.ar      1 RES1    0.0000
     11 H3         8.6856    6.9920    6.5401 H         1 RES1    0.0000
     12 C6         8.7650    5.3272    5.3708 C.ar      1 RES1    0.0000
     13 H4         9.4098    4.8581    5.8869 H         1 RES1    0.0000
     14 C7         6.5030    4.7161    2.3430 C.2       1 RES1    0.0000
     15 C8         5.9107    3.3956    2.6728 C.2       1 RES1    0.0000
     16 O3         6.0576    2.8685    3.7707 O.2       1 RES1    0.0000
     17 O4         5.2039    2.8372    1.7076 O.3       1 RES1    0.0000
     18 H5         4.8145    2.0003    2.0359 H         1 RES1    0.0000
     19 C9         6.2708    5.2868    1.1550 C.2       1 RES1    0.0000
     20 H6         5.7091    4.8121    0.5546 H         1 RES1    0.0000
     21 C10        6.8087    6.5967    0.6816 C.3       1 RES1    0.0000
     22 H7         6.1586    7.3052    0.8727 H         1 RES1    0.0000
     23 H8         6.9708    6.5535   -0.2839 H         1 RES1    0.0000
     24 H9         7.6498    6.7916    1.1461 H         1 RES1    0.0000
     25 O5         1.2695    0.6022    3.6759 O.2       2 RES2    0.0000
     26 O6         0.9488    0.9695    1.5647 O.2       2 RES2    0.0000
     27 N2         1.2792    0.2481    2.4992 N.pl3     2 RES2    0.0000
     28 C11        1.6696   -1.1299    2.1987 C.ar      2 RES2    0.0000
     29 C12        2.6405   -1.7717    2.9729 C.ar      2 RES2    0.0000
     30 C13        2.9051   -3.1011    2.6478 C.ar      2 RES2    0.0000
     31 H10        3.5514   -3.5830    3.1504 H         2 RES2    0.0000
     32 C14        2.2466   -3.7353    1.6077 C.ar      2 RES2    0.0000
     33 H11        2.4418   -4.6451    1.4129 H         2 RES2    0.0000
     34 C15        1.3089   -3.0603    0.8485 C.ar      2 RES2    0.0000
     35 H12        0.8746   -3.4981    0.1262 H         2 RES2    0.0000
     36 C16        1.0079   -1.7458    1.1477 C.ar      2 RES2    0.0000
     37 H13        0.3580   -1.2723    0.6414 H         2 RES2    0.0000
     38 C17        3.4476   -1.1194    4.0473 C.2       2 RES2    0.0000
     39 C18        4.1792    0.1082    3.6582 C.2       2 RES2    0.0000
     40 O7         4.0802    0.6002    2.5356 O.2       2 RES2    0.0000
     41 O8         4.9310    0.6460    4.6016 O.3       2 RES2    0.0000
     42 H14        5.3341    1.4713    4.2584 H         2 RES2    0.0000
     43 C19        3.5694   -1.6175    5.2836 C.2       2 RES2    0.0000
     44 H15        4.1834   -1.1804    5.8606 H         2 RES2    0.0000
     45 C20        2.8400   -2.7883    5.8462 C.3       2 RES2    0.0000
     46 H16        2.0327   -2.9552    5.3164 H         2 RES2    0.0000
     47 H17        2.5897   -2.6016    6.7753 H         2 RES2    0.0000
     48 H18        3.4190   -3.5788    5.8172 H         2 RES2    0.0000
@<TRIPOS>BOND
     1    1    3 2
     2    2    3 2
     3    3    4 1
     4    4    5 ar
     5    5    6 ar
     6    6    7 1
     7    8    6 ar
     8    9    8 1
     9   10    8 ar
    10   11   10 1
    11   12    4 ar
    12   13   12 1
    13   14    5 1
    14   15   14 1
    15   16   15 2
    16   17   15 1
    17   18   17 1
    18   19   14 2
    19   20   19 1
    20   21   19 1
    21   22   21 1
    22   23   21 1
    23   24   21 1
    24   25   27 2
    25   26   27 2
    26   27   28 1
    27   28   29 ar
    28   29   30 ar
    29   30   31 1
    30   32   30 ar
    31   33   32 1
    32   34   32 ar
    33   35   34 1
    34   36   28 ar
    35   37   36 1
    36   38   29 1
    37   39   38 1
    38   40   39 2
    39   41   39 1
    40   42   41 1
    41   43   38 2
    42   44   43 1
    43   45   43 1
    44   46   45 1
    45   47   45 1
    46   48   45 1
    47   10   12 ar
    48   34   36 ar
@<TRIPOS>SUBSTRUCTURE
     1 RES1 1
     2 RES2 25

@<TRIPOS>CRYSIN
  10.2440   13.9200   13.1550  90.0000  92.4243  90.0000 231 1

