# MOL2 file generated by ConQuest
# Please check atom types

@<TRIPOS>MOLECULE
QAWVIW
    51    55     1
SMALL
USER_CHARGES
****
Generated from CSD

@<TRIPOS>ATOM
      1 N1        10.0904    7.2536    4.9518 N.pl3     1 RES1    1.0000
      2 O1        10.5822    6.0802    5.1373 O.2       1 RES1   -1.0000
      3 C1         9.4892   10.4224    3.3819 C.2       1 RES1    0.0000
      4 C2         8.4952   11.5082    3.5341 C.ar      1 RES1    0.0000
      5 C3         9.4383    9.2688    4.1127 C.2       1 RES1    0.0000
      6 C4        10.8913    7.5883    2.6621 C.ar      1 RES1    0.0000
      7 C5         8.7917    9.0733    5.4320 C.ar      1 RES1    0.0000
      8 C6         9.2627    7.8733    5.9332 C.ar      1 RES1    0.0000
      9 C7        10.2025    8.0420    3.8781 C.2       1 RES1    0.0000
     10 C8         8.9187   12.8383    3.6024 C.ar      1 RES1    0.0000
     11 H1         9.8260   13.0343    3.5426 H         1 RES1    0.0000
     12 C9         8.0017    9.8552    6.2678 C.ar      1 RES1    0.0000
     13 H2         7.6665   10.6673    5.9625 H         1 RES1    0.0000
     14 C10       10.5898   10.6986    2.4266 C.ar      1 RES1    0.0000
     15 C11       10.3175    7.8076    1.4154 C.ar      1 RES1    0.0000
     16 H3         9.4837    8.2164    1.3611 H         1 RES1    0.0000
     17 C12        9.0177    7.4193    7.2020 C.ar      1 RES1    0.0000
     18 H4         9.3636    6.6115    7.5077 H         1 RES1    0.0000
     19 C13       11.9155   10.5051    2.7804 C.ar      1 RES1    0.0000
     20 H5        12.1312   10.1769    3.6238 H         1 RES1    0.0000
     21 C14        8.0129   13.8606    3.7570 C.ar      1 RES1    0.0000
     22 H6         8.3150   14.7386    3.8191 H         1 RES1    0.0000
     23 C15        7.7119    9.4267    7.5554 C.ar      1 RES1    0.0000
     24 C16       12.1222    6.9543    2.7139 C.ar      1 RES1    0.0000
     25 H7        12.5191    6.7788    3.5364 H         1 RES1    0.0000
     26 C17        7.1291   11.2608    3.5851 C.ar      1 RES1    0.0000
     27 H8         6.8175   10.3874    3.5189 H         1 RES1    0.0000
     28 C18       10.2979   11.1914    1.1558 C.ar      1 RES1    0.0000
     29 H9         9.4132   11.3502    0.9191 H         1 RES1    0.0000
     30 C19        6.2286   12.2995    3.7326 C.ar      1 RES1    0.0000
     31 H10        5.3174   12.1174    3.7728 H         1 RES1    0.0000
     32 C20        8.2284    8.2236    8.0061 C.ar      1 RES1    0.0000
     33 H11        8.0387    7.9479    8.8739 H         1 RES1    0.0000
     34 C21        6.6672   13.5992    3.8211 C.ar      1 RES1    0.0000
     35 H12        6.0579   14.2940    3.9229 H         1 RES1    0.0000
     36 C22       10.9605    7.4294    0.2592 C.ar      1 RES1    0.0000
     37 H13       10.5628    7.5865   -0.5664 H         1 RES1    0.0000
     38 C23       12.1854    6.8237    0.3238 C.ar      1 RES1    0.0000
     39 H14       12.6252    6.5771   -0.4575 H         1 RES1    0.0000
     40 C24       12.6008   11.2733    0.6065 C.ar      1 RES1    0.0000
     41 H15       13.2767   11.4720   -0.0010 H         1 RES1    0.0000
     42 C25       12.9213   10.8035    1.8679 C.ar      1 RES1    0.0000
     43 H16       13.8122   10.6876    2.1064 H         1 RES1    0.0000
     44 C26       11.2924   11.4463    0.2519 C.ar      1 RES1    0.0000
     45 H17       11.0778   11.7373   -0.6055 H         1 RES1    0.0000
     46 C27       12.7610    6.5811    1.5461 C.ar      1 RES1    0.0000
     47 H18       13.5904    6.1624    1.5893 H         1 RES1    0.0000
     48 C28        6.8236   10.2593    8.4442 C.3       1 RES1    0.0000
     49 H19        7.0263   11.1890    8.3188 H         1 RES1    0.0000
     50 H20        6.9746   10.0203    9.3622 H         1 RES1    0.0000
     51 H21        5.9043   10.0984    8.2190 H         1 RES1    0.0000
@<TRIPOS>BOND
     1    1    2 1
     2    3    4 1
     3    4   10 ar
     4    5    3 2
     5    6    9 1
     6    7    5 1
     7    8    1 1
     8    9    1 2
     9   10   11 1
    10   12    7 ar
    11   13   12 1
    12   14    3 1
    13   15    6 ar
    14   16   15 1
    15   17    8 ar
    16   18   17 1
    17   19   14 ar
    18   20   19 1
    19   21   10 ar
    20   22   21 1
    21   23   12 ar
    22   24    6 ar
    23   25   24 1
    24   26    4 ar
    25   27   26 1
    26   28   14 ar
    27   29   28 1
    28   30   26 ar
    29   31   30 1
    30   32   17 ar
    31   33   32 1
    32   34   21 ar
    33   35   34 1
    34   36   15 ar
    35   37   36 1
    36   38   36 ar
    37   39   38 1
    38   40   41 1
    39   42   19 ar
    40   43   42 1
    41   44   28 ar
    42   45   44 1
    43   46   24 ar
    44   47   46 1
    45   48   23 1
    46   49   48 1
    47   50   48 1
    48   51   48 1
    49    5    9 1
    50    7    8 ar
    51   23   32 ar
    52   30   34 ar
    53   38   46 ar
    54   40   42 ar
    55   40   44 ar
@<TRIPOS>SUBSTRUCTURE
     1 RES1 1

@<TRIPOS>CRYSIN
   9.6491   11.2524   11.2569  66.1220  83.5040  67.3570   2 1

