# MOL2 file generated by ConQuest
# Please check atom types

@<TRIPOS>MOLECULE
QAWZOE
    27    27     1
SMALL
NO_CHARGES
****
Generated from CSD

@<TRIPOS>ATOM
      1 O1         1.3137    1.7688   -0.1052 O.3       1 RES1    0.0000
      2 C1         1.8682    2.2160    1.1282 C.3       1 RES1    0.0000
      3 H1         2.8343    2.3212    1.0273 H         1 RES1    0.0000
      4 H2         1.5654    3.0545    1.3303 H         1 RES1    0.0000
      5 C2         1.5316    1.2788    2.2596 C.3       1 RES1    0.0000
      6 H3         0.5517    1.1973    2.2986 H         1 RES1    0.0000
      7 O2         2.1123   -0.0145    2.0464 O.3       1 RES1    0.0000
      8 C3         2.0240    1.8516    3.5746 C.3       1 RES1    0.0000
      9 H4         2.9584    2.0970    3.4845 H         1 RES1    0.0000
     10 H5         1.5171    2.7175    3.7449 H         1 RES1    0.0000
     11 N1         1.8006    0.8863    4.6318 N.pl3     1 RES1    0.0000
     12 H6         1.7999    0.0804    4.4304 H         1 RES1    0.0000
     13 C4         1.8433    1.1871    5.9485 C.ar      1 RES1    0.0000
     14 C5         1.7185    0.2272    6.9687 C.ar      1 RES1    0.0000
     15 C6         1.7302    0.5931    8.3193 C.ar      1 RES1    0.0000
     16 H7         1.6964   -0.1410    8.9748 H         1 RES1    0.0000
     17 C7         1.8730    1.8856    8.6810 C.ar      1 RES1    0.0000
     18 H8         1.8826    2.1943    9.6298 H         1 RES1    0.0000
     19 C8         2.0157    2.8612    7.6967 C.ar      1 RES1    0.0000
     20 H9         2.0481    3.8499    7.8987 H         1 RES1    0.0000
     21 C9         2.0171    2.5260    6.3690 C.ar      1 RES1    0.0000
     22 H10        2.1723    3.1687    5.6794 H         1 RES1    0.0000
     23 N2         1.5675   -1.1723    6.6833 N.pl3     1 RES1    0.0000
     24 O3         1.5758   -1.5594    5.5095 O.2       1 RES1    0.0000
     25 O4         1.4413   -1.9561    7.6143 O.2       1 RES1    0.0000
     26 H11        0.5724    1.4243   -0.3255 H         1 RES1    0.0000
     27 H12        2.7929   -0.2256    1.5867 H         1 RES1    0.0000
@<TRIPOS>BOND
     1    1    2 1
     2    2    3 1
     3    4    2 1
     4    5    2 1
     5    6    5 1
     6    7    5 1
     7    8    5 1
     8    9    8 1
     9   10    8 1
    10   11    8 1
    11   12   11 1
    12   13   11 1
    13   14   13 ar
    14   15   14 ar
    15   16   15 1
    16   17   15 ar
    17   18   17 1
    18   19   17 ar
    19   20   19 1
    20   21   13 ar
    21   22   21 1
    22   23   14 1
    23   24   23 2
    24   25   23 2
    25   26    1 1
    26   27    7 1
    27   19   21 ar
@<TRIPOS>SUBSTRUCTURE
     1 RES1 1

@<TRIPOS>CRYSIN
   6.8961   14.1021   20.3417  90.0000  90.0000  90.0000  23 1

