# MOL2 file generated by ConQuest
# Please check atom types

@<TRIPOS>MOLECULE
QAWZUK
    56    61     1
SMALL
NO_CHARGES
****
Generated from CSD

@<TRIPOS>ATOM
      1 C1         4.4192   11.2124    5.3008 C.2       1 RES1    0.0000
      2 C2         5.3512   10.5561    4.3362 C.3       1 RES1    0.0000
      3 H1         6.0765   10.1364    4.8446 H         1 RES1    0.0000
      4 O1         4.6675    9.5340    3.6020 O.3       1 RES1    0.0000
      5 C3         5.4338    9.2408    2.4515 C.3       1 RES1    0.0000
      6 H2         4.8559    9.1090    1.6711 H         1 RES1    0.0000
      7 O2         6.2511    8.1304    2.6600 O.3       1 RES1    0.0000
      8 C4         7.6321    8.4920    2.5887 C.3       1 RES1    0.0000
      9 O3         7.6546    9.9146    2.6404 O.3       1 RES1    0.0000
     10 C5         6.3774   10.4208    2.2395 C.3       1 RES1    0.0000
     11 H3         6.3685   10.7615    1.3207 H         1 RES1    0.0000
     12 C6         5.9741   11.4596    3.2663 C.3       1 RES1    0.0000
     13 H4         6.7929   11.8492    3.6400 H         1 RES1    0.0000
     14 O4         5.1608   12.5203    2.8017 O.3       1 RES1    0.0000
     15 C7         3.9600   12.1958    2.1033 C.3       1 RES1    0.0000
     16 H5         3.4619   11.5135    2.5797 H         1 RES1    0.0000
     17 H6         4.1613   11.8693    1.2121 H         1 RES1    0.0000
     18 C8         3.1665   13.4798    2.0313 C.3       1 RES1    0.0000
     19 H7         3.7219   14.1810    1.6317 H         1 RES1    0.0000
     20 O5         2.0319   13.2344    1.1872 O.3       1 RES1    0.0000
     21 C9         1.0248   14.1600    1.4877 C.3       1 RES1    0.0000
     22 H8         0.1453   13.7276    1.5212 H         1 RES1    0.0000
     23 N1         4.8470   12.1938    5.9776 N.2       1 RES1    0.0000
     24 O6         1.0309   15.2214    0.5742 O.3       1 RES1    0.0000
     25 C10        1.1640   16.4582    1.2642 C.3       1 RES1    0.0000
     26 O7         1.7767   16.1167    2.5057 O.3       1 RES1    0.0000
     27 C11        1.3803   14.7956    2.8352 C.3       1 RES1    0.0000
     28 H9         0.6311   14.7767    3.4658 H         1 RES1    0.0000
     29 C12        2.5743   13.9907    3.3288 C.3       1 RES1    0.0000
     30 H10        3.2102   14.5477    3.8255 H         1 RES1    0.0000
     31 O8         2.1526   12.8746    4.0806 O.3       1 RES1    0.0000
     32 C13        1.8060   13.0815    5.4557 C.3       1 RES1    0.0000
     33 H11        0.8508   12.9633    5.5734 H         1 RES1    0.0000
     34 H12        2.0325   13.9876    5.7176 H         1 RES1    0.0000
     35 C14        2.5524   12.0997    6.3274 C.3       1 RES1    0.0000
     36 H13        1.9930   11.8508    7.0927 H         1 RES1    0.0000
     37 O9         3.7929   12.6845    6.8023 O.3       1 RES1    0.0000
     38 C15        3.0021   10.8426    5.5934 C.3       1 RES1    0.0000
     39 H14        2.9441   10.0559    6.1579 H         1 RES1    0.0000
     40 H15        2.4924   10.6980    4.7809 H         1 RES1    0.0000
     41 C16        8.3465    7.9643    3.7905 C.3       1 RES1    0.0000
     42 H16        9.2669    8.2332    3.7599 H         1 RES1    0.0000
     43 H17        8.2932    7.0062    3.7993 H         1 RES1    0.0000
     44 H18        7.9371    8.3136    4.5861 H         1 RES1    0.0000
     45 C17        8.2127    7.9856    1.3013 C.3       1 RES1    0.0000
     46 H19        7.7133    8.3415    0.5620 H         1 RES1    0.0000
     47 H20        8.1670    7.0263    1.2852 H         1 RES1    0.0000
     48 H21        9.1290    8.2626    1.2327 H         1 RES1    0.0000
     49 C18        2.0987   17.3468    0.5034 C.3       1 RES1    0.0000
     50 H22        2.9809   16.9692    0.5171 H         1 RES1    0.0000
     51 H23        2.1158   18.2164    0.9105 H         1 RES1    0.0000
     52 H24        1.7978   17.4241   -0.4047 H         1 RES1    0.0000
     53 C19       -0.1904   17.0791    1.4894 C.3       1 RES1    0.0000
     54 H25       -0.5915   17.2880    0.6426 H         1 RES1    0.0000
     55 H26       -0.0921   17.8837    2.0027 H         1 RES1    0.0000
     56 H27       -0.7505   16.4617    1.9652 H         1 RES1    0.0000
@<TRIPOS>BOND
     1    1    2 1
     2    2    3 1
     3    4    2 1
     4    5    4 1
     5    6    5 1
     6    7    5 1
     7    8    7 1
     8    9    8 1
     9   10    5 1
    10   11   10 1
    11   12    2 1
    12   13   12 1
    13   14   12 1
    14   15   14 1
    15   16   15 1
    16   17   15 1
    17   18   15 1
    18   19   18 1
    19   20   18 1
    20   21   20 1
    21   22   21 1
    22   23    1 2
    23   24   21 1
    24   25   24 1
    25   26   25 1
    26   27   21 1
    27   28   27 1
    28   29   18 1
    29   30   29 1
    30   31   29 1
    31   32   31 1
    32   33   32 1
    33   34   32 1
    34   35   32 1
    35   36   35 1
    36   37   23 1
    37   38    1 1
    38   39   38 1
    39   40   38 1
    40   41    8 1
    41   42   41 1
    42   43   41 1
    43   44   41 1
    44   45    8 1
    45   46   45 1
    46   47   45 1
    47   48   45 1
    48   49   25 1
    49   50   49 1
    50   51   49 1
    51   52   49 1
    52   53   25 1
    53   54   53 1
    54   55   53 1
    55   56   53 1
    56    9   10 1
    57   10   12 1
    58   26   27 1
    59   27   29 1
    60   35   37 1
    61   35   38 1
@<TRIPOS>SUBSTRUCTURE
     1 RES1 1

@<TRIPOS>CRYSIN
   6.8229   15.4730   18.7340  90.0000  90.0000  90.0000  19 1

