# MOL2 file generated by ConQuest
# Please check atom types

@<TRIPOS>MOLECULE
QAXDOI
    23    24     1
SMALL
NO_CHARGES
****
Generated from CSD

@<TRIPOS>ATOM
      1 O1         5.2288    1.2772    4.9411 O.3       1 RES1    0.0000
      2 N1         4.7182   -0.0552    4.9710 N.2       1 RES1    0.0000
      3 C1         3.7721   -0.0288    5.8855 C.2       1 RES1    0.0000
      4 C2         3.6183    1.2594    6.4800 C.2       1 RES1    0.0000
      5 C3         2.7936    1.8008    7.5485 C.2       1 RES1    0.0000
      6 C4         3.1762    3.1893    7.9959 C.3       1 RES1    0.0000
      7 C5         3.6740    4.0683    6.8316 C.3       1 RES1    0.0000
      8 C6         4.8648    3.4378    6.0848 C.3       1 RES1    0.0000
      9 C7         4.5546    2.0074    5.8504 C.2       1 RES1    0.0000
     10 O2         3.0439   -1.1006    6.2097 O.3       1 RES1    0.0000
     11 C8         3.4780   -2.3280    5.5886 C.3       1 RES1    0.0000
     12 N2         1.8535    1.0685    8.0250 N.2       1 RES1    0.0000
     13 O3         1.1360    1.7088    9.0584 O.3       1 RES1    0.0000
     14 H1         3.4515   -2.2552    4.6280 H         1 RES1    0.0000
     15 H2         4.3972   -2.5289    5.9026 H         1 RES1    0.0000
     16 H3         2.8320   -2.9912    5.8940 H         1 RES1    0.0000
     17 H4         0.5930    0.9803    9.3073 H         1 RES1    0.0000
     18 H5         3.8752    3.1127    8.6657 H         1 RES1    0.0000
     19 H6         2.4096    3.6133    8.4433 H         1 RES1    0.0000
     20 H7         2.9507    4.2168    6.1935 H         1 RES1    0.0000
     21 H8         3.9324    4.9791    7.1516 H         1 RES1    0.0000
     22 H9         5.6945    3.5330    6.6383 H         1 RES1    0.0000
     23 H10        5.0354    3.9117    5.2182 H         1 RES1    0.0000
@<TRIPOS>BOND
     1    1    2 1
     2    2    3 2
     3    3    4 1
     4    4    5 1
     5    5    6 1
     6    6    7 1
     7    7    8 1
     8    8    9 1
     9    9    1 1
    10   10    3 1
    11   11   10 1
    12   12    5 2
    13   13   12 1
    14   14   11 1
    15   15   11 1
    16   16   11 1
    17   17   13 1
    18   18    6 1
    19   19    6 1
    20   20    7 1
    21   21    7 1
    22   22    8 1
    23   23    8 1
    24    4    9 2
@<TRIPOS>SUBSTRUCTURE
     1 RES1 1

@<TRIPOS>CRYSIN
   5.0678    9.6000    9.6965 116.1710  93.3050 103.4530   2 1

