# MOL2 file generated by ConQuest
# Please check atom types

@<TRIPOS>MOLECULE
QAXJOO
    39    40     1
SMALL
NO_CHARGES
****
Generated from CSD

@<TRIPOS>ATOM
      1 O1         0.1243    2.8530    0.9656 O.2       1 RES1    0.0000
      2 O2        -3.6334    0.6446    1.4437 O.2       1 RES1    0.0000
      3 O3        -1.5857    6.3826    3.1045 O.2       1 RES1    0.0000
      4 C1        -3.0624    1.6561    1.8180 C.2       1 RES1    0.0000
      5 O4        -0.2601    4.9855    4.2085 O.3       1 RES1    0.0000
      6 C2        -1.9564    4.0248    2.9645 C.2       1 RES1    0.0000
      7 N1        -3.6885    2.8504    1.8605 N.am      1 RES1    0.0000
      8 C3        -1.2914    5.2550    3.4128 C.2       1 RES1    0.0000
      9 C4        -0.7703    2.0109    0.9420 C.2       1 RES1    0.0000
     10 C5        -1.3617    2.6875    3.3325 C.3       1 RES1    0.0000
     11 C6        -3.1090    4.0594    2.2631 C.2       1 RES1    0.0000
     12 C7        -1.6039    1.6932    2.1876 C.3       1 RES1    0.0000
     13 C8        -1.9148    2.1079    4.6285 C.ar      1 RES1    0.0000
     14 N2        -1.0728    1.3151   -0.1431 N.am      1 RES1    0.0000
     15 C9        -2.9310    0.8785    6.8790 C.ar      1 RES1    0.0000
     16 C10       -1.2112    1.1030    5.2701 C.ar      1 RES1    0.0000
     17 C11       -3.6485    1.8727    6.2939 C.ar      1 RES1    0.0000
     18 C12       -3.9129    5.2523    1.8636 C.3       1 RES1    0.0000
     19 C13       -1.7146    0.4886    6.4056 C.ar      1 RES1    0.0000
     20 N3        -3.5004    0.1862    8.0538 N.pl3     1 RES1    0.0000
     21 C14       -3.1311    2.4893    5.1632 C.ar      1 RES1    0.0000
     22 O5        -4.6175    0.4951    8.4108 O.2       1 RES1    0.0000
     23 O6        -2.8129   -0.6363    8.6090 O.2       1 RES1    0.0000
     24 C15        0.4338    6.1260    4.7668 C.3       1 RES1    0.0000
     25 H1        -3.6477    3.2463    4.7637 H         1 RES1    0.0000
     26 H2        -1.6576    0.7093   -0.1227 H         1 RES1    0.0000
     27 H3        -4.8298    5.0488    1.7630 H         1 RES1    0.0000
     28 H4        -0.3889    0.8621    4.8927 H         1 RES1    0.0000
     29 H5        -0.6220    1.3941   -0.8839 H         1 RES1    0.0000
     30 H6        -4.5377    2.8867    1.6183 H         1 RES1    0.0000
     31 H7        -1.2128   -0.1561    6.8255 H         1 RES1    0.0000
     32 H8        -3.8484    5.9932    2.4801 H         1 RES1    0.0000
     33 H9        -4.5075    2.1720    6.7107 H         1 RES1    0.0000
     34 H10        0.3872    6.7570    4.0623 H         1 RES1    0.0000
     35 H11       -0.1508    6.5526    5.4258 H         1 RES1    0.0000
     36 H12        1.2244    5.6926    5.2371 H         1 RES1    0.0000
     37 H13       -3.6368    5.5000    0.9908 H         1 RES1    0.0000
     38 H14       -0.4134    2.7720    3.4080 H         1 RES1    0.0000
     39 H15       -1.3546    0.7999    2.4660 H         1 RES1    0.0000
@<TRIPOS>BOND
     1    1    9 2
     2    2    4 2
     3    3    8 2
     4    4    7 1
     5    5    8 1
     6    6    8 1
     7    7   11 1
     8    9   12 1
     9   10    6 1
    10   11    6 2
    11   12    4 1
    12   13   10 1
    13   14    9 1
    14   15   17 ar
    15   16   13 ar
    16   17   21 ar
    17   18   11 1
    18   19   15 ar
    19   20   15 1
    20   21   13 ar
    21   22   20 2
    22   23   20 2
    23   24    5 1
    24   25   21 1
    25   26   14 1
    26   27   18 1
    27   28   16 1
    28   29   14 1
    29   30    7 1
    30   31   19 1
    31   32   18 1
    32   33   17 1
    33   34   24 1
    34   35   24 1
    35   36   24 1
    36   37   18 1
    37   38   10 1
    38   39   12 1
    39   10   12 1
    40   16   19 ar
@<TRIPOS>SUBSTRUCTURE
     1 RES1 1

@<TRIPOS>CRYSIN
   6.4505    7.7918   16.2999  98.6270 100.2700 102.4740   2 1

