# MOL2 file generated by ConQuest
# Please check atom types

@<TRIPOS>MOLECULE
QAYBIC
    29    31     1
SMALL
NO_CHARGES
****
Generated from CSD

@<TRIPOS>ATOM
      1 C1         1.1776    3.8160    3.7027 C.2       1 RES1    0.0000
      2 O1         0.0977    4.1725    1.8128 O.3       1 RES1    0.0000
      3 N1         0.1573    4.3980    3.2094 N.2       1 RES1    0.0000
      4 O2         2.2042    3.8160    9.2197 O.3       1 RES1    0.0000
      5 C2         2.0261    3.0966    2.6893 C.3       1 RES1    0.0000
      6 H1         2.0621    2.1333    2.8647 H         1 RES1    0.0000
      7 C3         3.4316    3.6934    2.4930 C.3       1 RES1    0.0000
      8 H2         3.6447    4.3248    3.1992 H         1 RES1    0.0000
      9 H3         4.1073    2.9972    2.4766 H         1 RES1    0.0000
     10 C4         3.3366    4.3717    1.1821 C.2       1 RES1    0.0000
     11 H4         4.0347    4.8639    0.8145 H         1 RES1    0.0000
     12 C5         2.1842    4.2180    0.5893 C.2       1 RES1    0.0000
     13 H5         1.9707    4.5727   -0.2426 H         1 RES1    0.0000
     14 C6         1.2614    3.4071    1.4107 C.3       1 RES1    0.0000
     15 H6         1.0012    2.5852    0.9447 H         1 RES1    0.0000
     16 C7         1.4501    3.8734    5.1460 C.ar      1 RES1    0.0000
     17 C8         0.6533    4.6020    6.0083 C.ar      1 RES1    0.0000
     18 H7        -0.0523    5.0959    5.6580 H         1 RES1    0.0000
     19 C9         0.8648    4.6226    7.3656 C.ar      1 RES1    0.0000
     20 H8         0.3133    5.1266    7.9201 H         1 RES1    0.0000
     21 C10        1.9005    3.8900    7.8959 C.ar      1 RES1    0.0000
     22 C11        2.7254    3.1662    7.0543 C.ar      1 RES1    0.0000
     23 H9         3.4396    2.6868    7.4069 H         1 RES1    0.0000
     24 C12        2.4983    3.1509    5.7044 C.ar      1 RES1    0.0000
     25 H10        3.0534    2.6487    5.1524 H         1 RES1    0.0000
     26 C13        1.3390    4.4956   10.1310 C.3       1 RES1    0.0000
     27 H11        1.6571    4.3708   11.0274 H         1 RES1    0.0000
     28 H12        0.4499    4.1401   10.0546 H         1 RES1    0.0000
     29 H13        1.3275    5.4327    9.9219 H         1 RES1    0.0000
@<TRIPOS>BOND
     1    1    3 2
     2    2    3 1
     3    4   21 1
     4    5    1 1
     5    6    5 1
     6    7    5 1
     7    8    7 1
     8    9    7 1
     9   10    7 1
    10   11   10 1
    11   12   10 2
    12   13   12 1
    13   14    2 1
    14   15   14 1
    15   16    1 1
    16   17   16 ar
    17   18   17 1
    18   19   17 ar
    19   20   19 1
    20   21   19 ar
    21   22   21 ar
    22   23   22 1
    23   24   16 ar
    24   25   24 1
    25   26    4 1
    26   27   26 1
    27   28   26 1
    28   29   26 1
    29    5   14 1
    30   12   14 1
    31   22   24 ar
@<TRIPOS>SUBSTRUCTURE
     1 RES1 1

@<TRIPOS>CRYSIN
   9.8230    4.3787   25.6980  90.0000  96.5100  90.0000  14 1

