# MOL2 file generated by ConQuest
# Please check atom types

@<TRIPOS>MOLECULE
QAYFUS
    52    43     2
SMALL
NO_CHARGES
****
Generated from CSD

@<TRIPOS>ATOM
      1 O1         0.5227    1.7457    1.6421 O.3       1 RES1    0.0000
      2 O2         1.4396    0.2607    3.0521 O.3       1 RES1    0.0000
      3 O3         2.0513    2.7375   -0.4612 O.3       1 RES1    0.0000
      4 O4         5.2360    1.0820    3.8203 O.3       1 RES1    0.0000
      5 N1         4.8480    1.3916    2.4631 N.3       1 RES1    0.0000
      6 C1         1.8102    2.3035    1.9667 C.3       1 RES1    0.0000
      7 C2         2.6677    2.3073    0.7314 C.3       1 RES1    0.0000
      8 C3         3.2774    0.8946    0.7021 C.3       1 RES1    0.0000
      9 C4         3.6265    0.6545    2.1620 C.3       1 RES1    0.0000
     10 C5         2.4391    1.2596    2.9140 C.3       1 RES1    0.0000
     11 C6         5.4887    2.3122    4.5003 C.3       1 RES1    0.0000
     12 C7         5.9854    1.9483    5.8472 C.ar      1 RES1    0.0000
     13 C8         5.9348    2.9885    6.7681 C.ar      1 RES1    0.0000
     14 C9         6.3494    2.7783    8.0782 C.ar      1 RES1    0.0000
     15 C10        6.8165    1.5279    8.4674 C.ar      1 RES1    0.0000
     16 C11        6.8689    0.4883    7.5465 C.ar      1 RES1    0.0000
     17 C12        6.4524    0.6980    6.2364 C.ar      1 RES1    0.0000
     18 C13        5.8922    2.0906    5.9559 Du        2 SUP2    0.0000
     19 C14        5.1155    2.5067    7.0310 Du        2 SUP2    0.0000
     20 C15        5.5492    2.2802    8.3323 Du        2 SUP2    0.0000
     21 C16        6.7614    1.6371    8.5585 Du        2 SUP2    0.0000
     22 C17        7.5381    1.2210    7.4834 Du        2 SUP2    0.0000
     23 C18        7.1044    1.4475    6.1820 Du        2 SUP2    0.0000
     24 C19        0.1781    0.8403    2.6952 C.3       1 RES1    0.0000
     25 C20       -0.6976   -0.2444    2.1238 C.3       1 RES1    0.0000
     26 C21       -0.4368    1.5632    3.8540 C.3       1 RES1    0.0000
     27 H1         1.2700    2.4583   -0.5420 H         1 RES1    0.0000
     28 H2         5.6193    1.1944    1.7875 H         1 RES1    0.0000
     29 H3         1.7426    3.1900    2.3779 H         1 RES1    0.0000
     30 H4         3.4070    2.9276    0.9048 H         1 RES1    0.0000
     31 H5         2.6352    0.2417    0.3819 H         1 RES1    0.0000
     32 H6         4.0689    0.8642    0.1425 H         1 RES1    0.0000
     33 H7         3.7249   -0.3009    2.3559 H         1 RES1    0.0000
     34 H8         2.7012    1.6474    3.7747 H         1 RES1    0.0000
     35 H9         4.5638    2.8929    4.6398 H         1 RES1    0.0000
     36 H10        6.1989    2.8576    4.0714 H         1 RES1    0.0000
     37 H11        5.6215    3.8244    6.5081 H         1 RES1    0.0000
     38 H12        6.3162    3.4741    8.6936 H         1 RES1    0.0000
     39 H13        7.0965    1.3872    9.3428 H         1 RES1    0.0000
     40 H14        7.1822   -0.3482    7.8065 H         1 RES1    0.0000
     41 H15        6.4876    0.0022    5.6195 H         1 RES1    0.0000
     42 H16        4.3061    2.9369    6.8797 Du        2 SUP2    0.0000
     43 H17        5.0295    2.5583    9.0506 Du        2 SUP2    0.0000
     44 H18        7.0511    1.4855    9.4280 Du        2 SUP2    0.0000
     45 H19        8.3494    0.7908    7.6347 Du        2 SUP2    0.0000
     46 H20        7.6241    1.1689    5.4638 Du        2 SUP2    0.0000
     47 H21       -0.8376   -0.9255    2.7848 H         1 RES1    0.0000
     48 H22       -0.2704   -0.6284    1.3542 H         1 RES1    0.0000
     49 H23       -1.5426    0.1298    1.8653 H         1 RES1    0.0000
     50 H24       -0.5945    0.9440    4.5693 H         1 RES1    0.0000
     51 H25       -1.2680    1.9565    3.5809 H         1 RES1    0.0000
     52 H26        0.1617    2.2530    4.1522 H         1 RES1    0.0000
@<TRIPOS>BOND
     1    1    6 1
     2    2   10 1
     3    3    7 1
     4    4    5 1
     5    5    9 1
     6    6    7 1
     7    7    8 1
     8    8    9 1
     9    9   10 1
    10   10    6 1
    11   11    4 1
    12   12   11 1
    13   13   12 ar
    14   14   13 ar
    15   15   14 ar
    16   16   15 ar
    17   17   12 ar
    18   24    1 1
    19   25   24 1
    20   26   24 1
    21   27    3 1
    22   28    5 1
    23   29    6 1
    24   30    7 1
    25   31    8 1
    26   32    8 1
    27   33    9 1
    28   34   10 1
    29   35   11 1
    30   36   11 1
    31   37   13 1
    32   38   14 1
    33   39   15 1
    34   40   16 1
    35   41   17 1
    36   47   25 1
    37   48   25 1
    38   49   25 1
    39   50   26 1
    40   51   26 1
    41   52   26 1
    42    2   24 1
    43   16   17 ar
@<TRIPOS>SUBSTRUCTURE
     1 RES1 1
     2 SUP2 18

@<TRIPOS>CRYSIN
  18.6550    5.4316   14.7067  90.0000  92.9140  90.0000   5 1

