# MOL2 file generated by ConQuest
# Please check atom types

@<TRIPOS>MOLECULE
QAYQUD
    64    66     2
SMALL
NO_CHARGES
****
Generated from CSD

@<TRIPOS>ATOM
      1 O1         4.0966    6.5684    5.5821 O.2       1 RES1    0.0000
      2 O2        -0.9516    6.4624    2.1852 O.3       1 RES1    0.0000
      3 O3        -0.1766    1.3318    2.6876 O.2       2 RES2    0.0000
      4 O4         3.5836   -1.6350    6.4441 O.3       2 RES2    0.0000
      5 N1         1.0536    3.7973    3.2429 N.pl3     1 RES1    0.0000
      6 H1         0.9365    2.9706    3.0336 H         1 RES1    0.0000
      7 N2         0.1989    5.9801    2.8617 N.2       1 RES1    0.0000
      8 N3         0.8053   -2.8407    4.7059 N.pl3     2 RES2    0.0000
      9 H2         0.5127   -3.6494    4.7287 H         2 RES2    0.0000
     10 N4         2.4772   -1.4162    5.5851 N.2       2 RES2    0.0000
     11 C1         2.1254    4.0533    4.0619 C.2       1 RES1    0.0000
     12 C2         2.5272    5.2774    4.4427 C.2       1 RES1    0.0000
     13 H3         2.0547    6.0259    4.1551 H         1 RES1    0.0000
     14 C3         3.6750    5.4464    5.2863 C.2       1 RES1    0.0000
     15 C4         4.3856    4.2331    5.7988 C.3       1 RES1    0.0000
     16 H4         4.7105    4.4204    6.6922 H         1 RES1    0.0000
     17 H5         5.1577    4.0670    5.2349 H         1 RES1    0.0000
     18 C5         3.5358    2.9650    5.8454 C.3       1 RES1    0.0000
     19 C6         2.8553    2.8157    4.4909 C.3       1 RES1    0.0000
     20 H6         3.5245    2.5985    3.8225 H         1 RES1    0.0000
     21 H7         2.2272    2.0774    4.5327 H         1 RES1    0.0000
     22 C7         2.4780    3.0804    6.9413 C.3       1 RES1    0.0000
     23 H8         2.9089    3.1769    7.7928 H         1 RES1    0.0000
     24 H9         1.9334    2.2902    6.9445 H         1 RES1    0.0000
     25 H10        1.9265    3.8481    6.7725 H         1 RES1    0.0000
     26 C8         4.4370    1.7653    6.1186 C.3       1 RES1    0.0000
     27 H11        4.8406    1.8584    6.9862 H         1 RES1    0.0000
     28 H12        5.1237    1.7212    5.4502 H         1 RES1    0.0000
     29 H13        3.9143    0.9605    6.0945 H         1 RES1    0.0000
     30 C9         0.1326    4.6890    2.7058 C.2       1 RES1    0.0000
     31 C10       -0.9838    4.2833    1.9522 C.2       1 RES1    0.0000
     32 H14       -1.2207    3.4181    1.7096 H         1 RES1    0.0000
     33 C11       -1.6266    5.4123    1.6614 C.2       1 RES1    0.0000
     34 C12       -2.8742    5.7303    0.9400 C.3       1 RES1    0.0000
     35 H15       -3.2653    4.9206    0.6058 H         1 RES1    0.0000
     36 H16       -2.6788    6.3188    0.2073 H         1 RES1    0.0000
     37 H17       -3.4897    6.1592    1.5393 H         1 RES1    0.0000
     38 C13        0.0945   -1.9880    3.9173 C.2       2 RES2    0.0000
     39 C14        0.3774   -0.6811    3.7277 C.2       2 RES2    0.0000
     40 H18        1.1236   -0.3130    4.1439 H         2 RES2    0.0000
     41 C15       -0.4376    0.1438    2.9115 C.2       2 RES2    0.0000
     42 C16       -1.7024   -0.4485    2.3346 C.3       2 RES2    0.0000
     43 H19       -1.9363    0.0358    1.5264 H         2 RES2    0.0000
     44 H20       -2.4251   -0.3291    2.9709 H         2 RES2    0.0000
     45 C17       -1.5776   -1.9198    2.0036 C.3       2 RES2    0.0000
     46 C18       -1.0870   -2.6372    3.2521 C.3       2 RES2    0.0000
     47 H21       -1.8156   -2.6827    3.8900 H         2 RES2    0.0000
     48 H22       -0.8482   -3.5464    3.0127 H         2 RES2    0.0000
     49 C19       -0.6053   -2.1289    0.8452 C.3       2 RES2    0.0000
     50 H23       -0.9392   -1.6849    0.0627 H         2 RES2    0.0000
     51 H24       -0.5181   -3.0688    0.6652 H         2 RES2    0.0000
     52 H25        0.2525   -1.7671    1.0765 H         2 RES2    0.0000
     53 C20       -2.9465   -2.4764    1.6036 C.3       2 RES2    0.0000
     54 H26       -3.2223   -2.0798    0.7729 H         2 RES2    0.0000
     55 H27       -3.5886   -2.2684    2.2864 H         2 RES2    0.0000
     56 H28       -2.8873   -3.4288    1.4991 H         2 RES2    0.0000
     57 C21        1.9308   -2.5986    5.4775 C.2       2 RES2    0.0000
     58 C22        2.6121   -3.5795    6.2134 C.2       2 RES2    0.0000
     59 H29        2.4041   -4.4832    6.2761 H         2 RES2    0.0000
     60 C23        3.6157   -2.9408    6.7983 C.2       2 RES2    0.0000
     61 C24        4.7198   -3.3407    7.7013 C.3       2 RES2    0.0000
     62 H30        4.8525   -4.2901    7.6450 H         2 RES2    0.0000
     63 H31        4.4970   -3.1026    8.6043 H         2 RES2    0.0000
     64 H32        5.5263   -2.8888    7.4410 H         2 RES2    0.0000
@<TRIPOS>BOND
     1    1   14 2
     2    2    7 1
     3    3   41 2
     4    4   10 1
     5    5    6 1
     6    7   30 2
     7    8    9 1
     8   10   57 2
     9   11    5 1
    10   12   11 2
    11   13   12 1
    12   14   12 1
    13   15   14 1
    14   16   15 1
    15   17   15 1
    16   18   15 1
    17   19   11 1
    18   20   19 1
    19   21   19 1
    20   22   18 1
    21   23   22 1
    22   24   22 1
    23   25   22 1
    24   26   18 1
    25   27   26 1
    26   28   26 1
    27   29   26 1
    28   30    5 1
    29   31   30 1
    30   32   31 1
    31   33    2 1
    32   34   33 1
    33   35   34 1
    34   36   34 1
    35   37   34 1
    36   38    8 1
    37   39   38 2
    38   40   39 1
    39   41   39 1
    40   42   41 1
    41   43   42 1
    42   44   42 1
    43   45   42 1
    44   46   38 1
    45   47   46 1
    46   48   46 1
    47   49   45 1
    48   50   49 1
    49   51   49 1
    50   52   49 1
    51   53   45 1
    52   54   53 1
    53   55   53 1
    54   56   53 1
    55   57    8 1
    56   58   57 1
    57   59   58 1
    58   60    4 1
    59   61   60 1
    60   62   61 1
    61   63   61 1
    62   64   61 1
    63   18   19 1
    64   31   33 2
    65   45   46 1
    66   58   60 2
@<TRIPOS>SUBSTRUCTURE
     1 RES1 1
     2 RES2 3

@<TRIPOS>CRYSIN
   6.2647   12.2138   16.4590 101.1370  93.5660 100.3060   2 1

