# MOL2 file generated by ConQuest
# Please check atom types

@<TRIPOS>MOLECULE
QAYQOX
    41    30     2
SMALL
NO_CHARGES
****
Generated from CSD

@<TRIPOS>ATOM
      1 O1         2.6520    4.6342    3.3573 O.2       1 RES1    0.0000
      2 O2         3.4829   -0.8223    1.0379 O.3       1 RES1    0.0000
      3 N1         5.8238    1.2015    2.6828 N.pl3     1 RES1    0.0000
      4 H1         6.6369    0.9872    2.8615 H         1 RES1    0.0000
      5 N2         3.8252    0.3850    1.6894 N.2       1 RES1    0.0000
      6 C1         5.4340    2.4450    3.0875 C.2       1 RES1    0.0000
      7 C2         4.2033    2.9671    2.8732 C.2       1 RES1    0.0000
      8 H2         3.5926    2.4938    2.3553 H         1 RES1    0.0000
      9 C3         3.8202    4.2276    3.4251 C.2       1 RES1    0.0000
     10 C4         4.8341    5.1102    4.0315 C.3       1 RES1    0.0000
     11 H3         4.7166    5.1084    4.9937 H         1 RES1    0.0000
     12 H4         4.6888    6.0172    3.7177 H         1 RES1    0.0000
     13 C5         6.2562    4.7063    3.7177 C.3       1 RES1    0.0000
     14 H5         6.4165    4.9001    2.7642 H         1 RES1    0.0000
     15 C6         6.4451    3.2070    3.9058 C.3       1 RES1    0.0000
     16 H6         7.3416    2.9518    3.6357 H         1 RES1    0.0000
     17 H7         6.3384    2.9852    4.8439 H         1 RES1    0.0000
     18 C7         7.2807    5.5087    4.5159 C.3       1 RES1    0.0000
     19 H8         7.1857    6.4419    4.3016 H         1 RES1    0.0000
     20 H9         8.1631    5.2157    4.2950 H         1 RES1    0.0000
     21 H10        7.1182    5.3789    5.4519 H         1 RES1    0.0000
     22 C8         4.8848    4.9768    4.2753 Du        2 SUP2    0.0000
     23 H11        4.6975    5.9280    4.2611 Du        2 SUP2    0.0000
     24 H12        4.8368    4.6729    5.1938 Du        2 SUP2    0.0000
     25 C9         6.2910    4.7424    3.7396 Du        2 SUP2    0.0000
     26 H13        6.3183    5.0913    2.8298 Du        2 SUP2    0.0000
     27 C10        6.5586    3.2457    3.6630 Du        2 SUP2    0.0000
     28 H14        7.3499    3.0997    3.1141 Du        2 SUP2    0.0000
     29 H15        6.7550    2.9112    4.5498 Du        2 SUP2    0.0000
     30 C11        7.3711    5.4636    4.5378 Du        2 SUP2    0.0000
     31 H16        7.1092    6.3787    4.6690 Du        2 SUP2    0.0000
     32 H17        8.1974    5.4312    4.0578 Du        2 SUP2    0.0000
     33 H18        7.4759    5.0372    5.3928 Du        2 SUP2    0.0000
     34 C12        5.0775    0.2389    2.0197 C.2       1 RES1    0.0000
     35 C13        5.5902   -1.0161    1.6053 C.2       1 RES1    0.0000
     36 H19        6.4512   -1.3461    1.7254 H         1 RES1    0.0000
     37 C14        4.5595   -1.6202    1.0038 C.2       1 RES1    0.0000
     38 C15        4.3746   -2.9329    0.3412 C.3       1 RES1    0.0000
     39 H20        5.2326   -3.3242    0.1629 H         1 RES1    0.0000
     40 H21        3.9007   -2.8103   -0.4844 H         1 RES1    0.0000
     41 H22        3.8720   -3.5135    0.9163 H         1 RES1    0.0000
@<TRIPOS>BOND
     1    1    9 2
     2    2    5 1
     3    3    4 1
     4    5   34 2
     5    6    3 1
     6    7    6 2
     7    8    7 1
     8    9    7 1
     9   10    9 1
    10   11   10 1
    11   12   10 1
    12   13   10 1
    13   14   13 1
    14   15    6 1
    15   16   15 1
    16   17   15 1
    17   18   13 1
    18   19   18 1
    19   20   18 1
    20   21   18 1
    21   34    3 1
    22   35   34 1
    23   36   35 1
    24   37    2 1
    25   38   37 1
    26   39   38 1
    27   40   38 1
    28   41   38 1
    29   13   15 1
    30   35   37 2
@<TRIPOS>SUBSTRUCTURE
     1 RES1 1
     2 SUP2 22

@<TRIPOS>CRYSIN
  11.1239    9.0159   11.9664  90.0000 113.9700  90.0000  14 2

