# MOL2 file generated by ConQuest
# Please check atom types

@<TRIPOS>MOLECULE
QAYSIT
    45    48     1
SMALL
NO_CHARGES
****
Generated from CSD

@<TRIPOS>ATOM
      1 O1         5.1135    4.7895    3.9138 O.3       1 RES1    0.0000
      2 H1         5.2671    5.6495    4.4097 H         1 RES1    0.0000
      3 O2         2.7905    4.9193    4.0761 O.3       1 RES1    0.0000
      4 O3         3.7072    0.5678    5.4855 O.2       1 RES1    0.0000
      5 O4         5.7736    2.6604    1.2455 O.2       1 RES1    0.0000
      6 O5         5.6319   -2.3321    2.0667 O.2       1 RES1    0.0000
      7 O6         4.0389   -3.2947    1.0296 O.2       1 RES1    0.0000
      8 N1         4.5064   -2.3419    1.6201 N.pl3     1 RES1    0.0000
      9 C1         3.9266    4.8376    3.1784 C.3       1 RES1    0.0000
     10 C2         3.8370    6.0613    2.2876 C.3       1 RES1    0.0000
     11 H2         2.9779    6.0729    1.8374 H         1 RES1    0.0000
     12 H3         3.9028    6.8630    2.8317 H         1 RES1    0.0000
     13 C3         4.9458    6.0574    1.2568 C.3       1 RES1    0.0000
     14 H4         5.7980    6.1720    1.7055 H         1 RES1    0.0000
     15 H5         4.8236    6.8090    0.6550 H         1 RES1    0.0000
     16 C4         4.9790    4.7654    0.4418 C.3       1 RES1    0.0000
     17 H6         4.2078    4.7332   -0.1448 H         1 RES1    0.0000
     18 H7         5.7768    4.7512   -0.1102 H         1 RES1    0.0000
     19 C5         4.9719    3.5518    1.3497 C.2       1 RES1    0.0000
     20 C6         3.8769    3.5464    2.3907 C.3       1 RES1    0.0000
     21 H8         3.0201    3.5274    1.9152 H         1 RES1    0.0000
     22 C7         3.9123    2.3262    3.3193 C.3       1 RES1    0.0000
     23 H9         4.8398    2.1697    3.5947 H         1 RES1    0.0000
     24 C8         3.0843    2.5940    4.5452 C.2       1 RES1    0.0000
     25 C9         2.9853    1.5623    5.5674 C.2       1 RES1    0.0000
     26 C10        2.0571    1.7579    6.7230 C.3       1 RES1    0.0000
     27 H10        2.5707    2.0372    7.4964 H         1 RES1    0.0000
     28 H11        1.6360    0.9111    6.9366 H         1 RES1    0.0000
     29 C11        0.9778    2.7900    6.4459 C.3       1 RES1    0.0000
     30 H12        0.4811    2.9663    7.2608 H         1 RES1    0.0000
     31 H13        0.3591    2.4438    5.7844 H         1 RES1    0.0000
     32 C12        1.6005    4.0872    5.9355 C.3       1 RES1    0.0000
     33 H14        0.9001    4.6856    5.6310 H         1 RES1    0.0000
     34 H15        2.0777    4.5260    6.6577 H         1 RES1    0.0000
     35 C13        2.5394    3.8079    4.8143 C.2       1 RES1    0.0000
     36 C14        3.4010    1.0797    2.5961 C.ar      1 RES1    0.0000
     37 C15        4.1833   -0.0447    2.4422 C.ar      1 RES1    0.0000
     38 H16        5.0500   -0.0656    2.7798 H         1 RES1    0.0000
     39 C16        3.6641   -1.1393    1.7818 C.ar      1 RES1    0.0000
     40 C17        2.3898   -1.1608    1.2663 C.ar      1 RES1    0.0000
     41 H17        2.0640   -1.9098    0.8214 H         1 RES1    0.0000
     42 C18        1.6143   -0.0399    1.4284 C.ar      1 RES1    0.0000
     43 H18        0.7470   -0.0257    1.0916 H         1 RES1    0.0000
     44 C19        2.1109    1.0681    2.0855 C.ar      1 RES1    0.0000
     45 H19        1.5719    1.8184    2.1875 H         1 RES1    0.0000
@<TRIPOS>BOND
     1    1    2 1
     2    3    9 1
     3    4   25 2
     4    5   19 2
     5    6    8 2
     6    7    8 2
     7    8   39 1
     8    9    1 1
     9   10    9 1
    10   11   10 1
    11   12   10 1
    12   13   10 1
    13   14   13 1
    14   15   13 1
    15   16   13 1
    16   17   16 1
    17   18   16 1
    18   19   16 1
    19   20    9 1
    20   21   20 1
    21   22   20 1
    22   23   22 1
    23   24   22 1
    24   25   24 1
    25   26   25 1
    26   27   26 1
    27   28   26 1
    28   29   26 1
    29   30   29 1
    30   31   29 1
    31   32   29 1
    32   33   32 1
    33   34   32 1
    34   35    3 1
    35   36   22 1
    36   37   36 ar
    37   38   37 1
    38   39   37 ar
    39   40   39 ar
    40   41   40 1
    41   42   40 ar
    42   43   42 1
    43   44   36 ar
    44   45   44 1
    45   19   20 1
    46   24   35 2
    47   32   35 1
    48   42   44 ar
@<TRIPOS>SUBSTRUCTURE
     1 RES1 1

@<TRIPOS>CRYSIN
   6.2983   12.8690   21.6190  90.0000  90.9600  90.0000 231 1

