# MOL2 file generated by ConQuest
# Please check atom types

@<TRIPOS>MOLECULE
QAYVIY01
    30    31     1
SMALL
NO_CHARGES
****
Generated from CSD

@<TRIPOS>ATOM
      1 O1         0.0964    2.3884    9.7410 O.2       1 RES1    0.0000
      2 O2         3.5701    2.6907   12.8673 O.2       1 RES1    0.0000
      3 N1         2.0957    1.5504    9.0423 N.am      1 RES1    0.0000
      4 H1         2.8602    1.6001    9.1304 H         1 RES1    0.0000
      5 N2         2.7555    3.2945   13.5631 N.pl3     1 RES1    0.0000
      6 O3         2.7203    3.2001   14.7870 O.2       1 RES1    0.0000
      7 N3         2.0384    3.0812   10.7292 N.am      1 RES1    0.0000
      8 H2         2.8419    2.8446   10.8588 H         1 RES1    0.0000
      9 C1         1.3230    2.3461    9.8146 C.2       1 RES1    0.0000
     10 C2         1.8045    4.1896   12.9200 C.ar      1 RES1    0.0000
     11 C3         1.4662    4.0486   11.5663 C.ar      1 RES1    0.0000
     12 C4         1.6088    0.6278    8.0846 C.ar      1 RES1    0.0000
     13 C5         0.5201    4.9430   11.0589 C.ar      1 RES1    0.0000
     14 H3         0.2638    4.8805   10.1456 H         1 RES1    0.0000
     15 C6         2.1876   -0.6357    8.0198 C.ar      1 RES1    0.0000
     16 H4         2.8707   -0.8742    8.6354 H         1 RES1    0.0000
     17 C7         1.2312    5.1662   13.7198 C.ar      1 RES1    0.0000
     18 H5         1.4773    5.2336   14.6343 H         1 RES1    0.0000
     19 C8         0.6078    0.9790    7.1844 C.ar      1 RES1    0.0000
     20 H6         0.2179    1.8447    7.2112 H         1 RES1    0.0000
     21 C9         1.7759   -1.5424    7.0675 C.ar      1 RES1    0.0000
     22 H7         2.1862   -2.3983    7.0203 H         1 RES1    0.0000
     23 C10       -0.0478    5.9135   11.8530 C.ar      1 RES1    0.0000
     24 H8        -0.6911    6.5057   11.4817 H         1 RES1    0.0000
     25 C11        0.1864    0.0429    6.2438 C.ar      1 RES1    0.0000
     26 H9        -0.5093    0.2697    5.6381 H         1 RES1    0.0000
     27 C12        0.3087    6.0373   13.1931 C.ar      1 RES1    0.0000
     28 H10       -0.0805    6.7135   13.7345 H         1 RES1    0.0000
     29 C13        0.7629   -1.2095    6.1784 C.ar      1 RES1    0.0000
     30 H11        0.4689   -1.8385    5.5311 H         1 RES1    0.0000
@<TRIPOS>BOND
     1    1    9 2
     2    2    5 2
     3    3    4 1
     4    5    6 2
     5    7    8 1
     6    9    3 1
     7   10    5 1
     8   11    7 1
     9   12    3 1
    10   13   11 ar
    11   14   13 1
    12   15   12 ar
    13   16   15 1
    14   17   10 ar
    15   18   17 1
    16   19   12 ar
    17   20   19 1
    18   21   15 ar
    19   22   21 1
    20   23   13 ar
    21   24   23 1
    22   25   19 ar
    23   26   25 1
    24   27   17 ar
    25   28   27 1
    26   29   21 ar
    27   30   29 1
    28    7    9 1
    29   10   11 ar
    30   23   27 ar
    31   25   29 ar
@<TRIPOS>SUBSTRUCTURE
     1 RES1 1

@<TRIPOS>CRYSIN
   4.6327    6.1305   20.9967  90.0000  92.6030  90.0000   7 1

