# MOL2 file generated by ConQuest
# Please check atom types

@<TRIPOS>MOLECULE
QAZDOK
    68    72     2
SMALL
USER_CHARGES
****
Generated from CSD

@<TRIPOS>ATOM
      1 O1         3.6950   -1.6729   -0.1826 O.2       1 RES1   -1.0000
      2 O2         4.7015   -0.0857   -1.4685 O.3       1 RES1    0.0000
      3 O3         2.6133    3.5951    3.9116 O.2       1 RES1    0.0000
      4 O4         1.5179    1.7789    3.6233 O.2       1 RES1    0.0000
      5 O5         2.0819    3.2174    0.7508 O.3       1 RES1    0.0000
      6 H1         1.8250    3.9884    0.6443 H         1 RES1    0.0000
      7 N1         3.9913   -0.4689   -0.2820 N.pl3     1 RES1    1.0000
      8 N2         2.4461    2.5149    3.3719 N.pl3     1 RES1    0.0000
      9 N3         4.9057    1.2960   -1.4256 N.2       1 RES1    0.0000
     10 N4         4.3678    2.9611    0.2028 N.3       1 RES1    0.0000
     11 H2         4.9036    3.5671   -0.0879 H         1 RES1    0.0000
     12 C1         3.8142    0.6106    0.4515 C.2       1 RES1    0.0000
     13 C2         4.3772    1.6877   -0.2899 C.2       1 RES1    0.0000
     14 C3         3.4004    3.2267    1.2438 C.3       1 RES1    0.0000
     15 H3         3.5916    4.0936    1.6585 H         1 RES1    0.0000
     16 C4         3.4817    2.1083    2.3126 C.3       1 RES1    0.0000
     17 C5         3.0679    0.7383    1.7393 C.3       1 RES1    0.0000
     18 H4         2.1109    0.7773    1.5291 H         1 RES1    0.0000
     19 C6         3.2859   -0.4128    2.7349 C.3       1 RES1    0.0000
     20 H5         2.4663   -0.5358    3.2403 H         1 RES1    0.0000
     21 H6         3.4390   -1.2259    2.2296 H         1 RES1    0.0000
     22 C7         4.4227   -0.2430    3.7120 C.2       1 RES1    0.0000
     23 C8         5.1142    0.8809    3.8305 C.2       1 RES1    0.0000
     24 C9         4.8467    2.0896    2.9834 C.3       1 RES1    0.0000
     25 H7         5.5290    2.1426    2.2962 H         1 RES1    0.0000
     26 H8         4.9285    2.8802    3.5389 H         1 RES1    0.0000
     27 C10        6.2813    1.0748    4.7664 C.3       1 RES1    0.0000
     28 H9         6.0720    1.7656    5.4000 H         1 RES1    0.0000
     29 H10        7.0585    1.3279    4.2616 H         1 RES1    0.0000
     30 H11        6.4572    0.2547    5.2335 H         1 RES1    0.0000
     31 C11        4.6805   -1.4759    4.5357 C.3       1 RES1    0.0000
     32 H12        5.0190   -2.1737    3.9695 H         1 RES1    0.0000
     33 H13        3.8623   -1.7649    4.9441 H         1 RES1    0.0000
     34 H14        5.3260   -1.2757    5.2171 H         1 RES1    0.0000
     35 O6        10.5443    8.2230    2.0942 O.2       2 RES2   -1.0000
     36 O7        11.8582    6.7011    1.0079 O.3       2 RES2    0.0000
     37 O8         8.8022    2.9113    5.8417 O.2       2 RES2    0.0000
     38 O9         7.5909    4.5126    5.1193 O.2       2 RES2    0.0000
     39 O10        8.6311    3.2049    2.5310 O.3       2 RES2    0.0000
     40 H15        8.5962    2.5523    2.0366 H         2 RES2    0.0000
     41 N5        10.8468    7.0329    1.9921 N.pl3     2 RES2    1.0000
     42 N6         8.6270    3.8989    5.1535 N.pl3     2 RES2    0.0000
     43 N7        12.0180    5.3179    1.0150 N.2       2 RES2    0.0000
     44 N8        10.9648    3.5757    2.2465 N.3       2 RES2    0.0000
     45 H16       11.4622    2.9549    1.9195 H         2 RES2    0.0000
     46 C12       10.4540    5.9176    2.5610 C.2       2 RES2    0.0000
     47 C13       11.1699    4.8701    1.9116 C.2       2 RES2    0.0000
     48 C14        9.8959    3.2532    3.1625 C.3       2 RES2    0.0000
     49 H17       10.0805    2.3879    3.5829 H         2 RES2    0.0000
     50 C15        9.8010    4.3436    4.2586 C.3       2 RES2    0.0000
     51 C16        9.4632    5.7291    3.6700 C.3       2 RES2    0.0000
     52 H18        8.5594    5.7050    3.2924 H         2 RES2    0.0000
     53 C17        9.5312    6.8242    4.7421 C.3       2 RES2    0.0000
     54 H19        9.4990    7.6895    4.3055 H         2 RES2    0.0000
     55 H20        8.7488    6.7525    5.3107 H         2 RES2    0.0000
     56 C18       10.7655    6.7642    5.6067 C.2       2 RES2    0.0000
     57 C19       11.4595    5.6396    5.7579 C.2       2 RES2    0.0000
     58 C20       11.0863    4.3459    5.0931 C.3       2 RES2    0.0000
     59 H21       10.9999    3.6676    5.7811 H         2 RES2    0.0000
     60 H22       11.8204    4.0811    4.5171 H         2 RES2    0.0000
     61 C21       12.6971    5.5041    6.6061 C.3       2 RES2    0.0000
     62 H23       13.3988    5.1045    6.0880 H         2 RES2    0.0000
     63 H24       12.5048    4.9495    7.3656 H         2 RES2    0.0000
     64 H25       12.9766    6.3725    6.9070 H         2 RES2    0.0000
     65 C22       11.0892    8.0594    6.3075 C.3       2 RES2    0.0000
     66 H26       10.2868    8.4286    6.6858 H         2 RES2    0.0000
     67 H27       11.4613    8.6802    5.6757 H         2 RES2    0.0000
     68 H28       11.7262    7.8943    7.0080 H         2 RES2    0.0000
@<TRIPOS>BOND
     1    1    7 1
     2    2    7 1
     3    3    8 2
     4    4    8 2
     5    5    6 1
     6    7   12 2
     7    8   16 1
     8    9    2 1
     9   10   11 1
    10   12   13 1
    11   13    9 2
    12   14    5 1
    13   15   14 1
    14   16   14 1
    15   17   12 1
    16   18   17 1
    17   19   17 1
    18   20   19 1
    19   21   19 1
    20   22   19 1
    21   23   22 2
    22   24   16 1
    23   25   24 1
    24   26   24 1
    25   27   23 1
    26   28   27 1
    27   29   27 1
    28   30   27 1
    29   31   22 1
    30   32   31 1
    31   33   31 1
    32   34   31 1
    33   35   41 1
    34   36   41 1
    35   37   42 2
    36   38   42 2
    37   39   40 1
    38   41   46 2
    39   42   50 1
    40   43   36 1
    41   44   45 1
    42   46   47 1
    43   47   43 2
    44   48   39 1
    45   49   48 1
    46   50   48 1
    47   51   46 1
    48   52   51 1
    49   53   51 1
    50   54   53 1
    51   55   53 1
    52   56   53 1
    53   57   56 2
    54   58   50 1
    55   59   58 1
    56   60   58 1
    57   61   57 1
    58   62   61 1
    59   63   61 1
    60   64   61 1
    61   65   56 1
    62   66   65 1
    63   67   65 1
    64   68   65 1
    65   10   13 1
    66   10   14 1
    67   16   17 1
    68   23   24 1
    69   44   47 1
    70   44   48 1
    71   50   51 1
    72   57   58 1
@<TRIPOS>SUBSTRUCTURE
     1 RES1 1
     2 RES2 35

@<TRIPOS>CRYSIN
  11.7334    7.7884   27.5509  90.0000  97.7340  90.0000 231 1

