# MOL2 file generated by ConQuest
# Please check atom types

@<TRIPOS>MOLECULE
QAZDUQ
   122   126     1
SMALL
NO_CHARGES
****
Generated from CSD

@<TRIPOS>ATOM
      1 O1        12.6481    3.3782    8.3563 O.2       1 RES1    0.0000
      2 O2         7.9553    3.4311    5.8399 O.2       1 RES1    0.0000
      3 O3         8.9634    3.6423    3.8328 O.3       1 RES1    0.0000
      4 C1         0.5565    3.6447    0.4259 C.ar      1 RES1    0.0000
      5 N1        12.0121    3.4496    7.2663 N.3       1 RES1    0.0000
      6 C2        10.5233    3.4125    7.2384 C.3       1 RES1    0.0000
      7 C3        10.3260    3.4623    5.7467 C.2       1 RES1    0.0000
      8 C4        12.6898    3.4313    5.9500 C.3       1 RES1    0.0000
      9 C5         8.9496    3.5027    5.1805 C.2       1 RES1    0.0000
     10 C6         7.6848    3.7804    3.2254 C.ar      1 RES1    0.0000
     11 C7         5.2215    4.0735    2.0422 C.ar      1 RES1    0.0000
     12 C8         3.9154    4.2660    1.4978 C.1       1 RES1    0.0000
     13 C9         2.8030    4.4615    1.0876 C.1       1 RES1    0.0000
     14 C10        1.4896    4.6927    0.5432 C.ar      1 RES1    0.0000
     15 C11       11.4637    3.4884    5.0499 C.2       1 RES1    0.0000
     16 C12        6.9212    2.6554    2.9956 C.ar      1 RES1    0.0000
     17 C13        5.6825    2.8146    2.3955 C.ar      1 RES1    0.0000
     18 C14        6.0582    5.1808    2.2479 C.ar      1 RES1    0.0000
     19 C15        7.2893    5.0322    2.8576 C.ar      1 RES1    0.0000
     20 C16        1.1481    5.9807    0.1343 C.ar      1 RES1    0.0000
     21 H1        11.5016    3.5481    4.1026 H         1 RES1    0.0000
     22 H2         7.2378    1.7963    3.2460 H         1 RES1    0.0000
     23 H3         5.1334    2.0561    2.2321 H         1 RES1    0.0000
     24 H4         5.7722    6.0403    1.9611 H         1 RES1    0.0000
     25 H5         7.8447    5.7848    3.0282 H         1 RES1    0.0000
     26 H6         1.7766    6.6841    0.2492 H         1 RES1    0.0000
     27 C17       10.0506    2.1228    7.8736 C.3       1 RES1    0.0000
     28 H7         9.1014    2.0861    7.8542 H         1 RES1    0.0000
     29 H8        10.3512    2.0836    8.7737 H         1 RES1    0.0000
     30 H9        10.4055    1.3877    7.3873 H         1 RES1    0.0000
     31 C18        9.9988    4.6220    7.9631 C.3       1 RES1    0.0000
     32 H10        9.0490    4.6131    7.9438 H         1 RES1    0.0000
     33 H11       10.2984    4.5989    8.8645 H         1 RES1    0.0000
     34 H12       10.3165    5.4135    7.5445 H         1 RES1    0.0000
     35 C19       13.5887    4.6467    5.8024 C.3       1 RES1    0.0000
     36 H13       14.0218    4.6201    4.9579 H         1 RES1    0.0000
     37 H14       14.2413    4.6465    6.4932 H         1 RES1    0.0000
     38 H15       13.0635    5.4361    5.8641 H         1 RES1    0.0000
     39 C20       13.4484    2.1413    5.7951 C.3       1 RES1    0.0000
     40 H16       13.8871    2.1290    4.9531 H         1 RES1    0.0000
     41 H17       14.0932    2.0663    6.4896 H         1 RES1    0.0000
     42 H18       12.8401    1.4142    5.8471 H         1 RES1    0.0000
     43 C21        0.9088    2.2505    0.8287 C.3       1 RES1    0.0000
     44 H19        1.4477    2.2723    1.6103 H         1 RES1    0.0000
     45 H20        0.1007    1.7871    1.0138 H         1 RES1    0.0000
     46 C22        1.6417    1.4920   -0.2577 C.3       1 RES1    0.0000
     47 H21        2.4222    1.9873   -0.4743 H         1 RES1    0.0000
     48 H22        1.0808    1.4350   -1.0235 H         1 RES1    0.0000
     49 C23        2.0738    0.0972    0.1597 C.3       1 RES1    0.0000
     50 H23        2.3969   -0.3617   -0.6061 H         1 RES1    0.0000
     51 H24        1.3162   -0.3612    0.5057 H         1 RES1    0.0000
     52 C24        3.1673    0.0892    1.2171 C.3       1 RES1    0.0000
     53 H25        3.9418    0.4974    0.8481 H         1 RES1    0.0000
     54 H26        2.8620    0.6007    1.9575 H         1 RES1    0.0000
     55 C25        3.5450   -1.2746    1.7131 C.3       1 RES1    0.0000
     56 H27        3.9523   -1.7592    1.0054 H         1 RES1    0.0000
     57 H28        2.7582   -1.7281    1.9950 H         1 RES1    0.0000
     58 C26        4.5300   -1.2089    2.8746 C.3       1 RES1    0.0000
     59 H29        4.7547   -2.0814    3.1734 H         1 RES1    0.0000
     60 H30        5.3178   -0.7573    2.5939 H         1 RES1    0.0000
     61 H31        4.1239   -0.7259    3.5847 H         1 RES1    0.0000
     62 C16A      -0.6733    3.9409   -0.1343 C.ar      1 RES1    0.0000
     63 C10A      -1.0147    5.2289   -0.5432 C.ar      1 RES1    0.0000
     64 C1A       -0.0816    6.2770   -0.4259 C.ar      1 RES1    0.0000
     65 C21A      -0.4339    7.6711   -0.8287 C.3       1 RES1    0.0000
     66 H19A      -0.9729    7.6493   -1.6103 H         1 RES1    0.0000
     67 H20A       0.3741    8.1346   -1.0138 H         1 RES1    0.0000
     68 C22A      -1.1669    8.4296    0.2577 C.3       1 RES1    0.0000
     69 H21A      -1.9473    7.9343    0.4743 H         1 RES1    0.0000
     70 H22A      -0.6059    8.4867    1.0235 H         1 RES1    0.0000
     71 C23A      -1.5990    9.8245   -0.1597 C.3       1 RES1    0.0000
     72 H23A      -1.9221   10.2834    0.6061 H         1 RES1    0.0000
     73 H24A      -0.8414   10.2829   -0.5057 H         1 RES1    0.0000
     74 C24A      -2.6925    9.8324   -1.2171 C.3       1 RES1    0.0000
     75 H25A      -3.4670    9.4242   -0.8481 H         1 RES1    0.0000
     76 H26A      -2.3872    9.3209   -1.9575 H         1 RES1    0.0000
     77 C25A      -3.0702   11.1963   -1.7131 C.3       1 RES1    0.0000
     78 H27A      -3.4774   11.6809   -1.0054 H         1 RES1    0.0000
     79 H28A      -2.2833   11.6497   -1.9950 H         1 RES1    0.0000
     80 C26A      -4.0552   11.1306   -2.8746 C.3       1 RES1    0.0000
     81 H29A      -4.2799   12.0030   -3.1734 H         1 RES1    0.0000
     82 H30A      -4.8430   10.6789   -2.5939 H         1 RES1    0.0000
     83 H31A      -3.6491   10.6476   -3.5847 H         1 RES1    0.0000
     84 C9A       -2.3282    5.4602   -1.0876 C.1       1 RES1    0.0000
     85 C8A       -3.4406    5.6556   -1.4978 C.1       1 RES1    0.0000
     86 C7A       -4.7466    5.8482   -2.0422 C.ar      1 RES1    0.0000
     87 C13A      -5.2077    7.1071   -2.3955 C.ar      1 RES1    0.0000
     88 C12A      -6.4463    7.2662   -2.9956 C.ar      1 RES1    0.0000
     89 C6A       -7.2100    6.1412   -3.2254 C.ar      1 RES1    0.0000
     90 O3A       -8.4886    6.2794   -3.8328 O.3       1 RES1    0.0000
     91 C5A       -8.4747    6.4190   -5.1805 C.2       1 RES1    0.0000
     92 O2A       -7.4805    6.4905   -5.8399 O.2       1 RES1    0.0000
     93 C3A       -9.8512    6.4593   -5.7467 C.2       1 RES1    0.0000
     94 C2A      -10.0485    6.5091   -7.2384 C.3       1 RES1    0.0000
     95 N1A      -11.5372    6.4721   -7.2663 N.3       1 RES1    0.0000
     96 O1A      -12.1733    6.5434   -8.3563 O.2       1 RES1    0.0000
     97 C4A      -12.2150    6.4903   -5.9500 C.3       1 RES1    0.0000
     98 C11A     -10.9889    6.4332   -5.0499 C.2       1 RES1    0.0000
     99 H1A      -11.0268    6.3735   -4.1026 H         1 RES1    0.0000
    100 C19A     -13.1139    5.2750   -5.8024 C.3       1 RES1    0.0000
    101 H13A     -13.5470    5.3015   -4.9579 H         1 RES1    0.0000
    102 H14A     -13.7665    5.2752   -6.4932 H         1 RES1    0.0000
    103 H15A     -12.5886    4.4856   -5.8641 H         1 RES1    0.0000
    104 C20A     -12.9736    7.7803   -5.7951 C.3       1 RES1    0.0000
    105 H16A     -13.4123    7.7926   -4.9531 H         1 RES1    0.0000
    106 H17A     -13.6184    7.8554   -6.4896 H         1 RES1    0.0000
    107 H18A     -12.3652    8.5075   -5.8471 H         1 RES1    0.0000
    108 C17A      -9.5758    7.7988   -7.8736 C.3       1 RES1    0.0000
    109 H7A       -8.6266    7.8356   -7.8542 H         1 RES1    0.0000
    110 H8A       -9.8763    7.8381   -8.7737 H         1 RES1    0.0000
    111 H9A       -9.9306    8.5339   -7.3873 H         1 RES1    0.0000
    112 C18A      -9.5240    5.2996   -7.9631 C.3       1 RES1    0.0000
    113 H10A      -8.5742    5.3086   -7.9438 H         1 RES1    0.0000
    114 H11A      -9.8236    5.3228   -8.8645 H         1 RES1    0.0000
    115 H12A      -9.8417    4.5082   -7.5445 H         1 RES1    0.0000
    116 C15A      -6.8145    4.8895   -2.8576 C.ar      1 RES1    0.0000
    117 C14A      -5.5834    4.7408   -2.2479 C.ar      1 RES1    0.0000
    118 H4A       -5.2974    3.8813   -1.9611 H         1 RES1    0.0000
    119 H5A       -7.3698    4.1368   -3.0282 H         1 RES1    0.0000
    120 H2A       -6.7630    8.1253   -3.2460 H         1 RES1    0.0000
    121 H3A       -4.6586    7.8656   -2.2321 H         1 RES1    0.0000
    122 H6A       -1.3018    3.2375   -0.2492 H         1 RES1    0.0000
@<TRIPOS>BOND
     1    1    5 1
     2    2    9 2
     3    3    9 1
     4    4   14 ar
     5    5    6 1
     6    6    7 1
     7    7    9 1
     8    8    5 1
     9   10    3 1
    10   11   12 1
    11   12   13 3
    12   13   14 1
    13   14   20 ar
    14   15    7 2
    15   16   10 ar
    16   17   11 ar
    17   18   11 ar
    18   19   10 ar
    19   20   26 1
    20   21   15 1
    21   22   16 1
    22   23   17 1
    23   24   18 1
    24   25   19 1
    25   27    6 1
    26   28   27 1
    27   29   27 1
    28   30   27 1
    29   31    6 1
    30   32   31 1
    31   33   31 1
    32   34   31 1
    33   35    8 1
    34   36   35 1
    35   37   35 1
    36   38   35 1
    37   39    8 1
    38   40   39 1
    39   41   39 1
    40   42   39 1
    41   43    4 1
    42   44   43 1
    43   45   43 1
    44   46   43 1
    45   47   46 1
    46   48   46 1
    47   49   46 1
    48   50   49 1
    49   51   49 1
    50   52   49 1
    51   53   52 1
    52   54   52 1
    53   55   52 1
    54   56   55 1
    55   57   55 1
    56   58   55 1
    57   59   58 1
    58   60   58 1
    59   61   58 1
    60   62    4 ar
    61   63   62 ar
    62   64   20 ar
    63   65   64 1
    64   66   65 1
    65   67   65 1
    66   68   65 1
    67   69   68 1
    68   70   68 1
    69   71   68 1
    70   72   71 1
    71   73   71 1
    72   74   71 1
    73   75   74 1
    74   76   74 1
    75   77   74 1
    76   78   77 1
    77   79   77 1
    78   80   77 1
    79   81   80 1
    80   82   80 1
    81   83   80 1
    82   84   63 1
    83   85   84 3
    84   86   85 1
    85   87   86 ar
    86   88   87 ar
    87   89   88 ar
    88   90   89 1
    89   91   90 1
    90   92   91 2
    91   93   91 1
    92   94   93 1
    93   95   94 1
    94   96   95 1
    95   97   95 1
    96   98   93 2
    97   99   98 1
    98  100   97 1
    99  101  100 1
   100  102  100 1
   101  103  100 1
   102  104   97 1
   103  105  104 1
   104  106  104 1
   105  107  104 1
   106  108   94 1
   107  109  108 1
   108  110  108 1
   109  111  108 1
   110  112   94 1
   111  113  112 1
   112  114  112 1
   113  115  112 1
   114  116   89 ar
   115  117   86 ar
   116  118  117 1
   117  119  116 1
   118  120   88 1
   119  121   87 1
   120  122   62 1
   121    8   15 1
   122   16   17 ar
   123   18   19 ar
   124   63   64 ar
   125   97   98 1
   126  116  117 ar
@<TRIPOS>SUBSTRUCTURE
     1 RES1 1

@<TRIPOS>CRYSIN
   9.2830    9.9330   12.3510  80.9210  82.3990  87.2600   2 1

