# MOL2 file generated by ConQuest
# Please check atom types

@<TRIPOS>MOLECULE
QAZFEF
   102   108     2
SMALL
NO_CHARGES
****
Generated from CSD

@<TRIPOS>ATOM
      1 N1         2.8133    3.3105    8.2006 N.pl3     1 RES1    0.0000
      2 C1         2.4721    2.0008    7.6341 C.3       1 RES1    0.0000
      3 H1         2.5731    2.0379    6.6495 H         1 RES1    0.0000
      4 H2         1.5246    1.7982    7.8343 H         1 RES1    0.0000
      5 C2         3.3500    0.8781    8.1838 C.3       1 RES1    0.0000
      6 H3         4.3115    1.1248    8.0675 H         1 RES1    0.0000
      7 O1         3.0559    0.7888    9.5668 O.3       1 RES1    0.0000
      8 H4         3.3407    0.0315    9.9098 H         1 RES1    0.0000
      9 C3         3.0737   -0.4218    7.4440 C.3       1 RES1    0.0000
     10 H5         3.5701   -1.1514    7.8696 H         1 RES1    0.0000
     11 H6         3.3584   -0.3333    6.5098 H         1 RES1    0.0000
     12 H7         2.1139   -0.6177    7.4751 H         1 RES1    0.0000
     13 C4         2.0997    4.0536    9.1040 C.2       1 RES1    0.0000
     14 C5         0.7995    3.7314    9.7150 C.ar      1 RES1    0.0000
     15 C6         0.4843    2.4746   10.2418 C.ar      1 RES1    0.0000
     16 H8         1.1166    1.7681   10.1945 H         1 RES1    0.0000
     17 C7        -0.7544    2.2563   10.8346 C.ar      1 RES1    0.0000
     18 H9        -0.9674    1.4094   11.2099 H         1 RES1    0.0000
     19 C8        -1.6694    3.2914   10.8700 C.ar      1 RES1    0.0000
     20 N2        -2.9912    3.0390   11.4493 N.pl3     1 RES1    0.0000
     21 O2        -3.1653    2.0018   12.0714 O.2       1 RES1    0.0000
     22 O3        -3.8736    3.8710   11.2587 O.2       1 RES1    0.0000
     23 C9        -1.3858    4.5523   10.3648 C.ar      1 RES1    0.0000
     24 H10       -2.0319    5.2479   10.3979 H         1 RES1    0.0000
     25 C10       -0.1388    4.7670    9.8128 C.ar      1 RES1    0.0000
     26 H11        0.0871    5.6320    9.4936 H         1 RES1    0.0000
     27 N3         2.7023    5.2108    9.3479 N.2       1 RES1    0.0000
     28 C11        3.8461    5.2224    8.5870 C.2       1 RES1    0.0000
     29 C12        4.7610    6.3838    8.5485 C.ar      1 RES1    0.0000
     30 C13        5.1639    7.0172    9.7187 C.ar      1 RES1    0.0000
     31 H12        4.8428    6.7105   10.5578 H         1 RES1    0.0000
     32 C14        6.0371    8.1004    9.6644 C.ar      1 RES1    0.0000
     33 H13        6.3185    8.5233   10.4670 H         1 RES1    0.0000
     34 C15        6.5015    8.5660    8.4349 C.ar      1 RES1    0.0000
     35 H14        7.0978    9.3050    8.3996 H         1 RES1    0.0000
     36 C16        6.0886    7.9465    7.2649 C.ar      1 RES1    0.0000
     37 H15        6.3936    8.2653    6.4231 H         1 RES1    0.0000
     38 C17        5.2262    6.8592    7.3270 C.ar      1 RES1    0.0000
     39 H16        4.9524    6.4330    6.5234 H         1 RES1    0.0000
     40 C18        3.9408    4.0508    7.8659 C.2       1 RES1    0.0000
     41 C19        5.0005    3.6202    6.9282 C.ar      1 RES1    0.0000
     42 C20        4.7274    3.3302    5.5933 C.ar      1 RES1    0.0000
     43 H17        3.8299    3.3427    5.2803 H         1 RES1    0.0000
     44 C21        5.7650    3.0222    4.7152 C.ar      1 RES1    0.0000
     45 H18        5.5692    2.8087    3.8107 H         1 RES1    0.0000
     46 C22        7.0775    3.0253    5.1512 C.ar      1 RES1    0.0000
     47 H19        7.7818    2.8239    4.5469 H         1 RES1    0.0000
     48 C23        7.3604    3.3234    6.4732 C.ar      1 RES1    0.0000
     49 H20        8.2608    3.3298    6.7756 H         1 RES1    0.0000
     50 C24        6.3243    3.6146    7.3609 C.ar      1 RES1    0.0000
     51 H21        6.5243    3.8103    8.2695 H         1 RES1    0.0000
     52 N4         0.4405    9.4976   12.1721 N.pl3     2 RES2    0.0000
     53 C25        1.5507    8.7237   12.7471 C.3       2 RES2    0.0000
     54 H22        1.4348    8.6702   13.7287 H         2 RES2    0.0000
     55 H23        2.4023    9.1963   12.5683 H         2 RES2    0.0000
     56 C26        1.6360    7.3085   12.1748 C.3       2 RES2    0.0000
     57 H24        0.7375    6.8745   12.2470 H         2 RES2    0.0000
     58 O4         1.9697    7.4518   10.8083 O.3       2 RES2    0.0000
     59 H25        2.1476    6.6695   10.4250 H         2 RES2    0.0000
     60 C27        2.6485    6.4814   12.9519 C.3       2 RES2    0.0000
     61 H26        2.7298    5.5949   12.5425 H         2 RES2    0.0000
     62 H27        2.3498    6.3875   13.8805 H         2 RES2    0.0000
     63 H28        3.5200    6.9302   12.9329 H         2 RES2    0.0000
     64 C28        0.5003   10.5685   11.3159 C.2       2 RES2    0.0000
     65 C29        1.6843   11.1573   10.6740 C.ar      2 RES2    0.0000
     66 C30        1.6840   12.5568   10.5220 C.ar      2 RES2    0.0000
     67 H29        0.9789   13.0688   10.8994 H         2 RES2    0.0000
     68 C31        2.6969   13.1956    9.8321 C.ar      2 RES2    0.0000
     69 H30        2.7021   14.1407    9.7390 H         2 RES2    0.0000
     70 C32        3.7057   12.4250    9.2797 C.ar      2 RES2    0.0000
     71 N5         4.7486   13.0987    8.5027 N.pl3     2 RES2    0.0000
     72 O5         4.8104   14.3255    8.5661 O.2       2 RES2    0.0000
     73 O6         5.5106   12.4173    7.8301 O.2       2 RES2    0.0000
     74 C33        3.7444   11.0447    9.4097 C.ar      2 RES2    0.0000
     75 H31        4.4491   10.5418    9.0192 H         2 RES2    0.0000
     76 C34        2.7339   10.4121   10.1228 C.ar      2 RES2    0.0000
     77 H32        2.7543    9.4687   10.2365 H         2 RES2    0.0000
     78 N6        -0.7114   11.0597   11.0903 N.2       2 RES2    0.0000
     79 C35       -1.5901   10.2861   11.8157 C.2       2 RES2    0.0000
     80 C36       -3.0403   10.5502   11.8237 C.ar      2 RES2    0.0000
     81 C37       -3.6766   11.0314   10.6792 C.ar      2 RES2    0.0000
     82 H33       -3.1750   11.1875    9.8881 H         2 RES2    0.0000
     83 C38       -5.0440   11.2843   10.6934 C.ar      2 RES2    0.0000
     84 H34       -5.4694   11.6105    9.9085 H         2 RES2    0.0000
     85 C39       -5.7919   11.0685   11.8321 C.ar      2 RES2    0.0000
     86 H35       -6.7254   11.2433   11.8321 H         2 RES2    0.0000
     87 C40       -5.1689   10.5920   12.9817 C.ar      2 RES2    0.0000
     88 H36       -5.6775   10.4403   13.7694 H         2 RES2    0.0000
     89 C41       -3.8001   10.3393   12.9779 C.ar      2 RES2    0.0000
     90 H37       -3.3784   10.0209   13.7666 H         2 RES2    0.0000
     91 C42       -0.8929    9.3023   12.4898 C.2       2 RES2    0.0000
     92 C43       -1.4239    8.2059   13.3223 C.ar      2 RES2    0.0000
     93 C44       -2.3530    7.3242   12.7664 C.ar      2 RES2    0.0000
     94 H38       -2.5684    7.3926   11.8443 H         2 RES2    0.0000
     95 C45       -2.9638    6.3547   13.5375 C.ar      2 RES2    0.0000
     96 H39       -3.5950    5.7627   13.1458 H         2 RES2    0.0000
     97 C46       -2.6513    6.2451   14.8932 C.ar      2 RES2    0.0000
     98 H40       -3.0731    5.5844   15.4287 H         2 RES2    0.0000
     99 C47       -1.7184    7.1051   15.4509 C.ar      2 RES2    0.0000
    100 H41       -1.4944    7.0244   16.3709 H         2 RES2    0.0000
    101 C48       -1.1075    8.0852   14.6782 C.ar      2 RES2    0.0000
    102 H42       -0.4744    8.6741   15.0721 H         2 RES2    0.0000
@<TRIPOS>BOND
     1    1    2 1
     2    2    3 1
     3    4    2 1
     4    5    2 1
     5    6    5 1
     6    7    5 1
     7    8    7 1
     8    9    5 1
     9   10    9 1
    10   11    9 1
    11   12    9 1
    12   13    1 1
    13   14   13 1
    14   15   14 ar
    15   16   15 1
    16   17   15 ar
    17   18   17 1
    18   19   17 ar
    19   20   19 1
    20   21   20 2
    21   22   20 2
    22   23   19 ar
    23   24   23 1
    24   25   14 ar
    25   26   25 1
    26   27   13 2
    27   28   27 1
    28   29   28 1
    29   30   29 ar
    30   31   30 1
    31   32   30 ar
    32   33   32 1
    33   34   32 ar
    34   35   34 1
    35   36   34 ar
    36   37   36 1
    37   38   29 ar
    38   39   38 1
    39   40    1 1
    40   41   40 1
    41   42   41 ar
    42   43   42 1
    43   44   42 ar
    44   45   44 1
    45   46   44 ar
    46   47   46 1
    47   48   46 ar
    48   49   48 1
    49   50   41 ar
    50   51   50 1
    51   52   53 1
    52   53   54 1
    53   55   53 1
    54   56   53 1
    55   57   56 1
    56   58   56 1
    57   59   58 1
    58   60   56 1
    59   61   60 1
    60   62   60 1
    61   63   60 1
    62   64   52 1
    63   65   64 1
    64   66   65 ar
    65   67   66 1
    66   68   66 ar
    67   69   68 1
    68   70   68 ar
    69   71   70 1
    70   72   71 2
    71   73   71 2
    72   74   70 ar
    73   75   74 1
    74   76   65 ar
    75   77   76 1
    76   78   64 2
    77   79   78 1
    78   80   79 1
    79   81   80 ar
    80   82   81 1
    81   83   81 ar
    82   84   83 1
    83   85   83 ar
    84   86   85 1
    85   87   85 ar
    86   88   87 1
    87   89   80 ar
    88   90   89 1
    89   91   52 1
    90   92   91 1
    91   93   92 ar
    92   94   93 1
    93   95   93 ar
    94   96   95 1
    95   97   95 ar
    96   98   97 1
    97   99   97 ar
    98  100   99 1
    99  101   92 ar
   100  102  101 1
   101   23   25 ar
   102   28   40 2
   103   36   38 ar
   104   48   50 ar
   105   74   76 ar
   106   79   91 2
   107   87   89 ar
   108   99  101 ar
@<TRIPOS>SUBSTRUCTURE
     1 RES1 1
     2 RES2 52

@<TRIPOS>CRYSIN
  12.3070   13.2871   13.8499  90.9070 100.7480 109.9380   2 1

