# MOL2 file generated by ConQuest
# Please check atom types

@<TRIPOS>MOLECULE
QAZYOI
    96   102     2
SMALL
USER_CHARGES
****
Generated from CSD

@<TRIPOS>ATOM
      1 O1         1.5001    5.6705    7.4579 O.2       1 RES1   -1.0000
      2 O2         1.8412    3.9950    5.1627 O.2       1 RES1   -1.0000
      3 C1        -0.3730    3.1714    3.7632 C.ar      1 RES1    0.0000
      4 N1         0.9765    3.2997    5.8086 N.pl3     1 RES1    1.0000
      5 C2         3.5975    6.9662    8.5685 C.ar      1 RES1    0.0000
      6 C3        -0.1290    2.7949    5.1767 C.ar      1 RES1    0.0000
      7 C4         1.1694    3.0230    7.1331 C.ar      1 RES1    0.0000
      8 N2         2.4428    4.9309    7.9147 N.pl3     1 RES1    1.0000
      9 C5         2.3504    3.5767    7.8059 C.ar      1 RES1    0.0000
     10 C6         0.3230    2.1787    7.7963 C.ar      1 RES1    0.0000
     11 H1         0.4714    1.9921    8.6957 H         1 RES1    0.0000
     12 C7         3.2797    2.7805    8.4240 C.ar      1 RES1    0.0000
     13 H2         3.2077    1.8555    8.3544 H         1 RES1    0.0000
     14 C8         4.3093    3.3242    9.1400 C.ar      1 RES1    0.0000
     15 H3         4.9176    2.7792    9.5857 H         1 RES1    0.0000
     16 C9        -0.9512    1.9353    5.8368 C.ar      1 RES1    0.0000
     17 H4        -1.6724    1.5634    5.3844 H         1 RES1    0.0000
     18 C10        3.5100    5.4948    8.5538 C.ar      1 RES1    0.0000
     19 C11       -0.7457    1.6026    7.1498 C.ar      1 RES1    0.0000
     20 H5        -1.3098    1.0062    7.5888 H         1 RES1    0.0000
     21 C12        4.0000    9.0408    7.4938 C.ar      1 RES1    0.0000
     22 H6         4.2002    9.5304    6.7282 H         1 RES1    0.0000
     23 C13        3.8858    7.6681    7.4001 C.ar      1 RES1    0.0000
     24 C14       -0.8412    4.4223    3.4210 C.ar      1 RES1    0.0000
     25 C15        4.4261    4.6834    9.1896 C.ar      1 RES1    0.0000
     26 H7         5.1320    5.0674    9.6580 H         1 RES1    0.0000
     27 C16        3.4284    7.6384    9.7731 C.ar      1 RES1    0.0000
     28 H8         3.2467    7.1610   10.5507 H         1 RES1    0.0000
     29 C17        3.5307    9.0097    9.8146 C.ar      1 RES1    0.0000
     30 H9         3.3985    9.4627   10.6163 H         1 RES1    0.0000
     31 C18       -0.9627    3.7205    1.1216 C.ar      1 RES1    0.0000
     32 H10       -1.1512    3.9152    0.2315 H         1 RES1    0.0000
     33 C19       -0.2179    2.2031    2.7826 C.ar      1 RES1    0.0000
     34 H11        0.0832    1.3565    3.0181 H         1 RES1    0.0000
     35 C20       -0.5031    2.4789    1.4736 C.ar      1 RES1    0.0000
     36 H12       -0.3855    1.8244    0.8231 H         1 RES1    0.0000
     37 C21       -1.1413    4.6712    2.0853 C.ar      1 RES1    0.0000
     38 H13       -1.4715    5.5070    1.8430 H         1 RES1    0.0000
     39 C22        3.8273    9.7035    8.6810 C.ar      1 RES1    0.0000
     40 H14        3.9121   10.6285    8.7131 H         1 RES1    0.0000
     41 C23        4.0668    6.9635    6.0925 C.3       1 RES1    0.0000
     42 H15        4.8835    6.4577    6.1125 H         1 RES1    0.0000
     43 H16        4.1079    7.6086    5.3831 H         1 RES1    0.0000
     44 H17        3.3279    6.3698    5.9439 H         1 RES1    0.0000
     45 C24       -1.0319    5.4718    4.4609 C.3       1 RES1    0.0000
     46 H18       -1.6836    5.1756    5.0994 H         1 RES1    0.0000
     47 H19       -1.3373    6.2819    4.0460 H         1 RES1    0.0000
     48 H20       -0.1973    5.6355    4.9066 H         1 RES1    0.0000
     49 O3         1.8036   12.7195    1.1112 O.2       2 RES2   -1.0000
     50 N3         4.5321   13.8917    1.0112 N.pl3     2 RES2    1.0000
     51 O4         4.7180   12.6466    1.2545 O.2       2 RES2   -1.0000
     52 N4         1.9620   12.9506    2.3658 N.pl3     2 RES2    1.0000
     53 C25        2.8527   13.8955    2.7759 C.ar      2 RES2    0.0000
     54 C26        5.2877   14.5288    0.0616 C.ar      2 RES2    0.0000
     55 C27        3.6137   14.5973    1.7294 C.ar      2 RES2    0.0000
     56 C28        3.4756   15.9489    1.5378 C.ar      2 RES2    0.0000
     57 H21        2.8558   16.4222    2.0438 H         2 RES2    0.0000
     58 C29        1.1994   12.2757    3.2871 C.ar      2 RES2    0.0000
     59 C30        2.1601   13.5970    5.0391 C.ar      2 RES2    0.0000
     60 H22        2.2131   13.8269    5.9386 H         2 RES2    0.0000
     61 C31        2.9412   14.2313    4.1089 C.ar      2 RES2    0.0000
     62 H23        3.5355   14.8940    4.3793 H         2 RES2    0.0000
     63 C32        1.3017   12.6192    4.6162 C.ar      2 RES2    0.0000
     64 H24        0.7741   12.1770    5.2412 H         2 RES2    0.0000
     65 C33        7.5575   13.5822   -0.2463 C.ar      2 RES2    0.0000
     66 H25        7.7999   13.9568    0.5702 H         2 RES2    0.0000
     67 C34        5.8936   13.1697   -1.9353 C.ar      2 RES2    0.0000
     68 C35        0.7571    9.9645    2.5243 C.ar      2 RES2    0.0000
     69 C36       -0.1435    9.0151    2.0478 C.ar      2 RES2    0.0000
     70 H26        0.1456    8.1428    1.8979 H         2 RES2    0.0000
     71 C37        6.2585   13.7160   -0.7174 C.ar      2 RES2    0.0000
     72 C38        6.8707   12.5138   -2.6822 C.ar      2 RES2    0.0000
     73 H27        6.6477   12.1608   -3.5133 H         2 RES2    0.0000
     74 C39        0.2844   11.2479    2.7719 C.ar      2 RES2    0.0000
     75 C40        5.1346   15.8731   -0.1205 C.ar      2 RES2    0.0000
     76 H28        5.6543   16.3032   -0.7602 H         2 RES2    0.0000
     77 C41        2.1882    9.6250    2.7786 C.3       2 RES2    0.0000
     78 H29        2.7522   10.2255    2.2847 H         2 RES2    0.0000
     79 H30        2.3592    8.7230    2.4988 H         2 RES2    0.0000
     80 H31        2.3751    9.7102    3.7168 H         2 RES2    0.0000
     81 C42        8.1439   12.3785   -2.2218 C.ar      2 RES2    0.0000
     82 H32        8.7808   11.9390   -2.7371 H         2 RES2    0.0000
     83 C43        4.2346   16.6075    0.6117 C.ar      2 RES2    0.0000
     84 H33        4.1457   17.5244    0.4832 H         2 RES2    0.0000
     85 C44        8.4886   12.8897   -0.9971 C.ar      2 RES2    0.0000
     86 H34        9.3514   12.7707   -0.6719 H         2 RES2    0.0000
     87 C45       -1.4521    9.3451    1.7962 C.ar      2 RES2    0.0000
     88 H35       -2.0311    8.7054    1.4468 H         2 RES2    0.0000
     89 C46       -1.9104   10.6015    2.0518 C.ar      2 RES2    0.0000
     90 H36       -2.8020   10.8138    1.8952 H         2 RES2    0.0000
     91 C47       -1.0481   11.5576    2.5457 C.ar      2 RES2    0.0000
     92 H37       -1.3614   12.4137    2.7290 H         2 RES2    0.0000
     93 C48        4.4932   13.2373   -2.4132 C.3       2 RES2    0.0000
     94 H38        3.9304   12.7261   -1.8269 H         2 RES2    0.0000
     95 H39        4.4409   12.8776   -3.3019 H         2 RES2    0.0000
     96 H40        4.2021   14.1515   -2.4199 H         2 RES2    0.0000
@<TRIPOS>BOND
     1    1    8 1
     2    2    4 1
     3    3    6 1
     4    4    6 ar
     5    5   18 1
     6    6   16 ar
     7    7    4 ar
     8    8    9 ar
     9    9    7 1
    10   10    7 ar
    11   11   10 1
    12   12    9 ar
    13   13   12 1
    14   14   12 ar
    15   15   14 1
    16   16   17 1
    17   18    8 ar
    18   19   10 ar
    19   20   19 1
    20   21   22 1
    21   23    5 ar
    22   24    3 ar
    23   25   14 ar
    24   26   25 1
    25   27    5 ar
    26   28   27 1
    27   29   27 ar
    28   30   29 1
    29   31   32 1
    30   33    3 ar
    31   34   33 1
    32   35   31 ar
    33   36   35 1
    34   37   24 ar
    35   38   37 1
    36   39   21 ar
    37   40   39 1
    38   41   23 1
    39   42   41 1
    40   43   41 1
    41   44   41 1
    42   45   24 1
    43   46   45 1
    44   47   45 1
    45   48   45 1
    46   49   52 1
    47   50   51 1
    48   52   53 ar
    49   53   55 1
    50   54   50 ar
    51   55   50 ar
    52   56   55 ar
    53   57   56 1
    54   58   52 ar
    55   59   60 1
    56   61   53 ar
    57   62   61 1
    58   63   58 ar
    59   64   63 1
    60   65   66 1
    61   67   71 ar
    62   68   69 ar
    63   69   70 1
    64   71   54 1
    65   72   67 ar
    66   73   72 1
    67   74   58 1
    68   75   54 ar
    69   76   75 1
    70   77   68 1
    71   78   77 1
    72   79   77 1
    73   80   77 1
    74   81   72 ar
    75   82   81 1
    76   83   56 ar
    77   84   83 1
    78   85   65 ar
    79   86   85 1
    80   87   69 ar
    81   88   87 1
    82   89   87 ar
    83   90   89 1
    84   91   74 ar
    85   92   91 1
    86   93   67 1
    87   94   93 1
    88   95   93 1
    89   96   93 1
    90   16   19 ar
    91   18   25 ar
    92   21   23 ar
    93   29   39 ar
    94   31   37 ar
    95   33   35 ar
    96   59   61 ar
    97   59   63 ar
    98   65   71 ar
    99   68   74 ar
   100   75   83 ar
   101   81   85 ar
   102   89   91 ar
@<TRIPOS>SUBSTRUCTURE
     1 RES1 1
     2 RES2 49

@<TRIPOS>CRYSIN
  10.4790   13.5240   13.3920  90.0000  91.9610  90.0000   4 1

