# MOL2 file generated by ConQuest
# Please check atom types

@<TRIPOS>MOLECULE
QEBBUW
    22    23     1
SMALL
NO_CHARGES
****
Generated from CSD

@<TRIPOS>ATOM
      1 H1         1.4560    4.2351   -2.7005 H         1 RES1    0.0000
      2 H2         1.2828    2.0451   -3.4530 H         1 RES1    0.0000
      3 H3         1.9915    0.2651   -1.9900 H         1 RES1    0.0000
      4 H4         2.8431    0.9071    0.1637 H         1 RES1    0.0000
      5 H5         3.0687    5.3496    0.9062 H         1 RES1    0.0000
      6 H6         3.9932    5.9351    3.0139 H         1 RES1    0.0000
      7 H7         4.4865    4.1680    4.5488 H         1 RES1    0.0000
      8 C1         1.7141    3.5275   -2.1486 C.ar      1 RES1    0.0000
      9 C2         1.6220    2.2177   -2.5776 C.ar      1 RES1    0.0000
     10 C3         2.0355    1.2134   -1.7247 C.ar      1 RES1    0.0000
     11 C4         2.5228    1.5621   -0.4792 C.ar      1 RES1    0.0000
     12 C5         2.5742    2.9051   -0.1184 C.ar      1 RES1    0.0000
     13 C6         3.0896    3.3253    1.2093 C.ar      1 RES1    0.0000
     14 C7         3.2972    4.6761    1.5287 C.ar      1 RES1    0.0000
     15 C8         3.8200    5.0036    2.7628 C.ar      1 RES1    0.0000
     16 C9         4.1188    4.0005    3.6728 C.ar      1 RES1    0.0000
     17 C10        3.8578    2.7137    3.2508 C.ar      1 RES1    0.0000
     18 N1         2.1771    3.8951   -0.9495 N.ar      1 RES1    0.0000
     19 N2         3.3618    2.3446    2.0892 N.ar      1 RES1    0.0000
     20 N3         4.1456    1.5906    4.1877 N.pl3     1 RES1    0.0000
     21 O1         3.6501    0.4953    3.9730 O.2       1 RES1    0.0000
     22 O2         4.8774    1.8452    5.1466 O.2       1 RES1    0.0000
@<TRIPOS>BOND
     1    1    8 1
     2    2    9 1
     3    3   10 1
     4    4   11 1
     5    5   14 1
     6    6   15 1
     7    7   16 1
     8    8    9 ar
     9    9   10 ar
    10   10   11 ar
    11   11   12 ar
    12   12   13 1
    13   13   14 ar
    14   14   15 ar
    15   15   16 ar
    16   16   17 ar
    17   17   19 ar
    18   18    8 ar
    19   19   13 ar
    20   20   17 1
    21   21   20 2
    22   22   20 2
    23   12   18 ar
@<TRIPOS>SUBSTRUCTURE
     1 RES1 1

@<TRIPOS>CRYSIN
   3.7128   11.7806   19.9856  90.0000  92.9250  90.0000 231 1

