# MOL2 file generated by ConQuest
# Please check atom types

@<TRIPOS>MOLECULE
QEBBAA
    49    54     1
SMALL
NO_CHARGES
****
Generated from CSD

@<TRIPOS>ATOM
      1 O1        -7.2750    1.7228   -2.6703 O.2       1 RES1    0.0000
      2 C1        -5.0021    1.7228   -2.2545 C.ar      1 RES1    0.0000
      3 N1        -6.1521    1.7228   -3.1613 N.pl3     1 RES1    0.0000
      4 C2        -5.2387    1.7228   -0.8876 C.ar      1 RES1    0.0000
      5 H1        -6.1156    1.7228   -0.5487 H         1 RES1    0.0000
      6 O2        -5.9480    1.7228   -4.3625 O.2       1 RES1    0.0000
      7 C3        -4.1526    1.7228   -0.0424 C.ar      1 RES1    0.0000
      8 C4        -2.8425    1.7228   -0.5579 C.ar      1 RES1    0.0000
      9 C5        -2.6272    1.7228   -1.9341 C.ar      1 RES1    0.0000
     10 H2        -1.7529    1.7228   -2.2784 H         1 RES1    0.0000
     11 C6        -3.7163    1.7228   -2.7872 C.ar      1 RES1    0.0000
     12 H3        -3.5891    1.7228   -3.7191 H         1 RES1    0.0000
     13 C7        -4.1175    1.7228    1.4620 C.3       1 RES1    0.0000
     14 H4        -4.5529    0.9241    1.8266 H         1 RES1    0.0000
     15 H5        -4.5529    2.5216    1.8266 H         1 RES1    0.0000
     16 C8        -2.6331    1.7229    1.7591 C.ar      1 RES1    0.0000
     17 C9        -1.9073    1.7228    0.5628 C.ar      1 RES1    0.0000
     18 C10       -0.5192    1.7228    0.5945 C.ar      1 RES1    0.0000
     19 H6        -0.0223    1.7228   -0.2039 H         1 RES1    0.0000
     20 C11        0.1155    1.7229    1.8163 C.ar      1 RES1    0.0000
     21 H7         1.0550    1.7229    1.8368 H         1 RES1    0.0000
     22 C12       -0.5876    1.7229    3.0353 C.ar      1 RES1    0.0000
     23 C13       -1.9812    1.7229    2.9838 C.ar      1 RES1    0.0000
     24 H8        -2.4795    1.7229    3.7808 H         1 RES1    0.0000
     25 C14        0.1934    1.7229    4.3518 C.3       1 RES1    0.0000
     26 C15       -0.7333    1.7229    5.5860 C.3       1 RES1    0.0000
     27 H9        -1.3458    0.9097    5.5604 H         1 RES1    0.0000
     28 C16        0.1003    1.7229    6.8755 C.3       1 RES1    0.0000
     29 H10       -0.5046    1.7229    7.6730 H         1 RES1    0.0000
     30 C17        0.9776    0.4741    6.9261 C.3       1 RES1    0.0000
     31 H11        0.4166   -0.3928    6.9321 H         1 RES1    0.0000
     32 H12        1.5105    0.4617    7.7698 H         1 RES1    0.0000
     33 C18        1.9239    0.4741    5.7241 C.3       1 RES1    0.0000
     34 H13        2.4937   -0.3515    5.7379 H         1 RES1    0.0000
     35 C19        1.0900    0.4686    4.4308 C.3       1 RES1    0.0000
     36 H14        0.5090   -0.3790    4.3955 H         1 RES1    0.0000
     37 H15        1.6957    0.4273    3.6737 H         1 RES1    0.0000
     38 C20        2.8014    1.7229    5.7555 C.3       1 RES1    0.0000
     39 H16        3.4078    1.7229    6.5433 H         1 RES1    0.0000
     40 H17        3.3826    1.7229    4.9882 H         1 RES1    0.0000
     41 H9A       -1.3458    2.5360    5.5604 H         1 RES1    0.0000
     42 C19A       1.0900    2.9771    4.4308 C.3       1 RES1    0.0000
     43 C18A       1.9239    2.9716    5.7241 C.3       1 RES1    0.0000
     44 C17A       0.9776    2.9716    6.9261 C.3       1 RES1    0.0000
     45 H13A       2.4937    3.7972    5.7379 H         1 RES1    0.0000
     46 H14A       0.5090    3.8247    4.3955 H         1 RES1    0.0000
     47 H15A       1.6957    3.0184    3.6737 H         1 RES1    0.0000
     48 H11A       0.4166    3.8385    6.9321 H         1 RES1    0.0000
     49 H12A       1.5105    2.9840    7.7698 H         1 RES1    0.0000
@<TRIPOS>BOND
     1    1    3 2
     2    2    3 1
     3    3    6 2
     4    4    2 ar
     5    5    4 1
     6    7    4 ar
     7    8    7 ar
     8    9    8 ar
     9   10    9 1
    10   11    2 ar
    11   12   11 1
    12   13    7 1
    13   14   13 1
    14   15   13 1
    15   16   13 1
    16   17    8 1
    17   18   17 ar
    18   19   18 1
    19   20   18 ar
    20   21   20 1
    21   22   20 ar
    22   23   16 ar
    23   24   23 1
    24   25   22 1
    25   26   25 1
    26   27   26 1
    27   28   26 1
    28   29   28 1
    29   30   28 1
    30   31   30 1
    31   32   30 1
    32   33   30 1
    33   34   33 1
    34   35   25 1
    35   36   35 1
    36   37   35 1
    37   38   33 1
    38   39   38 1
    39   40   38 1
    40   41   26 1
    41   42   25 1
    42   43   38 1
    43   44   28 1
    44   45   43 1
    45   46   42 1
    46   47   42 1
    47   48   44 1
    48   49   44 1
    49    9   11 ar
    50   16   17 ar
    51   22   23 ar
    52   33   35 1
    53   42   43 1
    54   43   44 1
@<TRIPOS>SUBSTRUCTURE
     1 RES1 1

@<TRIPOS>CRYSIN
   8.3847    6.8914   14.8257  90.0000  98.2800  90.0000  11 1

