# MOL2 file generated by ConQuest
# Please check atom types

@<TRIPOS>MOLECULE
QEBDAF
    31    31     1
SMALL
USER_CHARGES
****
Generated from CSD

@<TRIPOS>ATOM
      1 O1         2.3785    8.2510   13.7274 O.2       1 RES1    0.0000
      2 O2         0.7133    7.0719   12.9907 O.2       1 RES1    0.0000
      3 O3         2.0745    3.9861    6.4021 O.2       1 RES1   -1.0000
      4 O4         0.9556    5.4512    4.6951 O.3       1 RES1    0.0000
      5 O5         4.4307    5.5330    7.5938 O.2       1 RES1   -1.0000
      6 O6         4.8467    4.5119    9.8291 O.3       1 RES1    0.0000
      7 N1         2.4076    7.6516    9.4201 N.3       1 RES1    0.0000
      8 N2         1.5935    7.3710   10.4520 N.2       1 RES1    0.0000
      9 N3         1.7452    7.7056   12.8196 N.pl3     1 RES1    0.0000
     10 N4         1.8578    5.2062    6.6321 N.pl3     1 RES1    1.0000
     11 N5         1.3227    6.0699    5.8616 N.2       1 RES1    0.0000
     12 N6         3.4785    5.2731    8.3633 N.pl3     1 RES1    1.0000
     13 N7         3.5260    4.7478    9.5298 N.2       1 RES1    0.0000
     14 C1         3.5661    8.2433    9.7979 C.2       1 RES1    0.0000
     15 H1         4.2779    8.5063    9.2266 H         1 RES1    0.0000
     16 C2         3.5180    8.3904   11.1594 C.2       1 RES1    0.0000
     17 H2         4.1643    8.7797   11.7377 H         1 RES1    0.0000
     18 C3         2.2883    7.8295   11.4871 C.2       1 RES1    0.0000
     19 C4         2.0414    7.2387    8.0731 C.3       1 RES1    0.0000
     20 H3         2.6613    7.6422    7.4162 H         1 RES1    0.0000
     21 H4         1.1229    7.5420    7.8642 H         1 RES1    0.0000
     22 C5         2.1180    5.7187    7.9968 C.3       1 RES1    0.0000
     23 H5         1.4561    5.3214    8.6327 H         1 RES1    0.0000
     24 C6         0.0868    6.3689    3.9842 C.3       1 RES1    0.0000
     25 H6        -0.1052    6.0123    3.0920 H         1 RES1    0.0000
     26 H7         0.5296    7.2387    3.8996 H         1 RES1    0.0000
     27 H8        -0.7516    6.4757    4.4805 H         1 RES1    0.0000
     28 C7         4.9398    4.2101   11.2373 C.3       1 RES1    0.0000
     29 H9         5.8615    3.9611   11.4590 H         1 RES1    0.0000
     30 H10        4.3404    3.4649   11.4512 H         1 RES1    0.0000
     31 H11        4.6800    4.9984   11.7586 H         1 RES1    0.0000
@<TRIPOS>BOND
     1    1    9 2
     2    2    9 2
     3    3   10 1
     4    4   11 1
     5    5   12 1
     6    6   13 1
     7    7    8 1
     8    8   18 2
     9    9   18 1
    10   10   11 2
    11   12   13 2
    12   14    7 1
    13   15   14 1
    14   16   14 2
    15   17   16 1
    16   18   16 1
    17   19    7 1
    18   20   19 1
    19   21   19 1
    20   22   10 1
    21   23   22 1
    22   24    4 1
    23   25   24 1
    24   26   24 1
    25   27   24 1
    26   28    6 1
    27   29   28 1
    28   30   28 1
    29   31   28 1
    30   12   22 1
    31   19   22 1
@<TRIPOS>SUBSTRUCTURE
     1 RES1 1

@<TRIPOS>CRYSIN
   5.2745    9.3620   26.1420  90.0000  94.8310  90.0000 231 1

