# MOL2 file generated by ConQuest
# Please check atom types

@<TRIPOS>MOLECULE
QEBLEQ
    57    59     1
SMALL
NO_CHARGES
****
Generated from CSD

@<TRIPOS>ATOM
      1 O1         7.3722    0.3408    1.6263 O.2       1 RES1    0.0000
      2 O2        12.2552    5.5084    3.3214 O.3       1 RES1    0.0000
      3 O3        12.9856    4.2485    1.6205 O.2       1 RES1    0.0000
      4 O4        12.1473    0.8996    6.1408 O.3       1 RES1    0.0000
      5 O5        10.2125    1.1365    7.2900 O.2       1 RES1    0.0000
      6 O6         8.5701    8.0653    8.2543 O.2       1 RES1    0.0000
      7 O7         7.4826    6.8058    9.6379 O.2       1 RES1    0.0000
      8 N1         8.6524    1.8476    2.7904 N.am      1 RES1    0.0000
      9 N2         8.4878    2.9135    3.7589 N.3       1 RES1    0.0000
     10 N3         8.1129    6.9810    8.5915 N.pl3     1 RES1    0.0000
     11 C1         7.4697    1.2110    2.4805 C.2       1 RES1    0.0000
     12 C2         6.3947    1.8216    3.3297 C.3       1 RES1    0.0000
     13 H1         6.2142    1.2828    4.1160 H         1 RES1    0.0000
     14 H2         5.5741    1.9450    2.8285 H         1 RES1    0.0000
     15 C3         7.0289    3.1661    3.7042 C.3       1 RES1    0.0000
     16 H3         6.8239    3.8383    3.0373 H         1 RES1    0.0000
     17 H4         6.7022    3.4696    4.5659 H         1 RES1    0.0000
     18 C4         8.9273    2.4621    5.1135 C.3       1 RES1    0.0000
     19 H5         8.3585    1.7231    5.4142 H         1 RES1    0.0000
     20 C5        10.3999    1.9750    5.0108 C.3       1 RES1    0.0000
     21 H6        10.4138    1.2828    4.3156 H         1 RES1    0.0000
     22 C6        11.3369    3.0710    4.5427 C.2       1 RES1    0.0000
     23 C7        11.4816    3.2728    3.1997 C.2       1 RES1    0.0000
     24 C8        10.9669    2.3871    2.1475 C.2       1 RES1    0.0000
     25 H7        11.5676    2.2353    1.4532 H         1 RES1    0.0000
     26 C9         9.7931    1.7598    2.0000 C.2       1 RES1    0.0000
     27 H8         9.7331    1.1860    1.2701 H         1 RES1    0.0000
     28 C10       12.3333    4.3587    2.6338 C.2       1 RES1    0.0000
     29 C11       12.9453    6.6624    2.7655 C.3       1 RES1    0.0000
     30 H9        13.7353    6.3705    2.2842 H         1 RES1    0.0000
     31 H10       13.2290    7.2512    3.4838 H         1 RES1    0.0000
     32 C12       12.0353    7.4064    1.8368 C.3       1 RES1    0.0000
     33 H11       11.8480    6.8609    1.0688 H         1 RES1    0.0000
     34 H12       12.4602    8.2204    1.5559 H         1 RES1    0.0000
     35 H13       11.2150    7.6132    2.2900 H         1 RES1    0.0000
     36 C13       12.0406    3.8750    5.5982 C.3       1 RES1    0.0000
     37 H14       12.9795    3.6748    5.5799 H         1 RES1    0.0000
     38 H15       11.6837    3.6548    6.4615 H         1 RES1    0.0000
     39 H16       11.9103    4.8108    5.4283 H         1 RES1    0.0000
     40 C14       10.8694    1.3078    6.2850 C.2       1 RES1    0.0000
     41 C15       12.8073    0.2919    7.3040 C.3       1 RES1    0.0000
     42 H17       13.4375   -0.3820    7.0049 H         1 RES1    0.0000
     43 H18       12.1454   -0.1418    7.8641 H         1 RES1    0.0000
     44 C16       13.5316    1.3395    8.0986 C.3       1 RES1    0.0000
     45 H19       14.1518    1.7999    7.5294 H         1 RES1    0.0000
     46 H20       14.0091    0.9208    8.8194 H         1 RES1    0.0000
     47 H21       12.8973    1.9650    8.4556 H         1 RES1    0.0000
     48 C17        8.7349    3.6665    6.0381 C.ar      1 RES1    0.0000
     49 C18        8.2388    3.4713    7.3281 C.ar      1 RES1    0.0000
     50 H22        8.0415    2.6106    7.6205 H         1 RES1    0.0000
     51 C19        8.0344    4.5539    8.1814 C.ar      1 RES1    0.0000
     52 H23        7.7152    4.4305    9.0464 H         1 RES1    0.0000
     53 C20        8.3192    5.8167    7.7025 C.ar      1 RES1    0.0000
     54 C21        8.7871    6.0669    6.4267 C.ar      1 RES1    0.0000
     55 H24        8.9561    6.9326    6.1325 H         1 RES1    0.0000
     56 C22        8.9939    4.9626    5.5973 C.ar      1 RES1    0.0000
     57 H25        9.3129    5.0944    4.7340 H         1 RES1    0.0000
@<TRIPOS>BOND
     1    1   11 2
     2    2   28 1
     3    3   28 2
     4    4   40 1
     5    5   40 2
     6    6   10 2
     7    7   10 2
     8    8    9 1
     9    9   15 1
    10   10   53 1
    11   11    8 1
    12   12   11 1
    13   13   12 1
    14   14   12 1
    15   15   12 1
    16   16   15 1
    17   17   15 1
    18   18    9 1
    19   19   18 1
    20   20   18 1
    21   21   20 1
    22   22   20 1
    23   23   22 2
    24   24   23 1
    25   25   24 1
    26   26    8 1
    27   27   26 1
    28   28   23 1
    29   29    2 1
    30   30   29 1
    31   31   29 1
    32   32   29 1
    33   33   32 1
    34   34   32 1
    35   35   32 1
    36   36   22 1
    37   37   36 1
    38   38   36 1
    39   39   36 1
    40   40   20 1
    41   41    4 1
    42   42   41 1
    43   43   41 1
    44   44   41 1
    45   45   44 1
    46   46   44 1
    47   47   44 1
    48   48   18 1
    49   49   48 ar
    50   50   49 1
    51   51   49 ar
    52   52   51 1
    53   53   51 ar
    54   54   53 ar
    55   55   54 1
    56   56   48 ar
    57   57   56 1
    58   24   26 2
    59   54   56 ar
@<TRIPOS>SUBSTRUCTURE
     1 RES1 1

@<TRIPOS>CRYSIN
  15.7780   16.6810    8.3240  90.0000  95.5500  90.0000   9 1

