# MOL2 file generated by ConQuest
# Please check atom types

@<TRIPOS>MOLECULE
QEBWID
    38    39     1
SMALL
NO_CHARGES
****
Generated from CSD

@<TRIPOS>ATOM
      1 O1         9.3861    3.0056    4.1533 O.3       1 RES1    0.0000
      2 C1         8.5519    2.1646    3.3590 C.3       1 RES1    0.0000
      3 C2         9.4889    1.7041    2.2350 C.3       1 RES1    0.0000
      4 C3        10.8646    1.5380    2.9375 C.3       1 RES1    0.0000
      5 C4        10.6425    2.3242    4.2489 C.3       1 RES1    0.0000
      6 C5         7.3695    2.9170    2.8270 C.ar      1 RES1    0.0000
      7 C6         6.1628    2.2500    2.6246 C.ar      1 RES1    0.0000
      8 C7         5.0943    2.8929    2.0120 C.ar      1 RES1    0.0000
      9 C8         5.2600    4.2127    1.6374 C.ar      1 RES1    0.0000
     10 C9         6.4420    4.9019    1.8303 C.ar      1 RES1    0.0000
     11 C10        7.4991    4.2439    2.4242 C.ar      1 RES1    0.0000
     12 N1         4.1328    4.9227    1.0322 N.pl3     1 RES1    0.0000
     13 O2         4.2175    6.1317    0.8655 O.2       1 RES1    0.0000
     14 O3         3.1379    4.2817    0.7175 O.2       1 RES1    0.0000
     15 O4         9.0053    0.5218    1.6186 O.3       1 RES1    0.0000
     16 C11       11.1525    0.0612    3.2185 C.3       1 RES1    0.0000
     17 C12       12.4714   -0.1948    3.9435 C.3       1 RES1    0.0000
     18 C13       11.9687    2.2154    2.1113 C.3       1 RES1    0.0000
     19 C14       12.2018    1.5907    0.7456 C.3       1 RES1    0.0000
     20 H1         8.2464    1.3777    3.8948 H         1 RES1    0.0000
     21 H2         9.5569    2.4272    1.5474 H         1 RES1    0.0000
     22 H3        10.6339    1.7034    5.0207 H         1 RES1    0.0000
     23 H4        11.3740    2.9776    4.3819 H         1 RES1    0.0000
     24 H5         6.0698    1.3484    2.9075 H         1 RES1    0.0000
     25 H6         4.2748    2.4382    1.8565 H         1 RES1    0.0000
     26 H7         6.5261    5.8086    1.5587 H         1 RES1    0.0000
     27 H8         8.3204    4.6999    2.5610 H         1 RES1    0.0000
     28 H9         8.6978    0.7556    0.8674 H         1 RES1    0.0000
     29 H10       10.4131   -0.3088    3.7618 H         1 RES1    0.0000
     30 H11       11.1646   -0.4280    2.3567 H         1 RES1    0.0000
     31 H12       12.5825   -1.1576    4.0897 H         1 RES1    0.0000
     32 H13       12.4636    0.2677    4.8072 H         1 RES1    0.0000
     33 H14       13.2142    0.1407    3.4002 H         1 RES1    0.0000
     34 H15       11.7317    3.1685    1.9877 H         1 RES1    0.0000
     35 H16       12.8156    2.1816    2.6246 H         1 RES1    0.0000
     36 H17       12.9166    2.0754    0.2810 H         1 RES1    0.0000
     37 H18       11.3775    1.6416    0.2173 H         1 RES1    0.0000
     38 H19       12.4626    0.6521    0.8543 H         1 RES1    0.0000
@<TRIPOS>BOND
     1    1    2 1
     2    2    3 1
     3    3    4 1
     4    4    5 1
     5    5    1 1
     6    6    2 1
     7    7    6 ar
     8    8    7 ar
     9    9    8 ar
    10   10    9 ar
    11   11    6 ar
    12   12    9 1
    13   13   12 2
    14   14   12 2
    15   15    3 1
    16   16    4 1
    17   17   16 1
    18   18    4 1
    19   19   18 1
    20   20    2 1
    21   21    3 1
    22   22    5 1
    23   23    5 1
    24   24    7 1
    25   25    8 1
    26   26   10 1
    27   27   11 1
    28   28   15 1
    29   29   16 1
    30   30   16 1
    31   31   17 1
    32   32   17 1
    33   33   17 1
    34   34   18 1
    35   35   18 1
    36   36   19 1
    37   37   19 1
    38   38   19 1
    39   10   11 ar
@<TRIPOS>SUBSTRUCTURE
     1 RES1 1

@<TRIPOS>CRYSIN
  11.1344    6.5141   18.8286  90.0000  95.7430  90.0000 231 1

