# MOL2 file generated by ConQuest
# Please check atom types

@<TRIPOS>MOLECULE
QEBWUP
    29    30     1
SMALL
NO_CHARGES
****
Generated from CSD

@<TRIPOS>ATOM
      1 O1         8.7748   -1.8431   15.3472 O.2       1 RES1    0.0000
      2 O2         7.8531   -0.6107   13.8757 O.2       1 RES1    0.0000
      3 N1         8.8150   -1.2344   14.2956 N.pl3     1 RES1    0.0000
      4 C1        10.0782   -1.2042   13.5446 C.ar      1 RES1    0.0000
      5 C2        11.1634   -1.8139   14.1477 C.ar      1 RES1    0.0000
      6 C3        12.3943   -1.7877   13.5379 C.ar      1 RES1    0.0000
      7 C4        12.5415   -1.1327   12.3356 C.ar      1 RES1    0.0000
      8 C5        11.4653   -0.5200   11.7287 C.ar      1 RES1    0.0000
      9 C6        10.2004   -0.5603   12.3098 C.ar      1 RES1    0.0000
     10 N2         9.1112    0.0615   11.6781 N.am      1 RES1    0.0000
     11 C7         8.9314    0.1048   10.3479 C.2       1 RES1    0.0000
     12 O3         9.6416   -0.2348    9.4604 O.2       1 RES1    0.0000
     13 O4         7.6698    0.6802   10.1399 O.3       1 RES1    0.0000
     14 N3         7.2813    0.5754    8.8182 N.am      1 RES1    0.0000
     15 C8         7.3919    1.6244    7.9394 C.2       1 RES1    0.0000
     16 O5         7.8823    2.6906    8.2189 O.2       1 RES1    0.0000
     17 C9         6.8002    1.1296    6.6530 C.3       1 RES1    0.0000
     18 C10        6.3704   -0.3063    6.9078 C.3       1 RES1    0.0000
     19 C11        6.7000   -0.5855    8.3401 C.2       1 RES1    0.0000
     20 O6         6.5325   -1.5609    9.0196 O.2       1 RES1    0.0000
     21 H1        11.0043   -2.2169   14.9913 H         1 RES1    0.0000
     22 H2        13.1587   -2.1766   13.9511 H         1 RES1    0.0000
     23 H3        13.4321   -1.0883   11.9090 H         1 RES1    0.0000
     24 H4        11.5811   -0.0605   10.8784 H         1 RES1    0.0000
     25 H5         8.3205    0.2701   12.2354 H         1 RES1    0.0000
     26 H6         7.4929    1.1992    5.9545 H         1 RES1    0.0000
     27 H7         6.0636    1.6224    6.5080 H         1 RES1    0.0000
     28 H8         5.4428   -0.4736    6.7847 H         1 RES1    0.0000
     29 H9         6.8206   -0.9170    6.3458 H         1 RES1    0.0000
@<TRIPOS>BOND
     1    1    3 2
     2    2    3 2
     3    3    4 1
     4    4    5 ar
     5    5    6 ar
     6    6    7 ar
     7    7    8 ar
     8    8    9 ar
     9    9    4 ar
    10   10    9 1
    11   11   10 1
    12   12   11 2
    13   13   11 1
    14   14   13 1
    15   15   14 1
    16   16   15 2
    17   17   15 1
    18   18   17 1
    19   19   14 1
    20   20   19 2
    21   21    5 1
    22   22    6 1
    23   23    7 1
    24   24    8 1
    25   25   10 1
    26   26   17 1
    27   27   17 1
    28   28   18 1
    29   29   18 1
    30   18   19 1
@<TRIPOS>SUBSTRUCTURE
     1 RES1 1

@<TRIPOS>CRYSIN
  12.5300   10.0770    9.5720  90.0000  94.5000  90.0000  14 1

