# MOL2 file generated by ConQuest
# Please check atom types

@<TRIPOS>MOLECULE
QEBZUS
    22    22     2
SMALL
NO_CHARGES
****
Generated from CSD

@<TRIPOS>ATOM
      1 C1         4.8643    0.8301    3.3615 C.3       1 RES1    0.0000
      2 O1         3.9335    0.8951    4.3899 O.3       1 RES1    0.0000
      3 C2         5.8587   -0.2893    3.5070 C.3       1 RES1    0.0000
      4 O2         6.5587   -0.0743    4.7365 O.3       1 RES1    0.0000
      5 C3         5.2144   -1.6454    3.5586 C.3       1 RES1    0.0000
      6 C4         6.0002   -2.8693    3.1656 C.3       1 RES1    0.0000
      7 C5         4.8721   -2.4260    2.3229 C.3       1 RES1    0.0000
      8 C6         3.5880   -3.2189    2.2672 C.3       1 RES1    0.0000
      9 N1         5.2102   -1.7971    1.0397 N.pl3     1 RES1    0.0000
     10 O3         6.3541   -1.6950    0.6808 O.2       1 RES1    0.0000
     11 O4         4.2772   -1.3097    0.3981 O.2       1 RES1    0.0000
     12 C7         6.5612    2.5274    6.7778 C.3       2 RES2    0.0000
     13 O5         7.2478    2.3618    5.5802 O.3       2 RES2    0.0000
     14 C8         5.5457    3.6359    6.7076 C.3       2 RES2    0.0000
     15 O6         4.4424    3.1547    5.9227 O.3       2 RES2    0.0000
     16 C9         5.0720    4.0792    8.0289 C.3       2 RES2    0.0000
     17 C10        4.6772    5.5111    8.2651 C.3       2 RES2    0.0000
     18 C11        5.8732    4.9619    8.9933 C.3       2 RES2    0.0000
     19 C12        5.8485    4.7012   10.4209 C.3       2 RES2    0.0000
     20 N2         7.1695    5.4446    8.4776 N.pl3     2 RES2    0.0000
     21 O7         7.2604    6.0078    7.4967 O.2       2 RES2    0.0000
     22 O8         8.1284    5.1398    9.1738 O.2       2 RES2    0.0000
@<TRIPOS>BOND
     1    1    2 1
     2    3    1 1
     3    4    3 1
     4    5    3 1
     5    6    5 1
     6    7    5 1
     7    8    7 1
     8    9    7 1
     9   10    9 2
    10   11    9 2
    11   12   13 1
    12   14   12 1
    13   15   14 1
    14   16   14 1
    15   17   16 1
    16   18   16 1
    17   19   18 1
    18   20   18 1
    19   21   20 2
    20   22   20 2
    21    6    7 1
    22   17   18 1
@<TRIPOS>SUBSTRUCTURE
     1 RES1 1
     2 RES2 12

@<TRIPOS>CRYSIN
   9.9020    7.7360   10.9600  90.0000 109.7600  90.0000   4 1

