# MOL2 file generated by ConQuest
# Please check atom types

@<TRIPOS>MOLECULE
QECBAB
    22    22     1
SMALL
NO_CHARGES
****
Generated from CSD

@<TRIPOS>ATOM
      1 C1         0.5715   -2.1909  -13.9548 C.3       1 RES1    0.0000
      2 O1         1.3530   -1.3404  -14.8427 O.3       1 RES1    0.0000
      3 C2        -0.8366   -1.6098  -13.9405 C.3       1 RES1    0.0000
      4 O2        -1.6181   -1.8545  -15.1034 O.3       1 RES1    0.0000
      5 C3        -1.1591   -0.9969  -12.5699 C.3       1 RES1    0.0000
      6 C4        -2.2390   -0.0195  -12.2420 C.3       1 RES1    0.0000
      7 C5        -0.8653    0.2082  -11.7084 C.3       1 RES1    0.0000
      8 C6        -0.0918    1.4315  -12.1442 C.3       1 RES1    0.0000
      9 N1        -0.7195   -0.1204  -10.2726 N.pl3     1 RES1    0.0000
     10 O3        -1.4523   -0.9767   -9.7818 O.2       1 RES1    0.0000
     11 O4         0.1125    0.5043   -9.6270 O.2       1 RES1    0.0000
     12 H1         0.9502   -2.1877  -13.0628 H         1 RES1    0.0000
     13 H2         0.5589   -3.1032  -14.2827 H         1 RES1    0.0000
     14 H3         1.2279   -0.7223  -14.4191 H         1 RES1    0.0000
     15 H4        -0.5227   -0.7496  -14.2908 H         1 RES1    0.0000
     16 H5        -1.4919   -2.6093  -15.3560 H         1 RES1    0.0000
     17 H6        -1.2756   -1.7504  -11.9548 H         1 RES1    0.0000
     18 H7        -2.5500    0.5642  -12.9507 H         1 RES1    0.0000
     19 H8        -2.9247   -0.2987  -11.6147 H         1 RES1    0.0000
     20 H9         0.7643    1.4406  -11.7084 H         1 RES1    0.0000
     21 H10       -0.5801    2.2221  -11.9039 H         1 RES1    0.0000
     22 H11        0.0350    1.4101  -13.0953 H         1 RES1    0.0000
@<TRIPOS>BOND
     1    1    2 1
     2    2   14 1
     3    3    1 1
     4    4    3 1
     5    5    3 1
     6    6    5 1
     7    7    5 1
     8    8    7 1
     9    9    7 1
    10   10    9 2
    11   11    9 2
    12   12    1 1
    13   13    1 1
    14   15    3 1
    15   16    4 1
    16   17    5 1
    17   18    6 1
    18   19    6 1
    19   20    8 1
    20   21    8 1
    21   22    8 1
    22    6    7 1
@<TRIPOS>SUBSTRUCTURE
     1 RES1 1

@<TRIPOS>CRYSIN
   5.7380    6.5070   20.3660  90.0000  90.0000  90.0000  19 1

