# MOL2 file generated by ConQuest
# Please check atom types

@<TRIPOS>MOLECULE
QECLUH
    39    41     1
SMALL
NO_CHARGES
****
Generated from CSD

@<TRIPOS>ATOM
      1 N1        -1.7724    2.3467   -3.4833 N.pl3     1 RES1    0.0000
      2 N2         2.2700    4.1124    4.2620 N.2       1 RES1    0.0000
      3 N3         1.0955    4.2287    9.0515 N.pl3     1 RES1    0.0000
      4 O1        -2.9174    2.1674   -3.0767 O.2       1 RES1    0.0000
      5 O2        -1.4313    2.1456   -4.6465 O.2       1 RES1    0.0000
      6 O3         1.9562    4.1249    1.4565 O.3       1 RES1    0.0000
      7 O4        -0.0826    4.4360    8.8382 O.2       1 RES1    0.0000
      8 O5         1.5738    4.2371   10.1841 O.2       1 RES1    0.0000
      9 C1        -0.7636    2.8337   -2.5418 C.ar      1 RES1    0.0000
     10 C2         0.4782    3.2005   -3.0325 C.ar      1 RES1    0.0000
     11 H1         0.6715    3.1261   -3.9390 H         1 RES1    0.0000
     12 C3         1.4223    3.6785   -2.1470 C.ar      1 RES1    0.0000
     13 H2         2.2581    3.9392   -2.4598 H         1 RES1    0.0000
     14 C4         1.1320    3.7746   -0.7842 C.ar      1 RES1    0.0000
     15 C5        -0.1312    3.3853   -0.3141 C.ar      1 RES1    0.0000
     16 H3        -0.3250    3.4386    0.5939 H         1 RES1    0.0000
     17 C6        -1.0879    2.9225   -1.1985 C.ar      1 RES1    0.0000
     18 H4        -1.9320    2.6758   -0.8979 H         1 RES1    0.0000
     19 C7         2.1582    4.2810    0.1109 C.2       1 RES1    0.0000
     20 C8         3.3428    4.9138   -0.1223 C.2       1 RES1    0.0000
     21 H5         3.7014    5.1389   -0.9511 H         1 RES1    0.0000
     22 C9         3.9184    5.1607    1.1447 C.2       1 RES1    0.0000
     23 H6         4.7314    5.5799    1.3111 H         1 RES1    0.0000
     24 C10        3.0532    4.6671    2.0750 C.2       1 RES1    0.0000
     25 C11        3.1892    4.5725    3.5019 C.2       1 RES1    0.0000
     26 H7         3.9838    4.8593    3.8914 H         1 RES1    0.0000
     27 C12        2.6012    3.9097    5.6222 C.ar      1 RES1    0.0000
     28 C13        3.8194    3.3265    5.9667 C.ar      1 RES1    0.0000
     29 H8         4.4314    3.1127    5.2991 H         1 RES1    0.0000
     30 C14        4.1299    3.0611    7.2902 C.ar      1 RES1    0.0000
     31 H9         4.9498    2.6810    7.5096 H         1 RES1    0.0000
     32 C15        3.2201    3.3620    8.2798 C.ar      1 RES1    0.0000
     33 H10        3.4157    3.1857    9.1723 H         1 RES1    0.0000
     34 C16        2.0008    3.9353    7.9208 C.ar      1 RES1    0.0000
     35 C17        1.6326    4.2328    6.6040 C.ar      1 RES1    0.0000
     36 C18        0.3564    4.8915    6.1586 C.3       1 RES1    0.0000
     37 H11        0.2789    5.7526    6.5752 H         1 RES1    0.0000
     38 H12       -0.3909    4.3453    6.4113 H         1 RES1    0.0000
     39 H13        0.3668    4.9970    5.2039 H         1 RES1    0.0000
@<TRIPOS>BOND
     1    1    4 2
     2    2   25 2
     3    3    7 2
     4    5    1 2
     5    6   19 1
     6    8    3 2
     7    9    1 1
     8   10    9 ar
     9   11   10 1
    10   12   10 ar
    11   13   12 1
    12   14   12 ar
    13   15   14 ar
    14   16   15 1
    15   17    9 ar
    16   18   17 1
    17   19   14 1
    18   20   19 2
    19   21   20 1
    20   22   20 1
    21   23   22 1
    22   24    6 1
    23   25   24 1
    24   26   25 1
    25   27    2 1
    26   28   27 ar
    27   29   28 1
    28   30   28 ar
    29   31   30 1
    30   32   30 ar
    31   33   32 1
    32   34    3 1
    33   35   27 ar
    34   36   35 1
    35   37   36 1
    36   38   36 1
    37   39   36 1
    38   15   17 ar
    39   22   24 2
    40   32   34 ar
    41   34   35 ar
@<TRIPOS>SUBSTRUCTURE
     1 RES1 1

@<TRIPOS>CRYSIN
  10.9026   10.2798   14.2962  90.0000 101.5290  90.0000  14 1

