# MOL2 file generated by ConQuest
# Please check atom types

@<TRIPOS>MOLECULE
QECPOD
    36    38     1
SMALL
NO_CHARGES
****
Generated from CSD

@<TRIPOS>ATOM
      1 O1         7.6618   -0.6862   -0.7679 O.3       1 RES1    0.0000
      2 O2         8.7084   -1.8705    0.8705 O.3       1 RES1    0.0000
      3 O3        10.0955    1.7459    0.4386 O.3       1 RES1    0.0000
      4 O4         7.1618    2.8324    0.8865 O.3       1 RES1    0.0000
      5 N1        10.0910    2.9201   -0.3454 N.2       1 RES1    0.0000
      6 C1         7.5759   -1.8997    0.0169 C.3       1 RES1    0.0000
      7 C2         9.7244   -1.1779    0.1383 C.3       1 RES1    0.0000
      8 C3         8.9313   -0.0851   -0.5327 C.3       1 RES1    0.0000
      9 C4         8.7910    1.1322    0.3407 C.3       1 RES1    0.0000
     10 C5         7.8734    2.2186   -0.1807 C.3       1 RES1    0.0000
     11 C6         8.9041    3.1920   -0.7350 C.2       1 RES1    0.0000
     12 C7         8.6122    4.3763   -1.5547 C.ar      1 RES1    0.0000
     13 C8         9.6101    5.2200   -1.9951 C.ar      1 RES1    0.0000
     14 C9         9.3058    6.3395   -2.7461 C.ar      1 RES1    0.0000
     15 C10        8.0047    6.6343   -3.0407 C.ar      1 RES1    0.0000
     16 C11        6.9943    5.7982   -2.6257 C.ar      1 RES1    0.0000
     17 C12        7.2896    4.6698   -1.8822 C.ar      1 RES1    0.0000
     18 C13        6.3324   -1.8387    0.8592 C.3       1 RES1    0.0000
     19 C14        7.5985   -3.0903   -0.9166 C.3       1 RES1    0.0000
     20 H1        10.1939   -1.7663   -0.4894 H         1 RES1    0.0000
     21 H2        10.4315   -0.9022    0.8093 H         1 RES1    0.0000
     22 H3         9.2888    0.2033   -1.3270 H         1 RES1    0.0000
     23 H4         8.5873    0.9022    1.2423 H         1 RES1    0.0000
     24 H5         7.1731    1.8933   -0.8846 H         1 RES1    0.0000
     25 H6        10.3863    5.0193   -1.7599 H         1 RES1    0.0000
     26 H7         9.9676    6.8364   -3.0115 H         1 RES1    0.0000
     27 H8         7.7953    7.4590   -3.5103 H         1 RES1    0.0000
     28 H9         6.1209    5.9469   -2.8609 H         1 RES1    0.0000
     29 H10        6.5056    4.0789   -1.6187 H         1 RES1    0.0000
     30 H11        6.3472    2.9734    0.5647 H         1 RES1    0.0000
     31 H12        6.3472   -0.9149    1.3740 H         1 RES1    0.0000
     32 H13        5.4307   -1.8552    0.2165 H         1 RES1    0.0000
     33 H14        6.3245   -2.6303    1.3175 H         1 RES1    0.0000
     34 H15        6.8563   -3.0497   -1.5528 H         1 RES1    0.0000
     35 H16        7.6935   -3.8502   -0.3670 H         1 RES1    0.0000
     36 H17        8.3384   -3.1386   -1.4022 H         1 RES1    0.0000
@<TRIPOS>BOND
     1    1    6 1
     2    2    6 1
     3    3    5 1
     4    4   10 1
     5    5   11 2
     6    6   18 1
     7    7    2 1
     8    8    1 1
     9    9    3 1
    10   10    9 1
    11   11   10 1
    12   12   11 1
    13   13   12 ar
    14   14   13 ar
    15   15   14 ar
    16   16   15 ar
    17   17   12 ar
    18   18   31 1
    19   19    6 1
    20   20    7 1
    21   21    7 1
    22   22    8 1
    23   23    9 1
    24   24   10 1
    25   25   13 1
    26   26   14 1
    27   27   15 1
    28   28   16 1
    29   29   17 1
    30   30    4 1
    31   32   18 1
    32   33   18 1
    33   34   19 1
    34   35   19 1
    35   36   19 1
    36    7    8 1
    37    8    9 1
    38   16   17 ar
@<TRIPOS>SUBSTRUCTURE
     1 RES1 1

@<TRIPOS>CRYSIN
  11.3140   12.7070    9.4110  90.0000  90.0000  90.0000  19 1

