# MOL2 file generated by ConQuest
# Please check atom types

@<TRIPOS>MOLECULE
QECQUN
    28    28     1
SMALL
NO_CHARGES
****
Generated from CSD

@<TRIPOS>ATOM
      1 N1        -0.0880    5.1224    6.7853 N.pl3     1 RES1    0.0000
      2 N2         1.2474    3.7037    8.2289 N.pl3     1 RES1    0.0000
      3 N3        -1.8938    3.1281    8.6100 N.pl3     1 RES1    0.0000
      4 H1        -2.5240    2.5460    8.6773 H         1 RES1    0.0000
      5 H2        -1.8552    3.7861    9.1628 H         1 RES1    0.0000
      6 N4        -1.0012    2.0272    6.7903 N.pl3     1 RES1    0.0000
      7 N5         0.0423    1.9632    5.8485 N.2       1 RES1    0.0000
      8 O1        -1.1602    5.1392    6.1425 O.2       1 RES1    0.0000
      9 O2         0.7475    6.0258    6.7149 O.2       1 RES1    0.0000
     10 O3         2.2568    4.4272    8.2298 O.2       1 RES1    0.0000
     11 O4         1.2430    2.5869    8.8175 O.2       1 RES1    0.0000
     12 O5        -2.0763    0.2998    8.0140 O.3       1 RES1    0.0000
     13 H3        -1.3919   -0.1007    8.2249 H         1 RES1    0.0000
     14 C1         0.0771    4.0219    7.6075 C.2       1 RES1    0.0000
     15 C2        -1.0007    3.0135    7.6732 C.2       1 RES1    0.0000
     16 C3        -0.0478    0.8236    5.2660 C.2       1 RES1    0.0000
     17 C4        -1.1513   -0.0473    5.7559 C.3       1 RES1    0.0000
     18 H4        -0.7998   -0.8324    6.2037 H         1 RES1    0.0000
     19 H5        -1.7190   -0.3318    5.0222 H         1 RES1    0.0000
     20 C5        -1.9260    0.8378    6.7338 C.3       1 RES1    0.0000
     21 C6         0.9113    0.4213    4.2102 C.3       1 RES1    0.0000
     22 H6         1.5628    1.1155    4.0879 H         1 RES1    0.0000
     23 H7         0.4387    0.2772    3.3865 H         1 RES1    0.0000
     24 H8         1.3531   -0.3902    4.4707 H         1 RES1    0.0000
     25 C7        -3.2926    1.2558    6.2340 C.3       1 RES1    0.0000
     26 H9        -3.8661    0.4872    6.1894 H         1 RES1    0.0000
     27 H10       -3.2089    1.6437    5.3604 H         1 RES1    0.0000
     28 H11       -3.6695    1.9014    6.8364 H         1 RES1    0.0000
@<TRIPOS>BOND
     1    1    8 2
     2    2   10 2
     3    3    4 1
     4    5    3 1
     5    6    7 1
     6    7   16 2
     7    9    1 2
     8   11    2 2
     9   12   13 1
    10   14    1 1
    11   15    3 1
    12   16   17 1
    13   17   18 1
    14   19   17 1
    15   20    6 1
    16   21   16 1
    17   22   21 1
    18   23   21 1
    19   24   21 1
    20   25   20 1
    21   26   25 1
    22   27   25 1
    23   28   25 1
    24    2   14 1
    25    6   15 1
    26   12   20 1
    27   14   15 2
    28   17   20 1
@<TRIPOS>SUBSTRUCTURE
     1 RES1 1

@<TRIPOS>CRYSIN
   7.6334    8.3937    9.7640 106.1870 104.4700  98.6190   2 1

