# MOL2 file generated by ConQuest
# Please check atom types

@<TRIPOS>MOLECULE
QECWEA
    56    58     1
SMALL
NO_CHARGES
****
Generated from CSD

@<TRIPOS>ATOM
      1 O1        -0.0317   10.4496   20.1724 O.2       1 RES1    0.0000
      2 O2        -0.8449    7.4719   20.5533 O.3       1 RES1    0.0000
      3 O3        -2.5921    6.0934   20.6630 O.2       1 RES1    0.0000
      4 O4         3.5329    2.4911   22.1150 O.2       1 RES1    0.0000
      5 O5         1.8976    1.3405   22.9906 O.2       1 RES1    0.0000
      6 O6         1.5711   10.4904   15.2918 O.3       1 RES1    0.0000
      7 N1        -1.2114    9.5297   18.3554 N.am      1 RES1    0.0000
      8 N2         2.3185    2.2604   22.3564 N.pl3     1 RES1    0.0000
      9 C1        -0.7867    9.6943   19.6179 C.2       1 RES1    0.0000
     10 C2        -1.7033    8.5352   20.0846 C.3       1 RES1    0.0000
     11 H1        -2.4213    8.8053   20.7268 H         1 RES1    0.0000
     12 C3        -2.1598    8.4143   18.6366 C.3       1 RES1    0.0000
     13 H2        -1.9202    7.5563   18.2058 H         1 RES1    0.0000
     14 H3        -3.1120    8.6407   18.4890 H         1 RES1    0.0000
     15 C4        -1.4328    6.2791   20.7747 C.2       1 RES1    0.0000
     16 C5        -0.8668    4.0046   21.5765 C.ar      1 RES1    0.0000
     17 H4        -1.7963    3.8077   21.5925 H         1 RES1    0.0000
     18 C6         0.0657    3.0650   21.9834 C.ar      1 RES1    0.0000
     19 H5        -0.2214    2.2210   22.3125 H         1 RES1    0.0000
     20 C7         1.4162    3.3576   21.9096 C.ar      1 RES1    0.0000
     21 C8        -0.4088    5.2311   21.1457 C.ar      1 RES1    0.0000
     22 C9         1.8681    4.5433   21.4528 C.ar      1 RES1    0.0000
     23 H6         2.8029    4.7037   21.3910 H         1 RES1    0.0000
     24 C10        0.9643    5.5350   21.0739 C.ar      1 RES1    0.0000
     25 H7         1.2643    6.3860   20.7767 H         1 RES1    0.0000
     26 N3        -0.8751   10.2429   17.2046 N.3       1 RES1    0.0000
     27 C11       -2.0525   11.0573   16.7598 C.3       1 RES1    0.0000
     28 H8        -2.9057   10.5987   16.9672 H         1 RES1    0.0000
     29 H9        -2.0517   11.9519   17.1826 H         1 RES1    0.0000
     30 C12       -1.8364   11.1515   15.3138 C.3       1 RES1    0.0000
     31 H10       -1.2514   11.9237   15.1103 H         1 RES1    0.0000
     32 H11       -2.7024   11.2894   14.8530 H         1 RES1    0.0000
     33 C13       -1.2001    9.8940   14.8271 C.3       1 RES1    0.0000
     34 H12       -0.5638   10.0797   14.0911 H         1 RES1    0.0000
     35 H13       -1.8817    9.2512   14.5080 H         1 RES1    0.0000
     36 C14       -0.4640    9.3511   16.0737 C.3       1 RES1    0.0000
     37 H14       -0.8018    8.4298   16.2612 H         1 RES1    0.0000
     38 C15        1.0799    9.2850   15.9161 C.3       1 RES1    0.0000
     39 C16        1.3844    8.1864   14.8929 C.3       1 RES1    0.0000
     40 H15        0.9779    7.3396   15.2081 H         1 RES1    0.0000
     41 H16        0.9522    8.4241   14.0353 H         1 RES1    0.0000
     42 C17        1.7593    9.0444   17.2365 C.3       1 RES1    0.0000
     43 H17        1.4116    9.7055   17.8867 H         1 RES1    0.0000
     44 H18        2.7266    9.2231   17.1228 H         1 RES1    0.0000
     45 C18        1.6028    7.6449   17.8508 C.3       1 RES1    0.0000
     46 H19        2.0668    7.6125   18.7124 H         1 RES1    0.0000
     47 H20        1.9905    6.9781   17.2444 H         1 RES1    0.0000
     48 H21        0.6514    7.4508   17.9844 H         1 RES1    0.0000
     49 C19        2.8467    7.9529   14.6456 C.3       1 RES1    0.0000
     50 H22        3.2676    7.6181   15.4654 H         1 RES1    0.0000
     51 H23        3.2714    8.7941   14.3803 H         1 RES1    0.0000
     52 H24        2.9548    7.2918   13.9296 H         1 RES1    0.0000
     53 C20        1.7336   11.6635   16.1056 C.3       1 RES1    0.0000
     54 H25        2.4371   11.5060   16.7678 H         1 RES1    0.0000
     55 H26        0.8902   11.8619   16.5643 H         1 RES1    0.0000
     56 H27        1.9830   12.4231   15.5372 H         1 RES1    0.0000
@<TRIPOS>BOND
     1    1    9 2
     2    2   10 1
     3    3   15 2
     4    4    8 2
     5    5    8 2
     6    6   38 1
     7    7    9 1
     8    8   20 1
     9    9   10 1
    10   10   11 1
    11   12    7 1
    12   13   12 1
    13   14   12 1
    14   15    2 1
    15   16   17 1
    16   18   16 ar
    17   19   18 1
    18   20   18 ar
    19   21   15 1
    20   22   20 ar
    21   23   22 1
    22   24   21 ar
    23   25   24 1
    24   26    7 1
    25   27   26 1
    26   28   27 1
    27   29   27 1
    28   30   27 1
    29   31   30 1
    30   32   30 1
    31   33   30 1
    32   34   33 1
    33   35   33 1
    34   36   26 1
    35   37   36 1
    36   38   36 1
    37   39   38 1
    38   40   39 1
    39   41   39 1
    40   42   38 1
    41   43   42 1
    42   44   42 1
    43   45   42 1
    44   46   45 1
    45   47   45 1
    46   48   45 1
    47   49   39 1
    48   50   49 1
    49   51   49 1
    50   52   49 1
    51   53    6 1
    52   54   53 1
    53   55   53 1
    54   56   53 1
    55   10   12 1
    56   16   21 ar
    57   22   24 ar
    58   33   36 1
@<TRIPOS>SUBSTRUCTURE
     1 RES1 1

@<TRIPOS>CRYSIN
   7.5570   14.0660   19.9450  90.0000  90.0000  90.0000  19 1

