# MOL2 file generated by ConQuest
# Please check atom types

@<TRIPOS>MOLECULE
QECWAY
   108   111     3
SMALL
NO_CHARGES
****
Generated from CSD

@<TRIPOS>ATOM
      1 O1         2.7539   35.6121    9.7529 O.2       1 RES1    0.0000
      2 O2         3.1196   37.5019    8.7715 O.2       1 RES1    0.0000
      3 O3         2.5868   38.0566    4.0744 O.2       1 RES1    0.0000
      4 O4         1.0914   36.8211    3.0956 O.2       1 RES1    0.0000
      5 O5        -0.8938   29.0243    5.4165 O.2       1 RES1    0.0000
      6 O6        -0.9654   26.9542    6.0059 O.2       1 RES1    0.0000
      7 N1         1.8506   33.5562    8.4141 N.pl3     1 RES1    0.0000
      8 H1         2.0961   33.8193    9.2165 H         1 RES1    0.0000
      9 N2         1.4525   32.2582    8.1971 N.2       1 RES1    0.0000
     10 N3         2.7591   36.3274    8.7397 N.pl3     1 RES1    0.0000
     11 N4         1.8328   37.0835    4.0457 N.pl3     1 RES1    0.0000
     12 N5        -0.6462   28.1175    6.2037 N.pl3     1 RES1    0.0000
     13 C1         1.8578   34.4261    7.3685 C.ar      1 RES1    0.0000
     14 C2         2.3012   35.7709    7.4812 C.ar      1 RES1    0.0000
     15 C3         2.3105   36.6320    6.3875 C.ar      1 RES1    0.0000
     16 H2         2.6472   37.5169    6.4698 H         1 RES1    0.0000
     17 C4         1.8241   36.1778    5.1895 C.ar      1 RES1    0.0000
     18 C5         1.3282   34.8752    5.0358 C.ar      1 RES1    0.0000
     19 H3         0.9668   34.5941    4.2037 H         1 RES1    0.0000
     20 C6         1.3722   34.0145    6.1002 C.ar      1 RES1    0.0000
     21 H4         1.0709   33.1212    5.9862 H         1 RES1    0.0000
     22 C7         1.2986   31.5110    9.2381 C.2       1 RES1    0.0000
     23 C8         0.9219   30.1010    8.9554 C.ar      1 RES1    0.0000
     24 C9         0.3679   29.7699    7.7125 C.ar      1 RES1    0.0000
     25 H5         0.2351   30.4324    7.0462 H         1 RES1    0.0000
     26 C10        0.0181   28.4482    7.4801 C.ar      1 RES1    0.0000
     27 C11        0.2260   27.4398    8.4016 C.ar      1 RES1    0.0000
     28 H6         0.0001   26.5391    8.1991 H         1 RES1    0.0000
     29 C12        0.7700   27.7735    9.6221 C.ar      1 RES1    0.0000
     30 H7         0.9222   27.0991   10.2720 H         1 RES1    0.0000
     31 C13        1.0975   29.0949    9.9099 C.ar      1 RES1    0.0000
     32 H8         1.4444   29.3162   10.7663 H         1 RES1    0.0000
     33 C14        1.4648   31.9574   10.6604 C.3       1 RES1    0.0000
     34 H9         1.2315   32.9064   10.7344 H         1 RES1    0.0000
     35 H10        2.3966   31.8286   10.9366 H         1 RES1    0.0000
     36 H11        0.8763   31.4296   11.2393 H         1 RES1    0.0000
     37 O7        -0.7940   34.9309   17.4396 O.2       2 RES2    0.0000
     38 O8        -1.5287   32.9969   16.7812 O.2       2 RES2    0.0000
     39 O9        -2.2661   32.1254   12.1999 O.2       2 RES2    0.0000
     40 O10       -2.9675   33.6919   10.9150 O.2       2 RES2    0.0000
     41 O11       -3.1127   41.8627   12.6805 O.2       2 RES2    0.0000
     42 O12       -2.2629   43.8519   12.8847 O.2       2 RES2    0.0000
     43 N6        -1.3804   37.0581   15.9957 N.pl3     2 RES2    0.0000
     44 H12       -1.1735   36.8034   16.8118 H         2 RES2    0.0000
     45 N7        -1.4536   38.3933   15.6739 N.2       2 RES2    0.0000
     46 N8        -1.2928   34.1875   16.5818 N.pl3     2 RES2    0.0000
     47 N9        -2.5110   33.2965   11.9752 N.pl3     2 RES2    0.0000
     48 N10       -2.4563   42.7131   13.2995 N.pl3     2 RES2    0.0000
     49 C15       -1.6340   36.1395   15.0232 C.ar      2 RES2    0.0000
     50 C16       -1.6114   34.7395   15.2733 C.ar      2 RES2    0.0000
     51 C17       -1.9094   33.8243   14.2751 C.ar      2 RES2    0.0000
     52 H13       -1.8881   32.8910   14.4575 H         2 RES2    0.0000
     53 C18       -2.2334   34.2746   13.0294 C.ar      2 RES2    0.0000
     54 C19       -2.2896   35.6455   12.7323 C.ar      2 RES2    0.0000
     55 H14       -2.5352   35.9404   11.8628 H         2 RES2    0.0000
     56 C20       -1.9847   36.5537   13.7159 C.ar      2 RES2    0.0000
     57 H15       -2.0089   37.4824   13.5145 H         2 RES2    0.0000
     58 C21       -1.3941   39.2357   16.6539 C.2       2 RES2    0.0000
     59 C22       -1.4288   40.6610   16.2439 C.ar      2 RES2    0.0000
     60 C23       -1.9103   41.0085   14.9810 C.ar      2 RES2    0.0000
     61 H16       -2.2386   40.3438   14.3860 H         2 RES2    0.0000
     62 C24       -1.9005   42.3445   14.6152 C.ar      2 RES2    0.0000
     63 C25       -1.4276   43.3521   15.4330 C.ar      2 RES2    0.0000
     64 H17       -1.4207   44.2562   15.1434 H         2 RES2    0.0000
     65 C26       -0.9647   42.9989   16.6856 C.ar      2 RES2    0.0000
     66 H18       -0.6364   43.6693   17.2711 H         2 RES2    0.0000
     67 C27       -0.9736   41.6675   17.1026 C.ar      2 RES2    0.0000
     68 H19       -0.6695   41.4446   17.9737 H         2 RES2    0.0000
     69 C28       -1.3192   38.8709   18.1068 C.3       2 RES2    0.0000
     70 H20       -1.8249   38.0462   18.2627 H         2 RES2    0.0000
     71 H21       -1.7000   39.5958   18.6460 H         2 RES2    0.0000
     72 H22       -0.3825   38.7328   18.3600 H         2 RES2    0.0000
     73 O13       -4.0224   28.4574    5.9281 O.2       3 RES3    0.0000
     74 O14       -4.1179   26.4916    6.8260 O.2       3 RES3    0.0000
     75 O15       -3.3905   25.7835   11.4676 O.2       3 RES3    0.0000
     76 O16       -1.9177   27.0631   12.4166 O.2       3 RES3    0.0000
     77 O17       -0.3967   35.1457   10.1881 O.2       3 RES3    0.0000
     78 O18       -0.2078   37.1828    9.4611 O.2       3 RES3    0.0000
     79 N11       -3.0919   30.4876    7.2917 N.pl3     3 RES3    0.0000
     80 H23       -3.4121   30.2444    6.5094 H         3 RES3    0.0000
     81 N12       -2.6491   31.7775    7.4836 N.2       3 RES3    0.0000
     82 N13       -3.8800   27.6960    6.8969 N.pl3     3 RES3    0.0000
     83 N14       -2.7031   26.7996   11.5071 N.pl3     3 RES3    0.0000
     84 N15       -0.5571   36.0098    9.3260 N.pl3     3 RES3    0.0000
     85 C29       -3.0331   29.5939    8.3122 C.ar      3 RES3    0.0000
     86 C30       -3.4090   28.2334    8.1574 C.ar      3 RES3    0.0000
     87 C31       -3.3329   27.3358    9.2159 C.ar      3 RES3    0.0000
     88 H24       -3.6285   26.4394    9.1101 H         3 RES3    0.0000
     89 C32       -2.8261   27.7631   10.4142 C.ar      3 RES3    0.0000
     90 C33       -2.4141   29.0914   10.6141 C.ar      3 RES3    0.0000
     91 H25       -2.0506   29.3622   11.4492 H         3 RES3    0.0000
     92 C34       -2.5437   29.9909    9.5881 C.ar      3 RES3    0.0000
     93 H26       -2.3027   30.8965    9.7321 H         3 RES3    0.0000
     94 C35       -2.5509   32.5102    6.4225 C.2       3 RES3    0.0000
     95 C36       -2.1085   33.9110    6.6449 C.ar      3 RES3    0.0000
     96 C37       -1.5940   34.3010    7.8861 C.ar      3 RES3    0.0000
     97 H27       -1.5381   33.6850    8.6051 H         3 RES3    0.0000
     98 C38       -1.1685   35.6113    8.0400 C.ar      3 RES3    0.0000
     99 C39       -1.2541   36.5614    7.0374 C.ar      3 RES3    0.0000
    100 H28       -0.9618   37.4555    7.1816 H         3 RES3    0.0000
    101 C40       -1.7779   36.1702    5.8224 C.ar      3 RES3    0.0000
    102 H29       -1.8567   36.8034    5.1193 H         3 RES3    0.0000
    103 C41       -2.1931   34.8607    5.6154 C.ar      3 RES3    0.0000
    104 H30       -2.5377   34.6056    4.7680 H         3 RES3    0.0000
    105 C42       -2.8365   32.0426    5.0233 C.3       3 RES3    0.0000
    106 H31       -2.6103   31.0921    4.9444 H         3 RES3    0.0000
    107 H32       -2.2983   32.5612    4.3893 H         3 RES3    0.0000
    108 H33       -3.7877   32.1699    4.8242 H         3 RES3    0.0000
@<TRIPOS>BOND
     1    1   10 2
     2    2   10 2
     3    3   11 2
     4    4   11 2
     5    5   12 2
     6    6   12 2
     7    7    8 1
     8    9    7 1
     9   10   14 1
    10   11   17 1
    11   12   26 1
    12   13    7 1
    13   14   13 ar
    14   15   14 ar
    15   16   15 1
    16   17   15 ar
    17   18   17 ar
    18   19   18 1
    19   20   13 ar
    20   21   20 1
    21   22    9 2
    22   23   22 1
    23   24   23 ar
    24   25   24 1
    25   26   24 ar
    26   27   26 ar
    27   28   27 1
    28   29   27 ar
    29   30   29 1
    30   31   23 ar
    31   32   31 1
    32   33   22 1
    33   34   33 1
    34   35   33 1
    35   36   33 1
    36   37   46 2
    37   38   46 2
    38   39   47 2
    39   40   47 2
    40   41   48 2
    41   42   48 2
    42   43   44 1
    43   45   43 1
    44   46   50 1
    45   47   53 1
    46   48   62 1
    47   49   43 1
    48   50   49 ar
    49   51   50 ar
    50   52   51 1
    51   53   51 ar
    52   54   53 ar
    53   55   54 1
    54   56   49 ar
    55   57   56 1
    56   58   45 2
    57   59   58 1
    58   60   59 ar
    59   61   60 1
    60   62   60 ar
    61   63   62 ar
    62   64   63 1
    63   65   63 ar
    64   66   65 1
    65   67   59 ar
    66   68   67 1
    67   69   58 1
    68   70   69 1
    69   71   69 1
    70   72   69 1
    71   73   82 2
    72   74   82 2
    73   75   83 2
    74   76   83 2
    75   77   84 2
    76   78   84 2
    77   79   80 1
    78   81   79 1
    79   82   86 1
    80   83   89 1
    81   84   98 1
    82   85   79 1
    83   86   85 ar
    84   87   86 ar
    85   88   87 1
    86   89   87 ar
    87   90   89 ar
    88   91   90 1
    89   92   85 ar
    90   93   92 1
    91   94   81 2
    92   95   94 1
    93   96   95 ar
    94   97   96 1
    95   98   96 ar
    96   99   98 ar
    97  100   99 1
    98  101   99 ar
    99  102  101 1
   100  103   95 ar
   101  104  103 1
   102  105   94 1
   103  106  105 1
   104  107  105 1
   105  108  105 1
   106   18   20 ar
   107   29   31 ar
   108   54   56 ar
   109   65   67 ar
   110   90   92 ar
   111  101  103 ar
@<TRIPOS>SUBSTRUCTURE
     1 RES1 1
     2 RES2 37
     3 RES3 73

@<TRIPOS>CRYSIN
   7.3309   38.3569   16.8027  90.0000 115.1580  90.0000  14 1

