# MOL2 file generated by ConQuest
# Please check atom types

@<TRIPOS>MOLECULE
QECYAA
    46    39     2
SMALL
NO_CHARGES
****
Generated from CSD

@<TRIPOS>ATOM
      1 O1         6.7926    3.3416    3.3707 O.3       1 RES1    0.0000
      2 O2         3.5509    2.9568    5.8288 O.3       1 RES1    0.0000
      3 N1         6.7173    2.1068    4.0331 N.2       1 RES1    0.0000
      4 C1         6.5681    2.2528    5.2920 C.2       1 RES1    0.0000
      5 C2         7.0881    3.1089    2.0099 C.3       1 RES1    0.0000
      6 H1         7.1985    3.9478    1.5580 H         1 RES1    0.0000
      7 H2         6.3689    2.6190    1.6052 H         1 RES1    0.0000
      8 H3         7.8985    2.5985    1.9412 H         1 RES1    0.0000
      9 C3         6.5497    3.5510    6.0127 C.ar      1 RES1    0.0000
     10 C4         7.6582    3.9046    6.7651 C.ar      1 RES1    0.0000
     11 H4         8.3861    3.3273    6.8138 H         1 RES1    0.0000
     12 C5         7.6916    5.1032    7.4422 C.ar      1 RES1    0.0000
     13 H5         8.4491    5.3400    7.9273 H         1 RES1    0.0000
     14 C6         6.6268    5.9422    7.4053 C.ar      1 RES1    0.0000
     15 H6         6.6549    6.7505    7.8660 H         1 RES1    0.0000
     16 C7         5.4919    5.5931    6.6765 C.ar      1 RES1    0.0000
     17 H7         4.7616    6.1687    6.6625 H         1 RES1    0.0000
     18 C8         5.4369    4.3937    5.9684 C.ar      1 RES1    0.0000
     19 C9         4.2267    4.0509    5.1945 C.3       1 RES1    0.0000
     20 H8         3.6371    4.8195    5.1495 H         1 RES1    0.0000
     21 H9         4.4745    3.8049    4.2900 H         1 RES1    0.0000
     22 C10        2.3897    2.5136    5.2329 C.ar      1 RES1    0.0000
     23 C11        1.7795    1.4236    5.8554 C.ar      1 RES1    0.0000
     24 C12        0.5858    0.9747    5.3083 C.ar      1 RES1    0.0000
     25 H10        0.1420    0.2633    5.7114 H         1 RES1    0.0000
     26 C13        0.0378    1.5555    4.1837 C.ar      1 RES1    0.0000
     27 H11       -0.7605    1.2329    3.8359 H         1 RES1    0.0000
     28 C14        0.6677    2.5924    3.5871 C.ar      1 RES1    0.0000
     29 H12        0.3060    2.9741    2.8206 H         1 RES1    0.0000
     30 C15        1.8411    3.0819    4.1069 C.ar      1 RES1    0.0000
     31 H13        2.2664    3.8009    3.6964 H         1 RES1    0.0000
     32 C16        2.4054    0.7896    7.0575 C.3       1 RES1    0.0000
     33 H14        3.2987    0.5103    6.8441 H         1 RES1    0.0000
     34 H15        1.8864    0.0265    7.3240 H         1 RES1    0.0000
     35 H16        2.4322    1.4248    7.7767 H         1 RES1    0.0000
     36 O3         7.7943    0.6369    6.4424 O.3       1 RES1    0.0000
     37 H17        8.1902    0.2164    7.0538 H         1 RES1    0.0000
     38 H18        8.4464    0.6369    5.9123 Du        2 SUP2    0.0000
     39 C17        6.5826    0.9533    6.1057 C.3       1 RES1    0.0000
     40 H19        6.0420    1.0655    6.9046 Du        2 SUP2    0.0000
     41 H20        6.1943    0.2368    5.5792 Du        2 SUP2    0.0000
     42 O4         6.3703   -0.0449    5.5896 Du        2 SUP2    0.0000
     43 H21        6.1427   -0.6083    6.1736 Du        2 SUP2    0.0000
     44 C18        5.9426    1.0860    6.0695 Du        2 SUP2    0.0000
     45 H22        6.1791    1.1554    7.0080 Du        2 SUP2    0.0000
     46 H23        4.9761    1.1268    5.9979 Du        2 SUP2    0.0000
@<TRIPOS>BOND
     1    1    3 1
     2    2   19 1
     3    3    4 2
     4    4    9 1
     5    5    1 1
     6    6    5 1
     7    7    5 1
     8    8    5 1
     9    9   10 ar
    10   10   11 1
    11   12   10 ar
    12   13   12 1
    13   14   12 ar
    14   15   14 1
    15   16   14 ar
    16   17   16 1
    17   18    9 ar
    18   19   18 1
    19   20   19 1
    20   21   19 1
    21   22    2 1
    22   23   22 ar
    23   24   23 ar
    24   25   24 1
    25   26   24 ar
    26   27   26 1
    27   28   26 ar
    28   29   28 1
    29   30   22 ar
    30   31   30 1
    31   32   23 1
    32   33   32 1
    33   34   32 1
    34   35   32 1
    35   36   37 1
    36   39    4 1
    37   16   18 ar
    38   28   30 ar
    39   36   39 1
@<TRIPOS>SUBSTRUCTURE
     1 RES1 1
     2 SUP2 38

@<TRIPOS>CRYSIN
  21.0394   20.4128    7.6711  90.0000 105.7290  90.0000  15 1

