# MOL2 file generated by ConQuest
# Please check atom types

@<TRIPOS>MOLECULE
QEDDIP
    35    38     1
SMALL
USER_CHARGES
****
Generated from CSD

@<TRIPOS>ATOM
      1 C1         6.0876    1.3858    3.6818 C.3       1 RES1    0.0000
      2 C2         7.1676    2.2800    4.2735 C.3       1 RES1    0.0000
      3 H1         8.0865    2.1831    3.9188 H         1 RES1    0.0000
      4 H2         6.9140    3.2068    4.5106 H         1 RES1    0.0000
      5 C3         6.6432    1.1824    5.1343 C.3       1 RES1    0.0000
      6 C4         7.5276    0.0029    5.3834 C.2       1 RES1    0.0000
      7 C5         7.0810   -0.9322    6.4201 C.2       1 RES1    0.0000
      8 H3         7.6927   -1.5806    6.7477 H         1 RES1    0.0000
      9 C6         5.8372   -0.9018    6.9202 C.2       1 RES1    0.0000
     10 C7         4.8591    0.1547    6.5004 C.3       1 RES1    0.0000
     11 H4         4.2283    0.3182    7.2460 H         1 RES1    0.0000
     12 H5         4.3347   -0.1837    5.7321 H         1 RES1    0.0000
     13 C8         5.5097    1.4792    6.1065 C.3       1 RES1    0.0000
     14 H6         5.8538    1.9573    6.9138 H         1 RES1    0.0000
     15 C9         4.5348    2.3638    5.3291 C.3       1 RES1    0.0000
     16 H7         3.6033    2.1995    5.6213 H         1 RES1    0.0000
     17 H8         4.7470    3.3215    5.4621 H         1 RES1    0.0000
     18 C10        4.7196    1.9679    3.8664 C.2       1 RES1    0.0000
     19 C11        6.3361    0.4367    2.5690 C.ar      1 RES1    0.0000
     20 C12        7.5423    0.3733    1.8715 C.ar      1 RES1    0.0000
     21 H9         8.2540    0.9594    2.1039 H         1 RES1    0.0000
     22 C13        7.7073   -0.5312    0.8506 C.ar      1 RES1    0.0000
     23 H10        8.5388   -0.5709    0.3927 H         1 RES1    0.0000
     24 C14        5.5352   -1.3584    1.1648 C.ar      1 RES1    0.0000
     25 H11        4.8438   -1.9643    0.9256 H         1 RES1    0.0000
     26 C15        5.3402   -0.4725    2.2027 C.ar      1 RES1    0.0000
     27 H12        4.5170   -0.4797    2.6766 H         1 RES1    0.0000
     28 C16        5.3224   -1.9409    7.8626 C.3       1 RES1    0.0000
     29 H13        5.9882   -2.6523    7.9605 H         1 RES1    0.0000
     30 H14        4.4896   -2.3188    7.5089 H         1 RES1    0.0000
     31 H15        5.1503   -1.5326    8.7374 H         1 RES1    0.0000
     32 N1         6.7076   -1.3705    0.4834 N.pl3     1 RES1    1.0000
     33 O1         8.5338   -0.1870    4.7261 O.2       1 RES1    0.0000
     34 O2         3.9027    2.0905    2.9809 O.2       1 RES1    0.0000
     35 O3         6.8561   -2.1802   -0.5324 O.2       1 RES1   -1.0000
@<TRIPOS>BOND
     1    1    2 1
     2    2    3 1
     3    4    2 1
     4    5    1 1
     5    6    5 1
     6    7    6 1
     7    8    7 1
     8    9    7 2
     9   10    9 1
    10   11   10 1
    11   12   10 1
    12   13    5 1
    13   14   13 1
    14   15   13 1
    15   16   15 1
    16   17   15 1
    17   18    1 1
    18   19    1 1
    19   20   19 ar
    20   21   20 1
    21   22   20 ar
    22   23   22 1
    23   24   25 1
    24   26   19 ar
    25   27   26 1
    26   28    9 1
    27   29   28 1
    28   30   28 1
    29   31   28 1
    30   32   22 ar
    31   33    6 2
    32   34   18 2
    33   35   32 1
    34    2    5 1
    35   10   13 1
    36   15   18 1
    37   24   26 ar
    38   24   32 ar
@<TRIPOS>SUBSTRUCTURE
     1 RES1 1

@<TRIPOS>CRYSIN
   6.3718   11.6995   17.3017  90.0000  90.0000  90.0000  19 1

