# MOL2 file generated by ConQuest
# Please check atom types

@<TRIPOS>MOLECULE
QEDGOY
    56    58     2
SMALL
NO_CHARGES
****
Generated from CSD

@<TRIPOS>ATOM
      1 C1        -1.0616    1.6755   13.3100 C.2       1 RES1    0.0000
      2 C2        -0.7519    0.6712   12.3963 C.2       1 RES1    0.0000
      3 H1        -0.4972    0.7584   11.4844 H         1 RES1    0.0000
      4 C3        -0.9043   -0.4744   13.1340 C.2       1 RES1    0.0000
      5 H2        -0.7664   -1.3644   12.8306 H         1 RES1    0.0000
      6 C4        -1.5349   -0.9435   15.5594 C.3       1 RES1    0.0000
      7 H3        -1.9983   -1.7698   15.2729 H         1 RES1    0.0000
      8 H4        -2.1285   -0.4637   16.1899 H         1 RES1    0.0000
      9 C5        -0.2617   -1.3080   16.2598 C.2       1 RES1    0.0000
     10 H5         0.4049   -1.7683   15.7627 H         1 RES1    0.0000
     11 C6        -0.0093   -1.0289   17.5275 C.2       1 RES1    0.0000
     12 H6        -0.6638   -0.5239   17.9957 H         1 RES1    0.0000
     13 C7         1.1904   -1.4275   18.2818 C.ar      1 RES1    0.0000
     14 C8         1.1620   -1.4324   19.6747 C.ar      1 RES1    0.0000
     15 H7         0.3865   -1.1197   20.1251 H         1 RES1    0.0000
     16 C9         2.2419   -1.8835   20.4143 C.ar      1 RES1    0.0000
     17 H8         2.2015   -1.8823   21.3636 H         1 RES1    0.0000
     18 C10        3.3835   -2.3375   19.7689 C.ar      1 RES1    0.0000
     19 H9         4.1200   -2.6645   20.2719 H         1 RES1    0.0000
     20 C11        3.4432   -2.3107   18.3823 C.ar      1 RES1    0.0000
     21 H10        4.2291   -2.6059   17.9374 H         1 RES1    0.0000
     22 C12        2.3656   -1.8576   17.6451 C.ar      1 RES1    0.0000
     23 H11        2.4201   -1.8370   16.6969 H         1 RES1    0.0000
     24 N1        -1.3870    1.2268   14.5249 N.2       1 RES1    0.0000
     25 N2        -1.2913   -0.0948   14.3860 N.pl3     1 RES1    0.0000
     26 N3        -1.0831    3.0894   13.0878 N.pl3     1 RES1    0.0000
     27 O1        -1.4240    3.8397   14.0028 O.2       1 RES1    0.0000
     28 O2        -0.7402    3.4958   11.9741 O.2       1 RES1    0.0000
     29 C13        2.5723   -0.3133   13.1545 C.2       2 RES2    0.0000
     30 C14        2.7264    0.7464   12.2652 C.2       2 RES2    0.0000
     31 H12        3.0060    0.7187   11.3571 H         2 RES2    0.0000
     32 C15        2.3777    1.8372   13.0145 C.2       2 RES2    0.0000
     33 H13        2.3702    2.7427   12.7249 H         2 RES2    0.0000
     34 C16        1.7258    2.1543   15.4578 C.3       2 RES2    0.0000
     35 H14        1.0505    1.6704   15.9957 H         2 RES2    0.0000
     36 H15        1.3451    3.0311   15.2017 H         2 RES2    0.0000
     37 C17        2.9687    2.3601   16.2710 C.2       2 RES2    0.0000
     38 H16        3.6470    2.9302   15.9288 H         2 RES2    0.0000
     39 C18        3.1610    1.7842   17.4445 C.2       2 RES2    0.0000
     40 H17        2.4516    1.2449   17.7735 H         2 RES2    0.0000
     41 C19        4.3553    1.8888   18.2924 C.ar      2 RES2    0.0000
     42 C20        5.5073    2.5987   17.9077 C.ar      2 RES2    0.0000
     43 H18        5.5334    3.0346   17.0637 H         2 RES2    0.0000
     44 C21        6.6005    2.6675   18.7463 C.ar      2 RES2    0.0000
     45 H19        7.3720    3.1492   18.4725 H         2 RES2    0.0000
     46 C22        6.5848    2.0434   19.9793 C.ar      2 RES2    0.0000
     47 H20        7.3388    2.1022   20.5545 H         2 RES2    0.0000
     48 C23        5.4584    1.3288   20.3720 C.ar      2 RES2    0.0000
     49 H21        5.4436    0.8916   21.2147 H         2 RES2    0.0000
     50 C24        4.3619    1.2546   19.5351 C.ar      2 RES2    0.0000
     51 H22        3.5980    0.7621   19.8102 H         2 RES2    0.0000
     52 N4         2.1669    0.0539   14.3698 N.2       2 RES2    0.0000
     53 N5         2.0441    1.3793   14.2503 N.pl3     2 RES2    0.0000
     54 N6         2.8070   -1.7047   12.9079 N.pl3     2 RES2    0.0000
     55 O3         2.5671   -2.5193   13.8017 O.2       2 RES2    0.0000
     56 O4         3.2550   -2.0202   11.8009 O.2       2 RES2    0.0000
@<TRIPOS>BOND
     1    1    2 1
     2    2    3 1
     3    4    2 2
     4    5    4 1
     5    6    7 1
     6    8    6 1
     7    9    6 1
     8   10    9 1
     9   11    9 2
    10   12   11 1
    11   13   11 1
    12   14   13 ar
    13   15   14 1
    14   16   14 ar
    15   17   16 1
    16   18   16 ar
    17   19   18 1
    18   20   18 ar
    19   21   20 1
    20   22   13 ar
    21   23   22 1
    22   24    1 2
    23   25    4 1
    24   26    1 1
    25   27   26 2
    26   28   26 2
    27   29   30 1
    28   30   31 1
    29   32   30 2
    30   33   32 1
    31   34   35 1
    32   36   34 1
    33   37   34 1
    34   38   37 1
    35   39   37 2
    36   40   39 1
    37   41   39 1
    38   42   41 ar
    39   43   42 1
    40   44   42 ar
    41   45   44 1
    42   46   44 ar
    43   47   46 1
    44   48   46 ar
    45   49   48 1
    46   50   41 ar
    47   51   50 1
    48   52   29 2
    49   53   32 1
    50   54   29 1
    51   55   54 2
    52   56   54 2
    53    6   25 1
    54   20   22 ar
    55   24   25 1
    56   34   53 1
    57   48   50 ar
    58   52   53 1
@<TRIPOS>SUBSTRUCTURE
     1 RES1 1
     2 RES2 29

@<TRIPOS>CRYSIN
   6.9102    7.5569   21.8746  95.8950  96.9390  94.3960   2 1

