# MOL2 file generated by ConQuest
# Please check atom types

@<TRIPOS>MOLECULE
QEDGAK
    26    27     1
SMALL
NO_CHARGES
****
Generated from CSD

@<TRIPOS>ATOM
      1 C1         6.5407    3.1309    4.3079 C.2       1 RES1    0.0000
      2 C2         7.7125    2.3878    4.2024 C.2       1 RES1    0.0000
      3 H1         8.3910    2.4465    3.5396 H         1 RES1    0.0000
      4 C3         7.6486    1.5523    5.2822 C.2       1 RES1    0.0000
      5 H2         8.2946    0.9007    5.5284 H         1 RES1    0.0000
      6 C4         6.0188    1.2062    7.1610 C.3       1 RES1    0.0000
      7 H3         6.2270    0.2385    7.1396 H         1 RES1    0.0000
      8 H4         5.0363    1.3069    7.2227 H         1 RES1    0.0000
      9 C5         6.6712    1.8388    8.3865 C.2       1 RES1    0.0000
     10 C6         6.3952    1.2177    9.7084 C.ar      1 RES1    0.0000
     11 C7         5.3992    0.2639    9.8909 C.ar      1 RES1    0.0000
     12 H5         4.8829   -0.0300    9.1485 H         1 RES1    0.0000
     13 C8         5.1564   -0.2583   11.1507 C.ar      1 RES1    0.0000
     14 H6         4.4664   -0.8988   11.2758 H         1 RES1    0.0000
     15 C9         5.9259    0.1571   12.2319 C.ar      1 RES1    0.0000
     16 H7         5.7617   -0.2010   13.0959 H         1 RES1    0.0000
     17 C10        6.9245    1.0846   12.0532 C.ar      1 RES1    0.0000
     18 H8         7.4538    1.3540   12.7938 H         1 RES1    0.0000
     19 C11        7.1668    1.6318   10.8018 C.ar      1 RES1    0.0000
     20 H9         7.8507    2.2811   10.6867 H         1 RES1    0.0000
     21 N1         5.7919    2.8139    5.3653 N.2       1 RES1    0.0000
     22 N2         6.4903    1.8254    5.9385 N.pl3     1 RES1    0.0000
     23 N3         6.0849    4.1670    3.4135 N.pl3     1 RES1    0.0000
     24 O1         5.0845    4.8117    3.7171 O.2       1 RES1    0.0000
     25 O2         6.7356    4.3412    2.3818 O.2       1 RES1    0.0000
     26 O3         7.3930    2.8014    8.2516 O.2       1 RES1    0.0000
@<TRIPOS>BOND
     1    1    2 1
     2    2    3 1
     3    4    2 2
     4    5    4 1
     5    6    7 1
     6    8    6 1
     7    9    6 1
     8   10    9 1
     9   11   10 ar
    10   12   11 1
    11   13   11 ar
    12   14   13 1
    13   15   13 ar
    14   16   15 1
    15   17   15 ar
    16   18   17 1
    17   19   10 ar
    18   20   19 1
    19   21    1 2
    20   22    4 1
    21   23    1 1
    22   24   23 2
    23   25   23 2
    24   26    9 2
    25    6   22 1
    26   17   19 ar
    27   21   22 1
@<TRIPOS>SUBSTRUCTURE
     1 RES1 1

@<TRIPOS>CRYSIN
   9.1992    4.6213   25.2188  90.0000  93.3840  90.0000  14 1

