# MOL2 file generated by ConQuest
# Please check atom types

@<TRIPOS>MOLECULE
QEDGEO
    29    30     1
SMALL
NO_CHARGES
****
Generated from CSD

@<TRIPOS>ATOM
      1 C1         6.7956   11.3406    1.4098 C.2       1 RES1    0.0000
      2 C2         7.9536   11.1936    2.1693 C.2       1 RES1    0.0000
      3 H1         8.6208   10.5198    2.1056 H         1 RES1    0.0000
      4 C3         7.8953   12.2516    3.0261 C.2       1 RES1    0.0000
      5 H2         8.5393   12.4744    3.6889 H         1 RES1    0.0000
      6 C4         6.2582   14.1228    3.4234 C.3       1 RES1    0.0000
      7 H3         6.5502   14.1112    4.3689 H         1 RES1    0.0000
      8 H4         5.2677   14.1244    3.4090 H         1 RES1    0.0000
      9 C5         6.7759   15.3867    2.7496 C.2       1 RES1    0.0000
     10 C6         6.4186   16.6802    3.3678 C.ar      1 RES1    0.0000
     11 C7         7.0454   17.8384    2.8920 C.ar      1 RES1    0.0000
     12 H5         7.6804   17.7873    2.1875 H         1 RES1    0.0000
     13 C8         6.7257   19.0673    3.4641 C.ar      1 RES1    0.0000
     14 H6         7.1628   19.8504    3.1507 H         1 RES1    0.0000
     15 C9         5.7836   19.1796    4.4815 C.ar      1 RES1    0.0000
     16 C10        5.1558   18.0103    4.9281 C.ar      1 RES1    0.0000
     17 H7         4.4967   18.0654    5.6100 H         1 RES1    0.0000
     18 C11        5.4782   16.7803    4.3957 C.ar      1 RES1    0.0000
     19 H8         5.0582   15.9969    4.7297 H         1 RES1    0.0000
     20 C12        5.4764   20.5149    5.0915 C.3       1 RES1    0.0000
     21 H9         6.2968   21.0502    5.1356 H         1 RES1    0.0000
     22 H10        5.1209   20.3854    5.9958 H         1 RES1    0.0000
     23 H11        4.8119   20.9813    4.5423 H         1 RES1    0.0000
     24 N1         6.0549   12.3910    1.7496 N.2       1 RES1    0.0000
     25 N2         6.7436   12.9350    2.7588 N.pl3     1 RES1    0.0000
     26 N3         6.3290   10.4761    0.3570 N.pl3     1 RES1    0.0000
     27 O1         5.3546   10.8299   -0.3076 O.2       1 RES1    0.0000
     28 O2         6.9344    9.4209    0.1974 O.2       1 RES1    0.0000
     29 O3         7.4673   15.2979    1.7433 O.2       1 RES1    0.0000
@<TRIPOS>BOND
     1    1    2 1
     2    2    3 1
     3    4    2 2
     4    5    4 1
     5    6    7 1
     6    8    6 1
     7    9    6 1
     8   10    9 1
     9   11   10 ar
    10   12   11 1
    11   13   11 ar
    12   14   13 1
    13   15   13 ar
    14   16   15 ar
    15   17   16 1
    16   18   10 ar
    17   19   18 1
    18   20   15 1
    19   21   20 1
    20   22   20 1
    21   23   20 1
    22   24    1 2
    23   25    4 1
    24   26    1 1
    25   27   26 2
    26   28   26 2
    27   29    9 2
    28    6   25 1
    29   16   18 ar
    30   24   25 1
@<TRIPOS>SUBSTRUCTURE
     1 RES1 1

@<TRIPOS>CRYSIN
   8.9557   26.4849    4.7920  90.0000  90.0000  90.0000  33 1

