# MOL2 file generated by ConQuest
# Please check atom types

@<TRIPOS>MOLECULE
QEDHIT
    23    24     1
SMALL
NO_CHARGES
****
Generated from CSD

@<TRIPOS>ATOM
      1 C1         1.5101    2.9114   16.1709 C.2       1 RES1    0.0000
      2 C2         1.8324    2.2994   17.3812 C.2       1 RES1    0.0000
      3 H1         1.3007    2.2261   18.1653 H         1 RES1    0.0000
      4 C3         3.0930    1.8316   17.1671 C.2       1 RES1    0.0000
      5 H2         3.6279    1.3492   17.7876 H         1 RES1    0.0000
      6 C4         4.6312    1.8527   15.1690 C.ar      1 RES1    0.0000
      7 C5         5.9184    1.9567   15.6947 C.ar      1 RES1    0.0000
      8 C6         7.0262    1.5660   14.9519 C.ar      1 RES1    0.0000
      9 H3         7.8958    1.6117   15.3316 H         1 RES1    0.0000
     10 C7         6.8548    1.1113   13.6596 C.ar      1 RES1    0.0000
     11 H4         7.6112    0.8665   13.1406 H         1 RES1    0.0000
     12 C8         5.5885    1.0108   13.1196 C.ar      1 RES1    0.0000
     13 H5         5.4735    0.7015   12.2277 H         1 RES1    0.0000
     14 C9         4.4791    1.3630   13.8834 C.ar      1 RES1    0.0000
     15 H6         3.6078    1.2660   13.5183 H         1 RES1    0.0000
     16 N1         2.4664    2.8543   15.2525 N.2       1 RES1    0.0000
     17 N2         3.4466    2.1839   15.8978 N.pl3     1 RES1    0.0000
     18 N3         0.2831    3.5991   15.8460 N.pl3     1 RES1    0.0000
     19 N4         6.1857    2.4966   17.0368 N.pl3     1 RES1    0.0000
     20 O1         0.1407    4.0742   14.7253 O.2       1 RES1    0.0000
     21 O2        -0.5570    3.6724   16.7449 O.2       1 RES1    0.0000
     22 O3         7.1465    2.0461   17.6403 O.2       1 RES1    0.0000
     23 O4         5.4442    3.3742   17.4747 O.2       1 RES1    0.0000
@<TRIPOS>BOND
     1    1    2 1
     2    2    3 1
     3    4    2 2
     4    5    4 1
     5    6    7 ar
     6    7    8 ar
     7    8    9 1
     8   10    8 ar
     9   11   10 1
    10   12   10 ar
    11   13   12 1
    12   14    6 ar
    13   15   14 1
    14   16    1 2
    15   17    4 1
    16   18    1 1
    17   19    7 1
    18   20   18 2
    19   21   18 2
    20   22   19 2
    21   23   19 2
    22    6   17 1
    23   12   14 ar
    24   16   17 1
@<TRIPOS>SUBSTRUCTURE
     1 RES1 1

@<TRIPOS>CRYSIN
  10.0313    3.8374   25.1960  90.0000  96.9530  90.0000 231 1

