# MOL2 file generated by ConQuest
# Please check atom types

@<TRIPOS>MOLECULE
QEDHEP
    23    24     1
SMALL
NO_CHARGES
****
Generated from CSD

@<TRIPOS>ATOM
      1 C1         3.8537    5.8667    6.1752 C.2       1 RES1    0.0000
      2 C2         3.9422    5.5995    7.5408 C.2       1 RES1    0.0000
      3 H1         3.4826    6.0236    8.2555 H         1 RES1    0.0000
      4 C3         4.8468    4.5850    7.6026 C.2       1 RES1    0.0000
      5 H2         5.1543    4.1510    8.3894 H         1 RES1    0.0000
      6 C4         6.1859    3.3356    5.8810 C.ar      1 RES1    0.0000
      7 C5         6.4698    3.2106    4.5250 C.ar      1 RES1    0.0000
      8 H3         6.0349    3.7681    3.8903 H         1 RES1    0.0000
      9 C6         7.3958    2.2614    4.1073 C.ar      1 RES1    0.0000
     10 H4         7.6088    2.1613    3.1875 H         1 RES1    0.0000
     11 C7         8.0005    1.4646    5.0702 C.ar      1 RES1    0.0000
     12 C8         7.7223    1.5788    6.4160 C.ar      1 RES1    0.0000
     13 H5         8.1563    1.0189    7.0491 H         1 RES1    0.0000
     14 C9         6.7987    2.5232    6.8299 C.ar      1 RES1    0.0000
     15 H6         6.5858    2.6159    7.7508 H         1 RES1    0.0000
     16 N1         4.6233    5.1086    5.4092 N.2       1 RES1    0.0000
     17 N2         5.2299    4.3075    6.3179 N.pl3     1 RES1    0.0000
     18 N3         3.0639    6.9253    5.5718 N.pl3     1 RES1    0.0000
     19 N4         8.9799    0.4418    4.6530 N.pl3     1 RES1    0.0000
     20 O1         3.1381    7.0925    4.3575 O.2       1 RES1    0.0000
     21 O2         2.3813    7.6063    6.3299 O.2       1 RES1    0.0000
     22 O3         9.2886    0.3962    3.4636 O.2       1 RES1    0.0000
     23 O4         9.4119   -0.3216    5.5053 O.2       1 RES1    0.0000
@<TRIPOS>BOND
     1    1    2 1
     2    2    3 1
     3    4    2 2
     4    5    4 1
     5    6    7 ar
     6    7    8 1
     7    9    7 ar
     8   10    9 1
     9   11    9 ar
    10   12   11 ar
    11   13   12 1
    12   14    6 ar
    13   15   14 1
    14   16    1 2
    15   17    4 1
    16   18    1 1
    17   19   11 1
    18   20   18 2
    19   21   18 2
    20   22   19 2
    21   23   19 2
    22    6   17 1
    23   12   14 ar
    24   16   17 1
@<TRIPOS>SUBSTRUCTURE
     1 RES1 1

@<TRIPOS>CRYSIN
  17.1640    4.9032   11.0678  90.0000  90.0000  90.0000  29 1

