# MOL2 file generated by ConQuest
# Please check atom types

@<TRIPOS>MOLECULE
QEDHOZ
    66    46     3
SMALL
NO_CHARGES
****
Generated from CSD

@<TRIPOS>ATOM
      1 N1         0.2257    6.3372   11.8533 N.2       1 RES1    0.0000
      2 C1        -0.3964    6.7554   12.9402 C.2       1 RES1    0.0000
      3 C2        -0.5114    5.8082   13.9523 C.2       1 RES1    0.0000
      4 H1        -0.9163    5.9019   14.8071 H         1 RES1    0.0000
      5 C3         0.1006    4.7118   13.4167 C.2       1 RES1    0.0000
      6 H2         0.2120    3.8681   13.8375 H         1 RES1    0.0000
      7 N2         0.5244    5.0538   12.1589 N.pl3     1 RES1    0.0000
      8 C4         1.1681    4.2210   11.1946 C.ar      1 RES1    0.0000
      9 C5         1.5561    4.7592    9.9780 C.ar      1 RES1    0.0000
     10 H3         1.4062    5.6780    9.7915 H         1 RES1    0.0000
     11 C6         2.1627    3.9461    9.0386 C.ar      1 RES1    0.0000
     12 H4         2.4376    4.3064    8.2033 H         1 RES1    0.0000
     13 C7         2.3703    2.5997    9.3180 C.ar      1 RES1    0.0000
     14 C8         1.9859    2.0678   10.5456 C.ar      1 RES1    0.0000
     15 H5         2.1418    1.1505   10.7371 H         1 RES1    0.0000
     16 C9         1.3774    2.8781   11.4842 C.ar      1 RES1    0.0000
     17 H6         1.1044    2.5209   12.3216 H         1 RES1    0.0000
     18 C10        2.9925    1.7400    8.3374 C.1       1 RES1    0.0000
     19 N3         3.4731    1.0339    7.5934 N.1       1 RES1    0.0000
     20 N4        -0.8971    8.1018   12.9959 N.pl3     1 RES1    0.0000
     21 O1        -0.5854    8.9021   12.1288 O.2       1 RES1    0.0000
     22 O2        -1.6186    8.3760   13.9597 O.2       1 RES1    0.0000
     23 N5         2.1596    3.5846    9.3884 Du        3 SUP3    0.0000
     24 C11        2.5545    2.3716    9.0485 Du        3 SUP3    0.0000
     25 C12        2.2162    1.4707   10.0423 Du        3 SUP3    0.0000
     26 H7         2.3962    0.5373   10.0590 Du        3 SUP3    0.0000
     27 C13        1.5788    2.2020   10.9897 Du        3 SUP3    0.0000
     28 H8         1.2030    1.8547   11.7903 Du        3 SUP3    0.0000
     29 N6         1.5642    3.4882   10.6219 Du        3 SUP3    0.0000
     30 C14        0.9791    4.5913   11.3259 Du        3 SUP3    0.0000
     31 C15        0.8056    5.8042   10.6052 Du        3 SUP3    0.0000
     32 H9         1.1078    5.8870    9.7079 Du        3 SUP3    0.0000
     33 C16        0.1833    6.8611   11.2461 Du        3 SUP3    0.0000
     34 H10        0.0747    7.6983   10.8077 Du        3 SUP3    0.0000
     35 C17       -0.2878    6.6766   12.5557 Du        3 SUP3    0.0000
     36 C18       -0.0841    5.5166   13.2857 Du        3 SUP3    0.0000
     37 H11       -0.3810    5.4230   14.1848 Du        3 SUP3    0.0000
     38 C19        0.5611    4.5316   12.6337 Du        3 SUP3    0.0000
     39 H12        0.7462    3.7338   13.1148 Du        3 SUP3    0.0000
     40 C20       -0.9595    7.8068   13.1947 Du        3 SUP3    0.0000
     41 N7        -1.7125    8.5340   13.6610 Du        3 SUP3    0.0000
     42 N8         3.2071    2.1898    7.7872 Du        3 SUP3    0.0000
     43 O3         3.3826    3.1640    7.0776 Du        3 SUP3    0.0000
     44 O4         3.5763    1.0908    7.3711 Du        3 SUP3    0.0000
     45 N1B        3.3447    7.2304    6.7229 N.2       2 RES2    0.0000
     46 C1B        3.9668    6.8122    5.6360 C.2       2 RES2    0.0000
     47 C2B        4.0818    7.7594    4.6240 C.2       2 RES2    0.0000
     48 H1B        4.4867    7.6657    3.7691 H         2 RES2    0.0000
     49 C3B        3.4698    8.8558    5.1596 C.2       2 RES2    0.0000
     50 H2B        3.3584    9.6995    4.7388 H         2 RES2    0.0000
     51 N2B        3.0460    8.5138    6.4174 N.pl3     2 RES2    0.0000
     52 C4B        2.4023    9.3466    7.3816 C.ar      2 RES2    0.0000
     53 C5B        2.0143    8.8084    8.5982 C.ar      2 RES2    0.0000
     54 H3B        2.1642    7.8896    8.7847 H         2 RES2    0.0000
     55 C6B        1.4077    9.6215    9.5376 C.ar      2 RES2    0.0000
     56 H4B        1.1328    9.2612   10.3730 H         2 RES2    0.0000
     57 C7B        1.2001   10.9679    9.2582 C.ar      2 RES2    0.0000
     58 C8B        1.5844   11.4998    8.0307 C.ar      2 RES2    0.0000
     59 H5B        1.4285   12.4171    7.8392 H         2 RES2    0.0000
     60 C9B        2.1929   10.6895    7.0920 C.ar      2 RES2    0.0000
     61 H6B        2.4660   11.0467    6.2546 H         2 RES2    0.0000
     62 C10B       0.5778   11.8276   10.2389 C.1       2 RES2    0.0000
     63 N3B        0.0973   12.5337   10.9828 N.1       2 RES2    0.0000
     64 N4B        4.4675    5.4658    5.5803 N.pl3     2 RES2    0.0000
     65 O1B        4.1558    4.6655    6.4474 O.2       2 RES2    0.0000
     66 O2B        5.1890    5.1916    4.6166 O.2       2 RES2    0.0000
@<TRIPOS>BOND
     1    1    2 2
     2    2    3 1
     3    3    4 1
     4    5    3 2
     5    6    5 1
     6    7    1 1
     7    8    7 1
     8    9    8 ar
     9   10    9 1
    10   11    9 ar
    11   12   11 1
    12   13   11 ar
    13   14   13 ar
    14   15   14 1
    15   16    8 ar
    16   17   16 1
    17   18   13 1
    18   19   18 3
    19   20    2 1
    20   21   20 2
    21   22   20 2
    22   45   46 2
    23   46   47 1
    24   47   48 1
    25   49   47 2
    26   50   49 1
    27   51   45 1
    28   52   51 1
    29   53   52 ar
    30   54   53 1
    31   55   53 ar
    32   56   55 1
    33   57   55 ar
    34   58   57 ar
    35   59   58 1
    36   60   52 ar
    37   61   60 1
    38   62   57 1
    39   63   62 3
    40   64   46 1
    41   65   64 2
    42   66   64 2
    43    5    7 1
    44   14   16 ar
    45   49   51 1
    46   58   60 ar
@<TRIPOS>SUBSTRUCTURE
     1 RES1 1
     2 RES2 45
     3 SUP3 23

@<TRIPOS>CRYSIN
   3.7941   13.5676   18.5776  90.0000  90.6900  90.0000 231 1

