# MOL2 file generated by ConQuest
# Please check atom types

@<TRIPOS>MOLECULE
QEDHUF
    44    46     2
SMALL
NO_CHARGES
****
Generated from CSD

@<TRIPOS>ATOM
      1 C1         3.2890    5.3231   11.1846 C.2       1 RES1    0.0000
      2 C2         2.1586    4.7170   10.6411 C.2       1 RES1    0.0000
      3 H1         1.3521    4.4718   11.0787 H         1 RES1    0.0000
      4 C3         2.4929    4.5598    9.3247 C.2       1 RES1    0.0000
      5 H2         1.9512    4.1743    8.6461 H         1 RES1    0.0000
      6 C4         4.4833    5.1435    7.9516 C.ar      1 RES1    0.0000
      7 C5         3.8153    5.5286    6.8059 C.ar      1 RES1    0.0000
      8 H3         2.8950    5.7621    6.8469 H         1 RES1    0.0000
      9 C6         4.4920    5.5739    5.5902 C.ar      1 RES1    0.0000
     10 H4         4.0301    5.8354    4.8025 H         1 RES1    0.0000
     11 C7         5.8330    5.2401    5.5220 C.ar      1 RES1    0.0000
     12 H5         6.2905    5.2779    4.6904 H         1 RES1    0.0000
     13 C8         6.5095    4.8501    6.6679 C.ar      1 RES1    0.0000
     14 H6         7.4284    4.6169    6.6193 H         1 RES1    0.0000
     15 C9         5.8426    4.7998    7.8948 C.ar      1 RES1    0.0000
     16 C10        6.5730    4.3723    9.0616 C.1       1 RES1    0.0000
     17 N1         4.2708    5.5503   10.3209 N.2       1 RES1    0.0000
     18 N2         3.7532    5.0608    9.1708 N.pl3     1 RES1    0.0000
     19 N3         3.4636    5.7082   12.5724 N.pl3     1 RES1    0.0000
     20 N4         7.2058    4.0285    9.9551 N.1       1 RES1    0.0000
     21 O1         4.5202    6.2186   12.9241 O.2       1 RES1    0.0000
     22 O2         2.5163    5.4798   13.3221 O.2       1 RES1    0.0000
     23 C11        0.4230    6.9049    6.1366 C.2       2 RES2    0.0000
     24 C12        0.1690    8.2546    6.3714 C.2       2 RES2    0.0000
     25 H7         0.2325    8.9823    5.7637 H         2 RES2    0.0000
     26 C13       -0.1940    8.2778    7.6897 C.2       2 RES2    0.0000
     27 H8        -0.4370    9.0455    8.1941 H         2 RES2    0.0000
     28 C14       -0.4950    6.5292    9.4433 C.ar      2 RES2    0.0000
     29 C15       -0.0995    7.2604   10.5504 C.ar      2 RES2    0.0000
     30 H9         0.4094    8.0555   10.4442 H         2 RES2    0.0000
     31 C16       -0.4556    6.8199   11.8191 C.ar      2 RES2    0.0000
     32 H10       -0.1941    7.3226   12.5821 H         2 RES2    0.0000
     33 C17       -1.1908    5.6521   11.9849 C.ar      2 RES2    0.0000
     34 H11       -1.4195    5.3540   12.8570 H         2 RES2    0.0000
     35 C18       -1.5904    4.9230   10.8759 C.ar      2 RES2    0.0000
     36 H12       -2.0940    4.1255   10.9875 H         2 RES2    0.0000
     37 C19       -1.2513    5.3614    9.5928 C.ar      2 RES2    0.0000
     38 C20       -1.7471    4.6167    8.4640 C.1       2 RES2    0.0000
     39 N5         0.2484    6.1181    7.1901 N.2       2 RES2    0.0000
     40 N6        -0.1418    6.9943    8.1439 N.pl3     2 RES2    0.0000
     41 N7         0.8537    6.3214    4.8827 N.pl3     2 RES2    0.0000
     42 N8        -2.1946    3.9934    7.6083 N.1       2 RES2    0.0000
     43 O3         1.0932    5.1185    4.8353 O.2       2 RES2    0.0000
     44 O4         0.9513    7.0916    3.9289 O.2       2 RES2    0.0000
@<TRIPOS>BOND
     1    1    2 1
     2    2    3 1
     3    4    2 2
     4    5    4 1
     5    6    7 ar
     6    7    8 1
     7    9    7 ar
     8   10    9 1
     9   11    9 ar
    10   12   11 1
    11   13   11 ar
    12   14   13 1
    13   15    6 ar
    14   16   15 1
    15   17    1 2
    16   18    4 1
    17   19    1 1
    18   20   16 3
    19   21   19 2
    20   22   19 2
    21   23   24 1
    22   24   25 1
    23   26   24 2
    24   27   26 1
    25   28   29 ar
    26   29   30 1
    27   31   29 ar
    28   32   31 1
    29   33   31 ar
    30   34   33 1
    31   35   33 ar
    32   36   35 1
    33   37   28 ar
    34   38   37 1
    35   39   23 2
    36   40   26 1
    37   41   23 1
    38   42   38 3
    39   43   41 2
    40   44   41 2
    41    6   18 1
    42   13   15 ar
    43   17   18 1
    44   28   40 1
    45   35   37 ar
    46   39   40 1
@<TRIPOS>SUBSTRUCTURE
     1 RES1 1
     2 RES2 23

@<TRIPOS>CRYSIN
  11.9915   14.3694   11.2447  90.0000 102.0398  90.0000  14 1

