# MOL2 file generated by ConQuest
# Please check atom types

@<TRIPOS>MOLECULE
QEDJIV
    44    46     2
SMALL
NO_CHARGES
****
Generated from CSD

@<TRIPOS>ATOM
      1 C1         9.5719   -0.8637   13.4704 C.2       1 RES1    0.0000
      2 C2         9.6230   -0.5350   14.8326 C.2       1 RES1    0.0000
      3 H1        10.1499   -0.9328   15.5161 H         1 RES1    0.0000
      4 C3         8.7294    0.4965   14.9415 C.2       1 RES1    0.0000
      5 H2         8.5143    0.9817   15.7300 H         1 RES1    0.0000
      6 C4         7.1931    1.6234   13.3326 C.ar      1 RES1    0.0000
      7 C5         6.6783    1.6535   12.0360 C.ar      1 RES1    0.0000
      8 H3         6.9919    1.0587   11.3639 H         1 RES1    0.0000
      9 C6         5.6959    2.5824   11.7716 C.ar      1 RES1    0.0000
     10 H4         5.3005    2.6465   10.9110 H         1 RES1    0.0000
     11 C7         5.3043    3.4214   12.8061 C.ar      1 RES1    0.0000
     12 C8         5.8806    3.3242   14.0555 C.ar      1 RES1    0.0000
     13 H5         5.5966    3.9180   14.7402 H         1 RES1    0.0000
     14 N1         8.7221   -0.1466   12.7626 N.2       1 RES1    0.0000
     15 N2         8.2044    0.6920   13.6891 N.pl3     1 RES1    0.0000
     16 N3         6.8269    2.4200   14.3333 N.ar      1 RES1    0.0000
     17 N4        10.3269   -1.9210   12.8245 N.pl3     1 RES1    0.0000
     18 N5         4.2782    4.4441   12.5930 N.pl3     1 RES1    0.0000
     19 O1        10.2729   -2.0217   11.6044 O.2       1 RES1    0.0000
     20 O2        10.9733   -2.6589   13.5643 O.2       1 RES1    0.0000
     21 O3         3.9999    5.1825   13.5400 O.2       1 RES1    0.0000
     22 O4         3.7612    4.5122   11.4902 O.2       1 RES1    0.0000
     23 C9        14.1685    1.5982    7.5244 C.2       2 RES2    0.0000
     24 C10       14.2377    1.9373    6.1657 C.2       2 RES2    0.0000
     25 H6        14.7763    1.5478    5.4859 H         2 RES2    0.0000
     26 C11       13.3460    2.9604    6.0557 C.2       2 RES2    0.0000
     27 H7        13.1320    3.4382    5.2636 H         2 RES2    0.0000
     28 C12       11.8155    4.1149    7.6465 C.ar      2 RES2    0.0000
     29 C13       11.3110    4.1717    8.9395 C.ar      2 RES2    0.0000
     30 H8        11.6270    3.5873    9.6192 H         2 RES2    0.0000
     31 C14       10.3267    5.1163    9.2019 C.ar      2 RES2    0.0000
     32 H9         9.9391    5.1993   10.0658 H         2 RES2    0.0000
     33 C15        9.9337    5.9312    8.1567 C.ar      2 RES2    0.0000
     34 C16       10.4979    5.8108    6.8985 C.ar      2 RES2    0.0000
     35 H10       10.2074    6.3898    6.2031 H         2 RES2    0.0000
     36 N6        13.3185    2.3292    8.2349 N.2       2 RES2    0.0000
     37 N7        12.8169    3.1717    7.3011 N.pl3     2 RES2    0.0000
     38 N8        11.4418    4.9012    6.6357 N.ar      2 RES2    0.0000
     39 N9        14.9067    0.5326    8.1798 N.pl3     2 RES2    0.0000
     40 N10        8.9022    6.9505    8.3540 N.pl3     2 RES2    0.0000
     41 O5        14.8005    0.4013    9.3908 O.2       2 RES2    0.0000
     42 O6        15.5744   -0.1890    7.4431 O.2       2 RES2    0.0000
     43 O7         8.6284    7.6765    7.3948 O.2       2 RES2    0.0000
     44 O8         8.3685    7.0353    9.4514 O.2       2 RES2    0.0000
@<TRIPOS>BOND
     1    1    2 1
     2    2    3 1
     3    4    2 2
     4    5    4 1
     5    6    7 ar
     6    7    8 1
     7    9    7 ar
     8   10    9 1
     9   11    9 ar
    10   12   11 ar
    11   13   12 1
    12   14    1 2
    13   15    4 1
    14   16    6 ar
    15   17    1 1
    16   18   11 1
    17   19   17 2
    18   20   17 2
    19   21   18 2
    20   22   18 2
    21   23   24 1
    22   24   25 1
    23   26   24 2
    24   27   26 1
    25   28   29 ar
    26   29   30 1
    27   31   29 ar
    28   32   31 1
    29   33   31 ar
    30   34   33 ar
    31   35   34 1
    32   36   23 2
    33   37   26 1
    34   38   28 ar
    35   39   23 1
    36   40   33 1
    37   41   39 2
    38   42   39 2
    39   43   40 2
    40   44   40 2
    41    6   15 1
    42   12   16 ar
    43   14   15 1
    44   28   37 1
    45   34   38 ar
    46   36   37 1
@<TRIPOS>SUBSTRUCTURE
     1 RES1 1
     2 RES2 23

@<TRIPOS>CRYSIN
  17.4187    4.9357   20.9705  90.0000  90.0000  90.0000  29 1

