# MOL2 file generated by ConQuest
# Please check atom types

@<TRIPOS>MOLECULE
QEDKER
   100   104     2
SMALL
NO_CHARGES
****
Generated from CSD

@<TRIPOS>ATOM
      1 O1         8.6126   10.8451   28.6527 O.2       1 RES1    0.0000
      2 O2         6.6871    9.8848   28.4833 O.2       1 RES1    0.0000
      3 O3         5.9903   16.1249   25.1417 O.2       1 RES1    0.0000
      4 O4         2.5915    2.0197   10.9798 O.2       2 RES2    0.0000
      5 O5         4.5335    2.9391   10.7802 O.2       2 RES2    0.0000
      6 O6         2.0375    8.2340   14.3001 O.2       2 RES2    0.0000
      7 N1         7.4592   10.7827   28.2323 N.pl3     1 RES1    0.0000
      8 N2         5.3288   14.7514   23.4517 N.am      1 RES1    0.0000
      9 N3         3.3957    2.8894   11.2424 N.pl3     2 RES2    0.0000
     10 N4         1.4011    6.9267   16.0547 N.am      2 RES2    0.0000
     11 C1         7.0204   11.8629   27.3182 C.ar      1 RES1    0.0000
     12 C2         5.7047   11.8412   26.8491 C.ar      1 RES1    0.0000
     13 H1         5.0964   11.1663   27.1270 H         1 RES1    0.0000
     14 C3         5.3147   12.8389   25.9650 C.ar      1 RES1    0.0000
     15 H2         4.4275   12.8458   25.6231 H         1 RES1    0.0000
     16 C4         6.2090   13.8211   25.5770 C.ar      1 RES1    0.0000
     17 C5         7.5104   13.8294   26.0867 C.ar      1 RES1    0.0000
     18 H3         8.1193   14.5097   25.8259 H         1 RES1    0.0000
     19 C6         7.9121   12.8374   26.9787 C.ar      1 RES1    0.0000
     20 H4         8.7899   12.8401   27.3429 H         1 RES1    0.0000
     21 C7         5.8204   14.9930   24.6916 C.2       1 RES1    0.0000
     22 C8         4.9551   15.8895   22.5789 C.3       1 RES1    0.0000
     23 H5         4.6372   15.4881   21.7200 H         1 RES1    0.0000
     24 C9         3.7765   16.6980   23.1325 C.3       1 RES1    0.0000
     25 H6         4.0388   17.1338   23.9823 H         1 RES1    0.0000
     26 H7         3.0133   16.0954   23.3160 H         1 RES1    0.0000
     27 C10        3.3620   17.7642   22.1058 C.3       1 RES1    0.0000
     28 H8         3.0111   17.3185   21.2934 H         1 RES1    0.0000
     29 H9         2.6364   18.3206   22.4864 H         1 RES1    0.0000
     30 C11        4.5310   18.6570   21.7232 C.3       1 RES1    0.0000
     31 H10        4.8191   19.1775   22.5154 H         1 RES1    0.0000
     32 H11        4.2400   19.2976   21.0274 H         1 RES1    0.0000
     33 C12        5.7096   17.8403   21.1985 C.3       1 RES1    0.0000
     34 H12        6.4717   18.4432   21.0115 H         1 RES1    0.0000
     35 H13        5.4526   17.3974   20.3505 H         1 RES1    0.0000
     36 C13        6.1369   16.7822   22.2173 C.3       1 RES1    0.0000
     37 H14        6.8655   16.2298   21.8359 H         1 RES1    0.0000
     38 H15        6.4801   17.2255   23.0342 H         1 RES1    0.0000
     39 C14        5.2816   13.3998   22.8428 C.3       1 RES1    0.0000
     40 H16        5.5858   12.7458   23.5346 H         1 RES1    0.0000
     41 C15        6.2340   13.2833   21.6507 C.3       1 RES1    0.0000
     42 H17        7.1575   13.4850   21.9439 H         1 RES1    0.0000
     43 H18        5.9793   13.9422   20.9562 H         1 RES1    0.0000
     44 C16        6.1783   11.8696   21.0616 C.3       1 RES1    0.0000
     45 H19        6.7746   11.8167   20.2741 H         1 RES1    0.0000
     46 H20        6.4997   11.2180   21.7332 H         1 RES1    0.0000
     47 C17        4.7501   11.5095   20.6463 C.3       1 RES1    0.0000
     48 H21        4.4512   12.1200   19.9265 H         1 RES1    0.0000
     49 H22        4.7298   10.5846   20.2952 H         1 RES1    0.0000
     50 C18        3.8055   11.6232   21.8343 C.3       1 RES1    0.0000
     51 H23        4.0597   10.9553   22.5207 H         1 RES1    0.0000
     52 H24        2.8819   11.4209   21.5383 H         1 RES1    0.0000
     53 C19        3.8438   13.0234   22.4530 C.3       1 RES1    0.0000
     54 H25        3.2661   13.0473   23.2555 H         1 RES1    0.0000
     55 H26        3.4937   13.6831   21.8017 H         1 RES1    0.0000
     56 C20        3.0061    3.9528   12.2003 C.ar      2 RES2    0.0000
     57 C21        1.7033    3.9417   12.6975 C.ar      2 RES2    0.0000
     58 H27        1.0797    3.2747   12.4336 H         2 RES2    0.0000
     59 C22        1.3513    4.9458   13.5961 C.ar      2 RES2    0.0000
     60 H28        0.4769    4.9598   13.9691 H         2 RES2    0.0000
     61 C23        2.2629    5.9227   13.9522 C.ar      2 RES2    0.0000
     62 C24        3.5467    5.9137   13.4165 C.ar      2 RES2    0.0000
     63 H29        4.1661    6.5913   13.6583 H         2 RES2    0.0000
     64 C25        3.9258    4.9134   12.5271 C.ar      2 RES2    0.0000
     65 H30        4.8004    4.8968   12.1571 H         2 RES2    0.0000
     66 C26        1.8840    7.1256   14.8005 C.2       2 RES2    0.0000
     67 C27        0.9822    8.0943   16.8630 C.3       2 RES2    0.0000
     68 H31        0.6749    7.7313   17.7431 H         2 RES2    0.0000
     69 C28        2.1328    9.0456   17.1687 C.3       2 RES2    0.0000
     70 H32        2.4896    9.4153   16.3236 H         2 RES2    0.0000
     71 H33        2.8616    8.5484   17.6194 H         2 RES2    0.0000
     72 C29        1.6673   10.1912   18.0676 C.3       2 RES2    0.0000
     73 H34        2.4118   10.8295   18.2040 H         2 RES2    0.0000
     74 H35        1.4050    9.8322   18.9520 H         2 RES2    0.0000
     75 C30        0.4719   10.9211   17.4329 C.3       2 RES2    0.0000
     76 H36        0.1613   11.6368   18.0408 H         2 RES2    0.0000
     77 H37        0.7553   11.3416   16.5817 H         2 RES2    0.0000
     78 C31       -0.6672    9.9557   17.1648 C.3       2 RES2    0.0000
     79 H38       -1.4195   10.4440   16.7450 H         2 RES2    0.0000
     80 H39       -0.9877    9.5799   18.0223 H         2 RES2    0.0000
     81 C32       -0.2271    8.8180   16.2462 C.3       2 RES2    0.0000
     82 H40        0.0177    9.1803   15.3570 H         2 RES2    0.0000
     83 H41       -0.9732    8.1781   16.1234 H         2 RES2    0.0000
     84 C33        1.3940    5.6124   16.7286 C.3       2 RES2    0.0000
     85 H42        1.7201    4.9338   16.0708 H         2 RES2    0.0000
     86 C34       -0.0194    5.2021   17.1508 C.3       2 RES2    0.0000
     87 H43       -0.6045    5.1663   16.3526 H         2 RES2    0.0000
     88 H44       -0.3880    5.8807   17.7695 H         2 RES2    0.0000
     89 C35       -0.0097    3.8341   17.8387 C.3       2 RES2    0.0000
     90 H45       -0.9239    3.6150   18.1487 H         2 RES2    0.0000
     91 H46        0.2688    3.1414   17.1901 H         2 RES2    0.0000
     92 C36        0.9462    3.8276   19.0318 C.3       2 RES2    0.0000
     93 H47        0.6254    4.4666   19.7158 H         2 RES2    0.0000
     94 H48        0.9626    2.9252   19.4366 H         2 RES2    0.0000
     95 C37        2.3581    4.2157   18.5938 C.3       2 RES2    0.0000
     96 H49        2.7033    3.5421   17.9565 H         2 RES2    0.0000
     97 H50        2.9572    4.2282   19.3813 H         2 RES2    0.0000
     98 C38        2.3570    5.5936   17.9301 C.3       2 RES2    0.0000
     99 H51        3.2722    5.8157   17.6246 H         2 RES2    0.0000
    100 H52        2.0787    6.2787   18.5886 H         2 RES2    0.0000
@<TRIPOS>BOND
     1    1    7 2
     2    2    7 2
     3    3   21 2
     4    4    9 2
     5    5    9 2
     6    6   66 2
     7    7   11 1
     8    8   21 1
     9    9   56 1
    10   10   66 1
    11   11   12 ar
    12   12   13 1
    13   14   12 ar
    14   15   14 1
    15   16   14 ar
    16   17   16 ar
    17   18   17 1
    18   19   11 ar
    19   20   19 1
    20   21   16 1
    21   22    8 1
    22   23   22 1
    23   24   22 1
    24   25   24 1
    25   26   24 1
    26   27   24 1
    27   28   27 1
    28   29   27 1
    29   30   27 1
    30   31   30 1
    31   32   30 1
    32   33   30 1
    33   34   33 1
    34   35   33 1
    35   36   22 1
    36   37   36 1
    37   38   36 1
    38   39    8 1
    39   40   39 1
    40   41   39 1
    41   42   41 1
    42   43   41 1
    43   44   41 1
    44   45   44 1
    45   46   44 1
    46   47   44 1
    47   48   47 1
    48   49   47 1
    49   50   47 1
    50   51   50 1
    51   52   50 1
    52   53   39 1
    53   54   53 1
    54   55   53 1
    55   56   57 ar
    56   57   58 1
    57   59   57 ar
    58   60   59 1
    59   61   59 ar
    60   62   61 ar
    61   63   62 1
    62   64   56 ar
    63   65   64 1
    64   66   61 1
    65   67   10 1
    66   68   67 1
    67   69   67 1
    68   70   69 1
    69   71   69 1
    70   72   69 1
    71   73   72 1
    72   74   72 1
    73   75   72 1
    74   76   75 1
    75   77   75 1
    76   78   75 1
    77   79   78 1
    78   80   78 1
    79   81   67 1
    80   82   81 1
    81   83   81 1
    82   84   10 1
    83   85   84 1
    84   86   84 1
    85   87   86 1
    86   88   86 1
    87   89   86 1
    88   90   89 1
    89   91   89 1
    90   92   89 1
    91   93   92 1
    92   94   92 1
    93   95   92 1
    94   96   95 1
    95   97   95 1
    96   98   84 1
    97   99   98 1
    98  100   98 1
    99   17   19 ar
   100   33   36 1
   101   50   53 1
   102   62   64 ar
   103   78   81 1
   104   95   98 1
@<TRIPOS>SUBSTRUCTURE
     1 RES1 1
     2 RES2 4

@<TRIPOS>CRYSIN
   6.1874   10.7109   26.8188  79.1280  89.0270  82.8830   2 1

