# MOL2 file generated by ConQuest
# Please check atom types

@<TRIPOS>MOLECULE
QEDKAO
    21    22     1
SMALL
NO_CHARGES
****
Generated from CSD

@<TRIPOS>ATOM
      1 C1         0.0056    8.0140    7.0828 C.2       1 RES1    0.0000
      2 C2         0.0063    6.8262    6.3526 C.2       1 RES1    0.0000
      3 H1        -0.2851    6.6839    5.4604 H         1 RES1    0.0000
      4 C3         0.5255    5.9184    7.2267 C.2       1 RES1    0.0000
      5 H2         0.6726    4.9945    7.0587 H         1 RES1    0.0000
      6 C4         1.5667    4.7002    9.7259 C.ar      1 RES1    0.0000
      7 H3         1.4385    4.1414    8.9688 H         1 RES1    0.0000
      8 C5         1.2894    6.0624    9.6130 C.ar      1 RES1    0.0000
      9 C6         1.4754    6.8960   10.7031 C.ar      1 RES1    0.0000
     10 H4         1.2921    7.8265   10.6445 H         1 RES1    0.0000
     11 C7         1.9368    6.3344   11.8818 C.ar      1 RES1    0.0000
     12 H5         2.0811    6.8698   12.6540 H         1 RES1    0.0000
     13 C8         2.1828    4.9715   11.9085 C.ar      1 RES1    0.0000
     14 C9         2.6958    4.3107   13.0970 C.1       1 RES1    0.0000
     15 N1         0.4751    7.8981    8.3124 N.2       1 RES1    0.0000
     16 N2         0.7954    6.5856    8.3880 N.pl3     1 RES1    0.0000
     17 N3         2.0032    4.1569   10.8565 N.ar      1 RES1    0.0000
     18 N4        -0.4863    9.2964    6.6427 N.pl3     1 RES1    0.0000
     19 N5         3.1168    3.7591   14.0109 N.1       1 RES1    0.0000
     20 O1        -1.1558    9.3015    5.6127 O.2       1 RES1    0.0000
     21 O2        -0.2179   10.2949    7.3074 O.2       1 RES1    0.0000
@<TRIPOS>BOND
     1    1    2 1
     2    2    3 1
     3    4    2 2
     4    5    4 1
     5    6    7 1
     6    8    6 ar
     7    9    8 ar
     8   10    9 1
     9   11    9 ar
    10   12   11 1
    11   13   11 ar
    12   14   13 1
    13   15    1 2
    14   16    4 1
    15   17    6 ar
    16   18    1 1
    17   19   14 3
    18   20   18 2
    19   21   18 2
    20    8   16 1
    21   13   17 ar
    22   15   16 1
@<TRIPOS>SUBSTRUCTURE
     1 RES1 1

@<TRIPOS>CRYSIN
   6.9695   11.9143   22.1069  90.0000  90.0000  90.0000  61 1

