# MOL2 file generated by ConQuest
# Please check atom types

@<TRIPOS>MOLECULE
QEDQIC
    36    38     1
SMALL
NO_CHARGES
****
Generated from CSD

@<TRIPOS>ATOM
      1 O1        11.7971    6.8019    0.5706 O.2       1 RES1    0.0000
      2 O2        10.1739    6.6563   -0.9593 O.3       1 RES1    0.0000
      3 O3        11.1087    1.6327    1.9157 O.3       1 RES1    0.0000
      4 H1        11.8544    1.3046    1.7124 H         1 RES1    0.0000
      5 N1        10.8290    2.6953    1.0777 N.pl3     1 RES1    0.0000
      6 C1         9.5746    8.3199   -2.5314 C.3       1 RES1    0.0000
      7 H2         9.7498    7.6986   -3.2686 H         1 RES1    0.0000
      8 H3         9.7347    9.2379   -2.8336 H         1 RES1    0.0000
      9 H4         8.6420    8.2287   -2.2424 H         1 RES1    0.0000
     10 C2        10.4864    8.0059   -1.3854 C.3       1 RES1    0.0000
     11 H5        11.4325    8.0669   -1.6711 H         1 RES1    0.0000
     12 H6        10.3398    8.6437   -0.6433 H         1 RES1    0.0000
     13 C3        10.9257    6.1447    0.0170 C.2       1 RES1    0.0000
     14 C4        10.6157    4.7543    0.2847 C.2       1 RES1    0.0000
     15 C5         9.8024    3.8687   -0.5176 C.ar      1 RES1    0.0000
     16 C6         8.9253    4.0250   -1.6011 C.ar      1 RES1    0.0000
     17 H7         8.7899    4.8786   -1.9958 H         1 RES1    0.0000
     18 C7         8.2614    2.9155   -2.0828 C.ar      1 RES1    0.0000
     19 H8         7.6485    3.0199   -2.8015 H         1 RES1    0.0000
     20 C8         8.4659    1.6403   -1.5410 C.ar      1 RES1    0.0000
     21 H9         7.9982    0.8973   -1.9039 H         1 RES1    0.0000
     22 C9         9.3344    1.4472   -0.4915 C.ar      1 RES1    0.0000
     23 H10        9.4892    0.5844   -0.1241 H         1 RES1    0.0000
     24 C10        9.9747    2.5784    0.0047 C.ar      1 RES1    0.0000
     25 C11       11.1985    3.9862    1.2928 C.2       1 RES1    0.0000
     26 C12       11.9533    4.3852    2.4938 C.ar      1 RES1    0.0000
     27 C13       13.1246    3.7450    2.8775 C.ar      1 RES1    0.0000
     28 H11       13.4951    3.0634    2.3282 H         1 RES1    0.0000
     29 C14       13.7551    4.0993    4.0602 C.ar      1 RES1    0.0000
     30 H12       14.5524    3.6554    4.3225 H         1 RES1    0.0000
     31 C15       13.2286    5.0949    4.8576 C.ar      1 RES1    0.0000
     32 H13       13.6581    5.3261    5.6734 H         1 RES1    0.0000
     33 C16       12.0810    5.7539    4.4733 C.ar      1 RES1    0.0000
     34 H14       11.7283    6.4515    5.0133 H         1 RES1    0.0000
     35 C17       11.4429    5.3958    3.2990 C.ar      1 RES1    0.0000
     36 H15       10.6475    5.8454    3.0404 H         1 RES1    0.0000
@<TRIPOS>BOND
     1    1   13 2
     2    2   10 1
     3    3    4 1
     4    5    3 1
     5    6    7 1
     6    8    6 1
     7    9    6 1
     8   10    6 1
     9   11   10 1
    10   12   10 1
    11   13    2 1
    12   14   13 1
    13   15   14 1
    14   16   15 ar
    15   17   16 1
    16   18   16 ar
    17   19   18 1
    18   20   18 ar
    19   21   20 1
    20   22   20 ar
    21   23   22 1
    22   24    5 1
    23   25    5 1
    24   26   25 1
    25   27   26 ar
    26   28   27 1
    27   29   27 ar
    28   30   29 1
    29   31   29 ar
    30   32   31 1
    31   33   31 ar
    32   34   33 1
    33   35   26 ar
    34   36   35 1
    35   14   25 2
    36   15   24 ar
    37   22   24 ar
    38   33   35 ar
@<TRIPOS>SUBSTRUCTURE
     1 RES1 1

@<TRIPOS>CRYSIN
  16.8100   10.8630   15.3170  90.0000  90.0000  90.0000  60 1

