# MOL2 file generated by ConQuest
# Please check atom types

@<TRIPOS>MOLECULE
QEDTAW
    82    84     2
SMALL
NO_CHARGES
****
Generated from CSD

@<TRIPOS>ATOM
      1 C1         3.2257   11.1835   12.6837 C.ar      1 RES1    0.0000
      2 C2         2.2735   10.2747   13.0946 C.ar      1 RES1    0.0000
      3 H1         2.1814    9.4414   12.6485 H         1 RES1    0.0000
      4 C3         1.4530   10.5879   14.1663 C.ar      1 RES1    0.0000
      5 H2         0.7978    9.9702   14.4694 H         1 RES1    0.0000
      6 C4         1.6018   11.8092   14.7862 C.ar      1 RES1    0.0000
      7 N1         0.6848   12.1737   15.8638 N.pl3     1 RES1    0.0000
      8 O1         0.0307   11.2795   16.4021 O.2       1 RES1    0.0000
      9 O2         0.5995   13.3575   16.1797 O.2       1 RES1    0.0000
     10 C5         2.5714   12.7181   14.4022 C.ar      1 RES1    0.0000
     11 H3         2.6701   13.5448   14.8605 H         1 RES1    0.0000
     12 C6         3.3925   12.3985   13.3411 C.ar      1 RES1    0.0000
     13 H4         4.0678   13.0042   13.0610 H         1 RES1    0.0000
     14 O3         4.0813   10.9623   11.6366 O.3       1 RES1    0.0000
     15 C7         3.7250    9.9968   10.6840 C.ar      1 RES1    0.0000
     16 C8         2.6912   10.2297    9.8099 C.ar      1 RES1    0.0000
     17 H5         2.1574   11.0101    9.8988 H         1 RES1    0.0000
     18 C9         2.4325    9.3207    8.8008 C.ar      1 RES1    0.0000
     19 H6         1.7142    9.4750    8.1971 H         1 RES1    0.0000
     20 C10        3.2143    8.1860    8.6630 C.ar      1 RES1    0.0000
     21 C11        4.2327    7.9480    9.5677 C.ar      1 RES1    0.0000
     22 H7         4.7606    7.1620    9.4925 H         1 RES1    0.0000
     23 C12        4.4844    8.8567   10.5857 C.ar      1 RES1    0.0000
     24 H8         5.1790    8.6914   11.2126 H         1 RES1    0.0000
     25 N2         2.9291    7.2942    7.5931 N.am      1 RES1    0.0000
     26 H9         2.0822    7.1350    7.4150 H         1 RES1    0.0000
     27 C13        3.8527    6.6708    6.8281 C.2       1 RES1    0.0000
     28 O4         5.0591    6.7039    7.0603 O.2       1 RES1    0.0000
     29 C14        3.2799    5.9736    5.6121 C.3       1 RES1    0.0000
     30 H10        2.4702    5.4743    5.8843 H         1 RES1    0.0000
     31 H11        3.0018    6.6597    4.9555 H         1 RES1    0.0000
     32 C15        4.2328    5.0200    4.9403 C.3       1 RES1    0.0000
     33 H12        4.4560    4.2904    5.5696 H         1 RES1    0.0000
     34 H13        5.0711    5.5011    4.7233 H         1 RES1    0.0000
     35 C16        3.6664    4.4149    3.6641 C.3       1 RES1    0.0000
     36 H14        3.5322    5.1298    2.9941 H         1 RES1    0.0000
     37 H15        2.7855    4.0066    3.8557 H         1 RES1    0.0000
     38 C17        4.6001    3.3566    3.0943 C.3       1 RES1    0.0000
     39 H16        4.2106    2.9837    2.2761 H         1 RES1    0.0000
     40 H17        4.7229    2.6411    3.7518 H         1 RES1    0.0000
     41 H18        5.4676    3.7625    2.8872 H         1 RES1    0.0000
     42 C18        0.9058   -1.5386    2.8105 C.ar      2 RES2    0.0000
     43 C19        0.0153   -0.6128    2.2929 C.ar      2 RES2    0.0000
     44 H19       -0.0311    0.2629    2.6580 H         2 RES2    0.0000
     45 C20       -0.8055   -0.9721    1.2404 C.ar      2 RES2    0.0000
     46 H20       -1.4230   -0.3492    0.8768 H         2 RES2    0.0000
     47 C21       -0.7136   -2.2490    0.7290 C.ar      2 RES2    0.0000
     48 N3        -1.6213   -2.6448   -0.3495 N.pl3     2 RES2    0.0000
     49 O5        -2.2425   -1.7651   -0.9373 O.2       2 RES2    0.0000
     50 O6        -1.7241   -3.8356   -0.6147 O.2       2 RES2    0.0000
     51 C22        0.1924   -3.1706    1.2154 C.ar      2 RES2    0.0000
     52 H21        0.2457   -4.0408    0.8371 H         2 RES2    0.0000
     53 C23        1.0152   -2.8088    2.2550 C.ar      2 RES2    0.0000
     54 H22        1.6555   -3.4237    2.5939 H         2 RES2    0.0000
     55 O7         1.7591   -1.2607    3.8450 O.3       2 RES2    0.0000
     56 C24        1.4386   -0.2123    4.7258 C.ar      2 RES2    0.0000
     57 C25        0.3770   -0.3245    5.5892 C.ar      2 RES2    0.0000
     58 H23       -0.2083   -1.0708    5.5360 H         2 RES2    0.0000
     59 C26        0.1690    0.6656    6.5381 C.ar      2 RES2    0.0000
     60 H24       -0.5698    0.5997    7.1308 H         2 RES2    0.0000
     61 C27        1.0273    1.7483    6.6292 C.ar      2 RES2    0.0000
     62 C28        2.0701    1.8571    5.7196 C.ar      2 RES2    0.0000
     63 H25        2.6484    2.6102    5.7529 H         2 RES2    0.0000
     64 C29        2.2720    0.8753    4.7667 C.ar      2 RES2    0.0000
     65 H26        2.9847    0.9544    4.1429 H         2 RES2    0.0000
     66 N4         0.7875    2.7261    7.6188 N.am      2 RES2    0.0000
     67 H27       -0.0532    2.8914    7.8213 H         2 RES2    0.0000
     68 C30        1.7287    3.4347    8.2885 C.2       2 RES2    0.0000
     69 O8         2.9316    3.3036    8.0880 O.2       2 RES2    0.0000
     70 C31        1.2090    4.3835    9.3440 C.3       2 RES2    0.0000
     71 H28        0.2231    4.4406    9.2756 H         2 RES2    0.0000
     72 H29        1.5794    5.2872    9.1839 H         2 RES2    0.0000
     73 C32        1.5888    3.9263   10.7457 C.3       2 RES2    0.0000
     74 H30        2.5713    3.8143   10.7940 H         2 RES2    0.0000
     75 H31        1.1751    3.0442   10.9223 H         2 RES2    0.0000
     76 C33        1.1477    4.9055   11.8267 C.3       2 RES2    0.0000
     77 H32        0.1809    5.0865   11.7136 H         2 RES2    0.0000
     78 H33        1.2706    4.4772   12.7096 H         2 RES2    0.0000
     79 C34        1.8883    6.2253   11.8224 C.3       2 RES2    0.0000
     80 H34        1.5417    6.7970   12.5385 H         2 RES2    0.0000
     81 H35        1.7590    6.6701   10.9590 H         2 RES2    0.0000
     82 H36        2.8442    6.0633   11.9672 H         2 RES2    0.0000
@<TRIPOS>BOND
     1    1    2 ar
     2    2    3 1
     3    4    2 ar
     4    5    4 1
     5    6    4 ar
     6    7    6 1
     7    8    7 2
     8    9    7 2
     9   10    6 ar
    10   11   10 1
    11   12    1 ar
    12   13   12 1
    13   14    1 1
    14   15   14 1
    15   16   15 ar
    16   17   16 1
    17   18   16 ar
    18   19   18 1
    19   20   18 ar
    20   21   20 ar
    21   22   21 1
    22   23   15 ar
    23   24   23 1
    24   25   20 1
    25   26   25 1
    26   27   25 1
    27   28   27 2
    28   29   27 1
    29   30   29 1
    30   31   29 1
    31   32   29 1
    32   33   32 1
    33   34   32 1
    34   35   32 1
    35   36   35 1
    36   37   35 1
    37   38   35 1
    38   39   38 1
    39   40   38 1
    40   41   38 1
    41   42   43 ar
    42   43   44 1
    43   45   43 ar
    44   46   45 1
    45   47   45 ar
    46   48   47 1
    47   49   48 2
    48   50   48 2
    49   51   47 ar
    50   52   51 1
    51   53   42 ar
    52   54   53 1
    53   55   42 1
    54   56   55 1
    55   57   56 ar
    56   58   57 1
    57   59   57 ar
    58   60   59 1
    59   61   59 ar
    60   62   61 ar
    61   63   62 1
    62   64   56 ar
    63   65   64 1
    64   66   61 1
    65   67   66 1
    66   68   66 1
    67   69   68 2
    68   70   68 1
    69   71   70 1
    70   72   70 1
    71   73   70 1
    72   74   73 1
    73   75   73 1
    74   76   73 1
    75   77   76 1
    76   78   76 1
    77   79   76 1
    78   80   79 1
    79   81   79 1
    80   82   79 1
    81   10   12 ar
    82   21   23 ar
    83   51   53 ar
    84   62   64 ar
@<TRIPOS>SUBSTRUCTURE
     1 RES1 1
     2 RES2 42

@<TRIPOS>CRYSIN
   4.9776   10.1139   30.5720  92.0690  90.0870  91.0600   2 1

