# MOL2 file generated by ConQuest
# Please check atom types

@<TRIPOS>MOLECULE
QEDWOO
    31    33     1
SMALL
NO_CHARGES
****
Generated from CSD

@<TRIPOS>ATOM
      1 C1         5.1369    9.5235    6.8552 C.2       1 RES1    0.0000
      2 H1         5.0428   10.4689    6.8538 H         1 RES1    0.0000
      3 C2         5.6786    8.7692    7.8480 C.2       1 RES1    0.0000
      4 H2         6.0358    9.0720    8.6747 H         1 RES1    0.0000
      5 C3         5.5957    7.4321    7.3833 C.2       1 RES1    0.0000
      6 C4         4.1449    8.9927    4.6302 C.ar      1 RES1    0.0000
      7 C5         3.9421    8.0016    3.6777 C.ar      1 RES1    0.0000
      8 H3         4.1775    7.1016    3.8688 H         1 RES1    0.0000
      9 C6         3.3967    8.3301    2.4509 C.ar      1 RES1    0.0000
     10 H4         3.2534    7.6623    1.7906 H         1 RES1    0.0000
     11 C7         3.0634    9.6482    2.2013 C.ar      1 RES1    0.0000
     12 C8         3.2323   10.6379    3.1505 C.ar      1 RES1    0.0000
     13 H5         2.9804   11.5343    2.9610 H         1 RES1    0.0000
     14 C9         3.7706   10.3078    4.3750 C.ar      1 RES1    0.0000
     15 H6         3.8853   10.9752    5.0413 H         1 RES1    0.0000
     16 C10        6.0357    6.2059    8.0627 C.ar      1 RES1    0.0000
     17 C11        6.4540    6.2508    9.3966 C.ar      1 RES1    0.0000
     18 H7         6.4449    7.0759    9.8671 H         1 RES1    0.0000
     19 C12        6.8806    5.0993   10.0356 C.ar      1 RES1    0.0000
     20 H8         7.1552    5.1392   10.9444 H         1 RES1    0.0000
     21 C13        6.9106    3.8907    9.3642 C.ar      1 RES1    0.0000
     22 H9         7.2086    3.1046    9.8054 H         1 RES1    0.0000
     23 C14        6.5011    3.8382    8.0379 C.ar      1 RES1    0.0000
     24 H10        6.5201    3.0117    7.5692 H         1 RES1    0.0000
     25 C15        6.0663    4.9834    7.3960 C.ar      1 RES1    0.0000
     26 H11        5.7855    4.9357    6.4898 H         1 RES1    0.0000
     27 N1         4.7543    8.6714    5.8616 N.pl3     1 RES1    0.0000
     28 N2         5.0382    7.3787    6.1724 N.2       1 RES1    0.0000
     29 N3         2.5458   10.0141    0.8907 N.pl3     1 RES1    0.0000
     30 O1         2.3269    9.1181    0.0770 O.2       1 RES1    0.0000
     31 O2         2.3634   11.2028    0.6416 O.2       1 RES1    0.0000
@<TRIPOS>BOND
     1    1    2 1
     2    3    1 2
     3    4    3 1
     4    5    3 1
     5    6    7 ar
     6    7    8 1
     7    9    7 ar
     8   10    9 1
     9   11    9 ar
    10   12   11 ar
    11   13   12 1
    12   14    6 ar
    13   15   14 1
    14   16    5 1
    15   17   16 ar
    16   18   17 1
    17   19   17 ar
    18   20   19 1
    19   21   19 ar
    20   22   21 1
    21   23   21 ar
    22   24   23 1
    23   25   16 ar
    24   26   25 1
    25   27    1 1
    26   28    5 2
    27   29   11 1
    28   30   29 2
    29   31   29 2
    30    6   27 1
    31   12   14 ar
    32   23   25 ar
    33   27   28 1
@<TRIPOS>SUBSTRUCTURE
     1 RES1 1

@<TRIPOS>CRYSIN
   7.2479   16.0198   10.5934  90.0000  99.1343  90.0000 231 1

