# MOL2 file generated by ConQuest
# Please check atom types

@<TRIPOS>MOLECULE
QEDXAY
    26    25     1
SMALL
NO_CHARGES
****
Generated from CSD

@<TRIPOS>ATOM
      1 O1        -2.2520    0.4583   -0.2792 O.3       1 RES1    0.0000
      2 O2         1.6031    2.5579   -0.7287 O.3       1 RES1    0.0000
      3 O3        -0.3826    3.8022    2.0703 O.3       1 RES1    0.0000
      4 O4         2.4829    3.5700    2.2909 O.3       1 RES1    0.0000
      5 O5         0.9538    6.7283    1.2567 O.3       1 RES1    0.0000
      6 O6         3.8194    6.7527    1.3730 O.3       1 RES1    0.0000
      7 N1        -1.0272    0.8449    0.3055 N.2       1 RES1    0.0000
      8 C1        -0.6215    1.9568   -0.1168 C.2       1 RES1    0.0000
      9 C2         0.6925    2.4887    0.3747 C.3       1 RES1    0.0000
     10 C3         0.5265    3.8763    0.9719 C.3       1 RES1    0.0000
     11 C4         1.8578    4.4909    1.3993 C.3       1 RES1    0.0000
     12 C5         1.6710    5.8265    2.1104 C.3       1 RES1    0.0000
     13 C6         2.9864    6.4739    2.5022 C.3       1 RES1    0.0000
     14 H1        -1.0214    2.3774   -0.6784 H         1 RES1    0.0000
     15 H2        -2.5989   -0.1148    0.0369 H         1 RES1    0.0000
     16 H3         0.9960    1.9145    1.1030 H         1 RES1    0.0000
     17 H4         1.9455    1.8458   -0.8399 H         1 RES1    0.0000
     18 H5        -0.1164    3.2608    2.4552 H         1 RES1    0.0000
     19 H6         0.1520    4.4838    0.4246 H         1 RES1    0.0000
     20 H7         2.4445    4.6256    0.6692 H         1 RES1    0.0000
     21 H8         3.1582    3.6485    2.0906 H         1 RES1    0.0000
     22 H9         1.2041    5.7046    2.9997 H         1 RES1    0.0000
     23 H10        0.2211    6.5941    1.4076 H         1 RES1    0.0000
     24 H11        3.5157    5.8745    3.1289 H         1 RES1    0.0000
     25 H12        2.7861    7.2993    2.9951 H         1 RES1    0.0000
     26 H13        3.5901    7.4837    1.0845 H         1 RES1    0.0000
@<TRIPOS>BOND
     1    1    7 1
     2    2    9 1
     3    3   10 1
     4    4   11 1
     5    5   12 1
     6    6   13 1
     7    7    8 2
     8    8    9 1
     9    9   10 1
    10   10   11 1
    11   11   12 1
    12   12   13 1
    13   13   24 1
    14   14    8 1
    15   15    1 1
    16   16    9 1
    17   17    2 1
    18   18    3 1
    19   19   10 1
    20   20   11 1
    21   21    4 1
    22   22   12 1
    23   23    5 1
    24   25   13 1
    25   26    6 1
@<TRIPOS>SUBSTRUCTURE
     1 RES1 1

@<TRIPOS>CRYSIN
   5.5968    8.5320    4.9925  94.7100 110.3200 102.0200   1 1

