# MOL2 file generated by ConQuest
# Please check atom types

@<TRIPOS>MOLECULE
QEDYOP
    39    40     1
SMALL
NO_CHARGES
****
Generated from CSD

@<TRIPOS>ATOM
      1 O1         9.1177    0.9887    1.4504 O.3       1 RES1    0.0000
      2 O2         7.4989    2.9474    1.0022 O.3       1 RES1    0.0000
      3 C1         5.4443    1.0400    3.4067 C.ar      1 RES1    0.0000
      4 C2         7.0422    1.9994    1.8643 C.ar      1 RES1    0.0000
      5 C3         2.6140    0.7182    6.0218 C.ar      1 RES1    0.0000
      6 N1        -1.0082    0.8426    8.2051 N.pl3     1 RES1    0.0000
      7 C4         0.2533    0.8038    7.4555 C.ar      1 RES1    0.0000
      8 C5         4.1623    1.1550    4.1173 C.2       1 RES1    0.0000
      9 H1         3.4880    1.6415    3.7010 H         1 RES1    0.0000
     10 C6         5.8147    2.0318    2.5009 C.ar      1 RES1    0.0000
     11 H2         5.2255    2.7284    2.3219 H         1 RES1    0.0000
     12 C7         0.2361    1.1334    6.1212 C.ar      1 RES1    0.0000
     13 H3        -0.5586    1.3764    5.7040 H         1 RES1    0.0000
     14 C8         6.3128   -0.0205    3.6187 C.ar      1 RES1    0.0000
     15 H4         6.0726   -0.7026    4.2029 H         1 RES1    0.0000
     16 C9         1.4183    1.0977    5.4117 C.ar      1 RES1    0.0000
     17 H5         1.4181    1.3308    4.5125 H         1 RES1    0.0000
     18 C10        7.9201    0.9335    2.1087 C.ar      1 RES1    0.0000
     19 C11        7.5389   -0.0729    2.9648 C.ar      1 RES1    0.0000
     20 H6         8.1063   -0.7961    3.1076 H         1 RES1    0.0000
     21 C12        3.8852    0.6270    5.2963 C.2       1 RES1    0.0000
     22 H7         4.5668    0.1481    5.7087 H         1 RES1    0.0000
     23 O3        -2.0469    1.0251    7.5967 O.2       1 RES1    0.0000
     24 C13        2.5823    0.3851    7.3668 C.ar      1 RES1    0.0000
     25 H8         3.3692    0.1253    7.7890 H         1 RES1    0.0000
     26 C14        9.9777   -0.1496    1.5379 C.3       1 RES1    0.0000
     27 H9         9.5369   -0.9320    1.1703 H         1 RES1    0.0000
     28 H10       10.2013   -0.3304    2.4650 H         1 RES1    0.0000
     29 C15        1.4097    0.4284    8.0967 C.ar      1 RES1    0.0000
     30 H11        1.4030    0.2081    8.9992 H         1 RES1    0.0000
     31 C16       11.2218    0.1626    0.7550 C.3       1 RES1    0.0000
     32 H12       10.9916    0.3160   -0.1642 H         1 RES1    0.0000
     33 H13       11.8306   -0.5765    0.8138 H         1 RES1    0.0000
     34 H14       11.6380    0.9495    1.1164 H         1 RES1    0.0000
     35 C17        6.6453    4.0463    0.7102 C.3       1 RES1    0.0000
     36 H15        5.8388    3.7258    0.3002 H         1 RES1    0.0000
     37 H16        7.0920    4.6479    0.1102 H         1 RES1    0.0000
     38 H17        6.4291    4.5082    1.5245 H         1 RES1    0.0000
     39 O4        -0.9664    0.6441    9.4022 O.2       1 RES1    0.0000
@<TRIPOS>BOND
     1    1   18 1
     2    2    4 1
     3    3    8 1
     4    4   10 ar
     5    5   16 ar
     6    6    7 1
     7    7   12 ar
     8    8    9 1
     9   10    3 ar
    10   11   10 1
    11   12   13 1
    12   14    3 ar
    13   15   14 1
    14   16   12 ar
    15   17   16 1
    16   18    4 ar
    17   19   14 ar
    18   20   19 1
    19   21    5 1
    20   22   21 1
    21   23    6 2
    22   24    5 ar
    23   25   24 1
    24   26    1 1
    25   27   26 1
    26   28   26 1
    27   29    7 ar
    28   30   29 1
    29   31   26 1
    30   32   31 1
    31   33   31 1
    32   34   31 1
    33   35    2 1
    34   36   35 1
    35   37   35 1
    36   38   35 1
    37   39    6 2
    38    8   21 2
    39   18   19 ar
    40   24   29 ar
@<TRIPOS>SUBSTRUCTURE
     1 RES1 1

@<TRIPOS>CRYSIN
   8.5209    7.5959   23.7877  90.0000  99.6110  90.0000 231 1

