# MOL2 file generated by ConQuest
# Please check atom types

@<TRIPOS>MOLECULE
QEFCIN
    50    55     1
SMALL
NO_CHARGES
****
Generated from CSD

@<TRIPOS>ATOM
      1 O1         7.9740    1.6845    1.5360 O.2       1 RES1    0.0000
      2 O2         1.7404   -0.8399    0.6656 O.2       1 RES1    0.0000
      3 N1         7.9812    0.0000    0.0000 N.am      1 RES1    0.0000
      4 N2         2.3184    0.0000    0.0000 N.pl3     1 RES1    0.0000
      5 C1         8.6253    0.9224    0.8415 C.2       1 RES1    0.0000
      6 C2        10.1088    0.9053    0.8397 C.ar      1 RES1    0.0000
      7 C3        10.7998    0.0000    0.0000 C.ar      1 RES1    0.0000
      8 C4        10.8063    1.7759    1.6637 C.ar      1 RES1    0.0000
      9 H1        10.3525    2.3683    2.2935 H         1 RES1    0.0000
     10 C5         6.5166    0.0000    0.0000 C.ar      1 RES1    0.0000
     11 C6         5.8448   -1.0516    0.5930 C.ar      1 RES1    0.0000
     12 H2         6.3239   -1.7229    0.9893 H         1 RES1    0.0000
     13 C7         4.4550   -1.0501    0.6062 C.ar      1 RES1    0.0000
     14 H3         3.9688   -1.7458    1.0304 H         1 RES1    0.0000
     15 C8         3.7939    0.0000    0.0000 C.ar      1 RES1    0.0000
     16 C1G        8.6253   -0.9224   -0.8415 C.2       1 RES1    0.0000
     17 O1G        7.9740   -1.6845   -1.5360 O.2       1 RES1    0.0000
     18 C2G       10.1088   -0.9053   -0.8397 C.ar      1 RES1    0.0000
     19 C4C       12.2147    1.7759    1.6637 C.ar      1 RES1    0.0000
     20 C2C       12.9122    0.9053    0.8397 C.ar      1 RES1    0.0000
     21 C1C       14.3957    0.9224    0.8415 C.2       1 RES1    0.0000
     22 O1C       15.0470    1.6845    1.5360 O.2       1 RES1    0.0000
     23 N1C       15.0398    0.0000    0.0000 N.am      1 RES1    0.0000
     24 C1D       14.3957   -0.9224   -0.8415 C.2       1 RES1    0.0000
     25 O1D       15.0470   -1.6845   -1.5360 O.2       1 RES1    0.0000
     26 C2D       12.9122   -0.9053   -0.8397 C.ar      1 RES1    0.0000
     27 C3D       12.2212    0.0000    0.0000 C.ar      1 RES1    0.0000
     28 C4D       12.2147   -1.7759   -1.6637 C.ar      1 RES1    0.0000
     29 C4G       10.8063   -1.7759   -1.6637 C.ar      1 RES1    0.0000
     30 H1G       10.3525   -2.3683   -2.2935 H         1 RES1    0.0000
     31 H1D       12.6685   -2.3683   -2.2935 H         1 RES1    0.0000
     32 C5C       16.5044    0.0000    0.0000 C.ar      1 RES1    0.0000
     33 C6C       17.1762   -1.0516    0.5930 C.ar      1 RES1    0.0000
     34 H2C       16.6971   -1.7229    0.9893 H         1 RES1    0.0000
     35 C7C       18.5660   -1.0501    0.6062 C.ar      1 RES1    0.0000
     36 H3C       19.0522   -1.7458    1.0304 H         1 RES1    0.0000
     37 C8C       19.2271    0.0000    0.0000 C.ar      1 RES1    0.0000
     38 N2C       20.7026    0.0000    0.0000 N.pl3     1 RES1    0.0000
     39 O2C       21.2806   -0.8399    0.6656 O.2       1 RES1    0.0000
     40 O2D       21.2806    0.8399   -0.6656 O.2       1 RES1    0.0000
     41 C7D       18.5660    1.0501   -0.6062 C.ar      1 RES1    0.0000
     42 C6D       17.1762    1.0516   -0.5930 C.ar      1 RES1    0.0000
     43 H2D       16.6971    1.7229   -0.9893 H         1 RES1    0.0000
     44 H3D       19.0522    1.7458   -1.0304 H         1 RES1    0.0000
     45 H1C       12.6685    2.3683    2.2935 H         1 RES1    0.0000
     46 O2G        1.7404    0.8399   -0.6656 O.2       1 RES1    0.0000
     47 C7G        4.4550    1.0501   -0.6062 C.ar      1 RES1    0.0000
     48 C6G        5.8448    1.0516   -0.5930 C.ar      1 RES1    0.0000
     49 H2G        6.3239    1.7229   -0.9893 H         1 RES1    0.0000
     50 H3G        3.9688    1.7458   -1.0304 H         1 RES1    0.0000
@<TRIPOS>BOND
     1    1    5 2
     2    2    4 2
     3    3    5 1
     4    4   15 1
     5    5    6 1
     6    6    7 ar
     7    7   18 ar
     8    8    6 ar
     9    9    8 1
    10   10    3 1
    11   11   10 ar
    12   12   11 1
    13   13   11 ar
    14   14   13 1
    15   15   13 ar
    16   16    3 1
    17   17   16 2
    18   18   16 1
    19   19    8 ar
    20   20   19 ar
    21   21   20 1
    22   22   21 2
    23   23   21 1
    24   24   23 1
    25   25   24 2
    26   26   24 1
    27   27    7 ar
    28   28   26 ar
    29   29   18 ar
    30   30   29 1
    31   31   28 1
    32   32   23 1
    33   33   32 ar
    34   34   33 1
    35   35   33 ar
    36   36   35 1
    37   37   35 ar
    38   38   37 1
    39   39   38 2
    40   40   38 2
    41   41   37 ar
    42   42   32 ar
    43   43   42 1
    44   44   41 1
    45   45   19 1
    46   46    4 2
    47   47   15 ar
    48   48   10 ar
    49   49   48 1
    50   50   47 1
    51   20   27 ar
    52   26   27 ar
    53   28   29 ar
    54   41   42 ar
    55   47   48 ar
@<TRIPOS>SUBSTRUCTURE
     1 RES1 1

@<TRIPOS>CRYSIN
  23.0210    5.1880    8.7470  90.0000  90.0000  90.0000  53 1

