# MOL2 file generated by ConQuest
# Please check atom types

@<TRIPOS>MOLECULE
QEFFEP
    44    46     1
SMALL
NO_CHARGES
****
Generated from CSD

@<TRIPOS>ATOM
      1 O1         0.4506    8.3007    3.0685 O.3       1 RES1    0.0000
      2 O2        -0.4625    9.8609    4.8144 O.3       1 RES1    0.0000
      3 N1         0.7729   10.2511    4.2471 N.2       1 RES1    0.0000
      4 C1         2.8275    8.7471    1.6756 C.ar      1 RES1    0.0000
      5 C2         4.0234    8.9877    0.9974 C.ar      1 RES1    0.0000
      6 H1         4.2997    8.3998    0.3324 H         1 RES1    0.0000
      7 C3         4.8001   10.0857    1.3016 C.ar      1 RES1    0.0000
      8 H2         5.5991   10.2255    0.8459 H         1 RES1    0.0000
      9 C4         4.3998   10.9820    2.2804 C.ar      1 RES1    0.0000
     10 H3         4.9279   11.7207    2.4800 H         1 RES1    0.0000
     11 C5         3.2235   10.7744    2.9523 C.ar      1 RES1    0.0000
     12 H4         2.9502   11.3785    3.6040 H         1 RES1    0.0000
     13 C6         2.4322    9.6579    2.6614 C.ar      1 RES1    0.0000
     14 C7         1.1827    9.4206    3.3595 C.2       1 RES1    0.0000
     15 C8         0.8537    7.3798    2.0987 C.2       1 RES1    0.0000
     16 C9         1.9748    7.5738    1.3972 C.2       1 RES1    0.0000
     17 C10       -0.8773   10.9168    5.6767 C.3       1 RES1    0.0000
     18 H5        -0.9936   11.7207    5.1657 H         1 RES1    0.0000
     19 H6        -0.2095   11.0599    6.3506 H         1 RES1    0.0000
     20 H7        -1.7087   10.6804    6.0955 H         1 RES1    0.0000
     21 C11       -0.1541    6.2158    2.0498 C.3       1 RES1    0.0000
     22 C12       -1.2699    6.4132    3.0683 C.3       1 RES1    0.0000
     23 H8        -0.8947    6.4496    3.9512 H         1 RES1    0.0000
     24 H9        -1.8879    5.6795    3.0132 H         1 RES1    0.0000
     25 H10       -1.7312    7.2341    2.8832 H         1 RES1    0.0000
     26 C13        0.5633    4.9035    2.4005 C.3       1 RES1    0.0000
     27 H11        1.1983    4.6925    1.7131 H         1 RES1    0.0000
     28 H12       -0.0812    4.1952    2.4685 H         1 RES1    0.0000
     29 H13        1.0195    5.0034    3.2387 H         1 RES1    0.0000
     30 C14       -0.7813    6.1090    0.6609 C.3       1 RES1    0.0000
     31 H14       -1.2078    6.9401    0.4377 H         1 RES1    0.0000
     32 H15       -1.4332    5.4042    0.6566 H         1 RES1    0.0000
     33 H16       -0.0984    5.9167    0.0148 H         1 RES1    0.0000
     34 C15        2.4588    6.6741    0.3035 C.ar      1 RES1    0.0000
     35 C16        2.0933    6.9138   -1.0154 C.ar      1 RES1    0.0000
     36 H17        1.4747    7.5823   -1.2046 H         1 RES1    0.0000
     37 C17        2.6359    6.1742   -2.0493 C.ar      1 RES1    0.0000
     38 H18        2.3837    6.3505   -2.9276 H         1 RES1    0.0000
     39 C18        3.5469    5.1805   -1.7841 C.ar      1 RES1    0.0000
     40 H19        3.9111    4.6824   -2.4800 H         1 RES1    0.0000
     41 C19        3.9140    4.9264   -0.4868 C.ar      1 RES1    0.0000
     42 H20        4.5235    4.2478   -0.3044 H         1 RES1    0.0000
     43 C20        3.3867    5.6710    0.5488 C.ar      1 RES1    0.0000
     44 H21        3.6559    5.4990    1.4219 H         1 RES1    0.0000
@<TRIPOS>BOND
     1    1   14 1
     2    2    3 1
     3    3   14 2
     4    4    5 ar
     5    5    6 1
     6    7    5 ar
     7    8    7 1
     8    9    7 ar
     9   10    9 1
    10   11    9 ar
    11   12   11 1
    12   13    4 ar
    13   14   13 1
    14   15    1 1
    15   16    4 1
    16   17    2 1
    17   18   17 1
    18   19   17 1
    19   20   17 1
    20   21   15 1
    21   22   21 1
    22   23   22 1
    23   24   22 1
    24   25   22 1
    25   26   21 1
    26   27   26 1
    27   28   26 1
    28   29   26 1
    29   30   21 1
    30   31   30 1
    31   32   30 1
    32   33   30 1
    33   34   16 1
    34   35   34 ar
    35   36   35 1
    36   37   35 ar
    37   38   37 1
    38   39   37 ar
    39   40   39 1
    40   41   39 ar
    41   42   41 1
    42   43   34 ar
    43   44   43 1
    44   11   13 ar
    45   15   16 2
    46   41   43 ar
@<TRIPOS>SUBSTRUCTURE
     1 RES1 1

@<TRIPOS>CRYSIN
  11.8310    8.4718   16.4581  90.0000  90.7590  90.0000 231 1

