# MOL2 file generated by ConQuest
# Please check atom types

@<TRIPOS>MOLECULE
QEFKER
    43    46     1
SMALL
NO_CHARGES
****
Generated from CSD

@<TRIPOS>ATOM
      1 N1        10.6593    3.5579    1.0832 N.3       1 RES1    0.0000
      2 H1        11.6573    3.9463    1.2683 H         1 RES1    0.0000
      3 N2         8.3392    2.0918   -0.0258 N.2       1 RES1    0.0000
      4 N3        10.7123    8.9770    4.5942 N.pl3     1 RES1    0.0000
      5 O1        10.5968    8.7461    5.7805 O.2       1 RES1    0.0000
      6 O2        10.9825   10.0859    4.1648 O.2       1 RES1    0.0000
      7 C1        10.2063    2.3446    1.5995 C.ar      1 RES1    0.0000
      8 C2        10.9727    1.6986    2.5681 C.ar      1 RES1    0.0000
      9 H2        11.6950    2.1472    2.9451 H         1 RES1    0.0000
     10 C3        10.6934    0.4184    2.9833 C.ar      1 RES1    0.0000
     11 H3        11.2375    0.0053    3.6141 H         1 RES1    0.0000
     12 C4         9.6073   -0.2539    2.4651 C.ar      1 RES1    0.0000
     13 H4         9.4056   -1.1144    2.7514 H         1 RES1    0.0000
     14 C5         8.8322    0.3658    1.5241 C.ar      1 RES1    0.0000
     15 H5         8.0980   -0.0882    1.1767 H         1 RES1    0.0000
     16 C6         9.1043    1.6525    1.0679 C.ar      1 RES1    0.0000
     17 C7         8.0192    3.3261   -0.1565 C.2       1 RES1    0.0000
     18 C8         8.3499    4.3484    0.8961 C.3       1 RES1    0.0000
     19 H6         8.1336    3.9879    1.7703 H         1 RES1    0.0000
     20 H7         7.8056    5.1391    0.7558 H         1 RES1    0.0000
     21 C9         9.8188    4.7378    0.8646 C.3       1 RES1    0.0000
     22 H8        10.0173    5.0852   -0.0296 H         1 RES1    0.0000
     23 C10        7.3023    3.7169   -1.3943 C.ar      1 RES1    0.0000
     24 C11        6.8084    2.7380   -2.2408 C.ar      1 RES1    0.0000
     25 H9         6.8810    1.8433   -1.9955 H         1 RES1    0.0000
     26 C12        6.2114    3.0643   -3.4356 C.ar      1 RES1    0.0000
     27 H10        5.8940    2.3919   -3.9939 H         1 RES1    0.0000
     28 C13        6.0819    4.3800   -3.8059 C.ar      1 RES1    0.0000
     29 H11        5.6823    4.5984   -4.6171 H         1 RES1    0.0000
     30 C14        6.5423    5.3667   -2.9842 C.ar      1 RES1    0.0000
     31 H12        6.4483    6.2588   -3.2295 H         1 RES1    0.0000
     32 C15        7.1483    5.0404   -1.7884 C.ar      1 RES1    0.0000
     33 H13        7.4608    5.7207   -1.2359 H         1 RES1    0.0000
     34 C16       10.0960    5.8389    1.8581 C.ar      1 RES1    0.0000
     35 C17       10.3789    7.1166    1.4229 C.ar      1 RES1    0.0000
     36 H14       10.4301    7.2824    0.5096 H         1 RES1    0.0000
     37 C18       10.5865    8.1508    2.3067 C.ar      1 RES1    0.0000
     38 H15       10.7714    9.0099    2.0013 H         1 RES1    0.0000
     39 C19       10.5131    7.8837    3.6446 C.ar      1 RES1    0.0000
     40 C20       10.2376    6.6219    4.1285 C.ar      1 RES1    0.0000
     41 H16       10.1899    6.4640    5.0437 H         1 RES1    0.0000
     42 C21       10.0362    5.6036    3.2295 C.ar      1 RES1    0.0000
     43 H17        9.8564    4.7457    3.5397 H         1 RES1    0.0000
@<TRIPOS>BOND
     1    1    2 1
     2    3   16 1
     3    4    5 2
     4    6    4 2
     5    7    1 1
     6    8    7 ar
     7    9    8 1
     8   10    8 ar
     9   11   10 1
    10   12   10 ar
    11   13   12 1
    12   14   12 ar
    13   15   14 1
    14   16    7 ar
    15   17    3 2
    16   18   17 1
    17   19   18 1
    18   20   18 1
    19   21    1 1
    20   22   21 1
    21   23   17 1
    22   24   23 ar
    23   25   24 1
    24   26   24 ar
    25   27   26 1
    26   28   26 ar
    27   29   28 1
    28   30   28 ar
    29   31   30 1
    30   32   23 ar
    31   33   32 1
    32   34   21 1
    33   35   34 ar
    34   36   35 1
    35   37   35 ar
    36   38   37 1
    37   39    4 1
    38   40   39 ar
    39   41   40 1
    40   42   34 ar
    41   43   42 1
    42   14   16 ar
    43   18   21 1
    44   30   32 ar
    45   37   39 ar
    46   40   42 ar
@<TRIPOS>SUBSTRUCTURE
     1 RES1 1

@<TRIPOS>CRYSIN
  13.3370   13.1570   10.0000  90.0000 107.3800  90.0000  14 1

