# MOL2 file generated by ConQuest
# Please check atom types

@<TRIPOS>MOLECULE
QEGHES
   130   134     2
SMALL
NO_CHARGES
****
Generated from CSD

@<TRIPOS>ATOM
      1 O1         5.9854    7.8152    6.6564 O.2       1 RES1    0.0000
      2 O2         6.3674    8.3533    4.5026 O.3       1 RES1    0.0000
      3 O3         3.8605   11.3597    4.6481 O.2       1 RES1    0.0000
      4 O4        12.0399    8.6024    4.8354 O.3       1 RES1    0.0000
      5 O5         8.2676   12.0463    8.8604 O.2       1 RES1    0.0000
      6 O6         7.8144   13.9655    7.7057 O.3       1 RES1    0.0000
      7 N1         3.6063   11.0421    5.8931 N.pl3     1 RES1    0.0000
      8 N2         7.0568   12.0398    6.9295 N.am      1 RES1    0.0000
      9 C1         6.0532    8.6288    5.7705 C.2       1 RES1    0.0000
     10 C2         5.8779   10.1265    5.9839 C.3       1 RES1    0.0000
     11 H1         5.9041   10.5871    5.0974 H         1 RES1    0.0000
     12 C3         4.5618   10.4233    6.6527 C.ar      1 RES1    0.0000
     13 C4         4.2467   10.0878    7.9627 C.ar      1 RES1    0.0000
     14 H2         4.8976    9.6533    8.5024 H         1 RES1    0.0000
     15 C5         3.0015   10.3739    8.4979 C.ar      1 RES1    0.0000
     16 H3         2.7926   10.1366    9.3944 H         1 RES1    0.0000
     17 C6         2.0678   11.0124    7.7009 C.ar      1 RES1    0.0000
     18 H4         1.2084   11.2219    8.0468 H         1 RES1    0.0000
     19 C7         2.3874   11.3407    6.4166 C.ar      1 RES1    0.0000
     20 H5         1.7464   11.7871    5.8763 H         1 RES1    0.0000
     21 C8         7.0980   10.5838    6.8284 C.3       1 RES1    0.0000
     22 H6         6.9956   10.2062    7.7495 H         1 RES1    0.0000
     23 C9         8.4022   10.0641    6.2497 C.ar      1 RES1    0.0000
     24 C10        8.8620   10.4720    5.0047 C.ar      1 RES1    0.0000
     25 H7         8.3481   11.0867    4.4959 H         1 RES1    0.0000
     26 C11       10.0648    9.9955    4.4880 C.ar      1 RES1    0.0000
     27 H8        10.3612   10.2779    3.6300 H         1 RES1    0.0000
     28 C12       10.8259    9.1080    5.2308 C.ar      1 RES1    0.0000
     29 C13       10.3732    8.6787    6.4720 C.ar      1 RES1    0.0000
     30 H9        10.8877    8.0621    6.9785 H         1 RES1    0.0000
     31 C14        9.1684    9.1522    6.9689 C.ar      1 RES1    0.0000
     32 H10        8.8609    8.8485    7.8151 H         1 RES1    0.0000
     33 C15        7.7657   12.6338    7.9203 C.2       1 RES1    0.0000
     34 C16        8.3832   14.8555    8.7421 C.3       1 RES1    0.0000
     35 C17        7.6482   14.6585   10.0568 C.3       1 RES1    0.0000
     36 H11        6.6814   14.6745    9.8963 H         1 RES1    0.0000
     37 H12        7.8894   15.3789   10.6763 H         1 RES1    0.0000
     38 H13        7.9009   13.7960   10.4457 H         1 RES1    0.0000
     39 C18        8.1225   16.2261    8.1542 C.3       1 RES1    0.0000
     40 H14        8.5352   16.2861    7.2679 H         1 RES1    0.0000
     41 H15        8.5064   16.9106    8.7398 H         1 RES1    0.0000
     42 H16        7.1559   16.3680    8.0751 H         1 RES1    0.0000
     43 H17        6.9703   12.4649    6.1951 H         1 RES1    0.0000
     44 C19        9.8682   14.6151    8.8822 C.3       1 RES1    0.0000
     45 H18       10.0228   13.7038    9.2044 H         1 RES1    0.0000
     46 H19       10.2438   15.2560    9.5210 H         1 RES1    0.0000
     47 H20       10.3013   14.7318    8.0106 H         1 RES1    0.0000
     48 C20       12.5643    9.0295    3.5803 C.3       1 RES1    0.0000
     49 H21       11.9466    8.7727    2.8647 H         1 RES1    0.0000
     50 H22       13.4339    8.6048    3.4288 H         1 RES1    0.0000
     51 H23       12.6715   10.0035    3.5859 H         1 RES1    0.0000
     52 C21        6.9282    7.0231    4.2597 C.3       1 RES1    0.0000
     53 H24        7.4761    6.7598    5.0408 H         1 RES1    0.0000
     54 H25        7.5256    7.0669    3.4729 H         1 RES1    0.0000
     55 C22        5.8834    5.9714    4.0208 C.ar      1 RES1    0.0000
     56 C23        5.3819    5.7651    2.7437 C.ar      1 RES1    0.0000
     57 H26        5.6807    6.3113    2.0258 H         1 RES1    0.0000
     58 C24        4.4444    4.7664    2.5052 C.ar      1 RES1    0.0000
     59 H27        4.1039    4.6382    1.6279 H         1 RES1    0.0000
     60 C25        4.0090    3.9653    3.5328 C.ar      1 RES1    0.0000
     61 H28        3.3726    3.2806    3.3655 H         1 RES1    0.0000
     62 C26        4.4985    4.1580    4.8057 C.ar      1 RES1    0.0000
     63 H29        4.1942    3.6082    5.5190 H         1 RES1    0.0000
     64 C27        5.4329    5.1518    5.0476 C.ar      1 RES1    0.0000
     65 H30        5.7707    5.2731    5.9271 H         1 RES1    0.0000
     66 O7         6.6841   13.7343    0.4802 O.2       2 RES2    0.0000
     67 O8         6.9402   11.6046    1.1126 O.3       2 RES2    0.0000
     68 O9         6.8535   13.1736    4.3304 O.2       2 RES2    0.0000
     69 O10        2.6705    7.8359   -1.1855 O.3       2 RES2    0.0000
     70 O11        1.5311   14.2971    1.3793 O.2       2 RES2    0.0000
     71 O12        1.0539   13.6895    3.5336 O.3       2 RES2    0.0000
     72 N3         6.1682   14.2399    3.9938 N.pl3     2 RES2    0.0000
     73 N4         2.8497   12.8720    2.5716 N.am      2 RES2    0.0000
     74 H31        2.9397   12.4465    3.3372 H         2 RES2    0.0000
     75 C28        6.3633   12.8079    1.1692 C.2       2 RES2    0.0000
     76 C29        5.2443   12.8687    2.2050 C.3       2 RES2    0.0000
     77 H32        5.3819   12.1352    2.8714 H         2 RES2    0.0000
     78 C30        5.3274   14.1955    2.9182 C.ar      2 RES2    0.0000
     79 C31        4.6386   15.3461    2.5696 C.ar      2 RES2    0.0000
     80 H33        4.0550   15.3318    1.8201 H         2 RES2    0.0000
     81 C32        4.7823   16.5162    3.2931 C.ar      2 RES2    0.0000
     82 H34        4.3091   17.3018    3.0421 H         2 RES2    0.0000
     83 C33        5.6261   16.5242    4.3863 C.ar      2 RES2    0.0000
     84 H35        5.7322   17.3141    4.9029 H         2 RES2    0.0000
     85 C34        6.3105   15.3830    4.7209 C.ar      2 RES2    0.0000
     86 H36        6.8942   15.3912    5.4704 H         2 RES2    0.0000
     87 C35        3.8575   12.6848    1.5420 C.3       2 RES2    0.0000
     88 H37        3.7428   13.4110    0.8648 H         2 RES2    0.0000
     89 C36        3.6441   11.3525    0.8386 C.ar      2 RES2    0.0000
     90 C37        2.8447   11.3376   -0.3075 C.ar      2 RES2    0.0000
     91 H38        2.5125   12.1577   -0.6523 H         2 RES2    0.0000
     92 C38        2.5257   10.1564   -0.9499 C.ar      2 RES2    0.0000
     93 H39        1.9741   10.1673   -1.7240 H         2 RES2    0.0000
     94 C39        3.0143    8.9517   -0.4606 C.ar      2 RES2    0.0000
     95 C40        3.7842    8.9386    0.6902 C.ar      2 RES2    0.0000
     96 H40        4.1013    8.1154    1.0412 H         2 RES2    0.0000
     97 C41        4.0929   10.1364    1.3332 C.ar      2 RES2    0.0000
     98 H41        4.6200   10.1202    2.1231 H         2 RES2    0.0000
     99 C42        1.7819   13.6745    2.3935 C.2       2 RES2    0.0000
    100 C43       -0.2854   14.2952    3.5628 C.3       2 RES2    0.0000
    101 C44       -0.7115   14.0442    4.9986 C.3       2 RES2    0.0000
    102 H42       -0.6708   13.0833    5.1878 H         2 RES2    0.0000
    103 H43       -1.6290   14.3632    5.1279 H         2 RES2    0.0000
    104 H44       -0.1093   14.5229    5.6061 H         2 RES2    0.0000
    105 C45       -0.2294   15.7833    3.2637 C.3       2 RES2    0.0000
    106 H45        0.4951   16.1939    3.7815 H         2 RES2    0.0000
    107 H46       -1.0825   16.1980    3.5102 H         2 RES2    0.0000
    108 H47       -0.0648   15.9195    2.3073 H         2 RES2    0.0000
    109 C46       -1.1800   13.5562    2.5832 C.3       2 RES2    0.0000
    110 H48       -0.8775   13.7325    1.6675 H         2 RES2    0.0000
    111 H49       -2.1044   13.8656    2.6872 H         2 RES2    0.0000
    112 H50       -1.1345   12.5939    2.7618 H         2 RES2    0.0000
    113 C47        3.1728    6.5838   -0.7359 C.3       2 RES2    0.0000
    114 H51        2.8682    5.8751   -1.3396 H         2 RES2    0.0000
    115 H52        2.8445    6.4055    0.1696 H         2 RES2    0.0000
    116 H53        4.1523    6.6082   -0.7292 H         2 RES2    0.0000
    117 C48        7.9737   11.4625    0.1020 C.3       2 RES2    0.0000
    118 H54        8.7644   12.0041    0.3505 H         2 RES2    0.0000
    119 H55        7.6376   11.7850   -0.7710 H         2 RES2    0.0000
    120 C49        8.3621   10.0119   -0.0028 C.ar      2 RES2    0.0000
    121 C50        7.4220    9.0066    0.1673 C.ar      2 RES2    0.0000
    122 H56        6.5350    9.2232    0.4285 H         2 RES2    0.0000
    123 C51        7.7810    7.6759   -0.0463 C.ar      2 RES2    0.0000
    124 H57        7.1355    6.9891    0.0757 H         2 RES2    0.0000
    125 C52        9.0639    7.3462   -0.4341 C.ar      2 RES2    0.0000
    126 H58        9.3021    6.4383   -0.5867 H         2 RES2    0.0000
    127 C53        9.9986    8.3486   -0.5992 C.ar      2 RES2    0.0000
    128 H59       10.8828    8.1297   -0.8671 H         2 RES2    0.0000
    129 C54        9.6564    9.6797   -0.3742 C.ar      2 RES2    0.0000
    130 H60       10.3098   10.3618   -0.4748 H         2 RES2    0.0000
@<TRIPOS>BOND
     1    1    9 2
     2    2    9 1
     3    3    7 1
     4    4   28 1
     5    5   33 2
     6    6   33 1
     7    7   12 ar
     8    8   21 1
     9    9   10 1
    10   10   11 1
    11   12   10 1
    12   13   12 ar
    13   14   13 1
    14   15   13 ar
    15   16   15 1
    16   17   15 ar
    17   18   17 1
    18   19    7 ar
    19   20   19 1
    20   21   10 1
    21   22   21 1
    22   23   21 1
    23   24   23 ar
    24   25   24 1
    25   26   24 ar
    26   27   26 1
    27   28   26 ar
    28   29   28 ar
    29   30   29 1
    30   31   23 ar
    31   32   31 1
    32   33    8 1
    33   34    6 1
    34   35   34 1
    35   36   35 1
    36   37   35 1
    37   38   35 1
    38   39   34 1
    39   40   39 1
    40   41   39 1
    41   42   39 1
    42   43    8 1
    43   44   34 1
    44   45   44 1
    45   46   44 1
    46   47   44 1
    47   48    4 1
    48   49   48 1
    49   50   48 1
    50   51   48 1
    51   52    2 1
    52   53   52 1
    53   54   52 1
    54   55   52 1
    55   56   55 ar
    56   57   56 1
    57   58   56 ar
    58   59   58 1
    59   60   58 ar
    60   61   60 1
    61   62   60 ar
    62   63   62 1
    63   64   55 ar
    64   65   64 1
    65   66   75 2
    66   67   75 1
    67   68   72 1
    68   69   94 1
    69   70   99 2
    70   71   99 1
    71   72   78 ar
    72   73   74 1
    73   75   76 1
    74   76   77 1
    75   78   76 1
    76   79   78 ar
    77   80   79 1
    78   81   79 ar
    79   82   81 1
    80   83   81 ar
    81   84   83 1
    82   85   72 ar
    83   86   85 1
    84   87   73 1
    85   88   87 1
    86   89   87 1
    87   90   89 ar
    88   91   90 1
    89   92   90 ar
    90   93   92 1
    91   94   92 ar
    92   95   94 ar
    93   96   95 1
    94   97   89 ar
    95   98   97 1
    96   99   73 1
    97  100   71 1
    98  101  100 1
    99  102  101 1
   100  103  101 1
   101  104  101 1
   102  105  100 1
   103  106  105 1
   104  107  105 1
   105  108  105 1
   106  109  100 1
   107  110  109 1
   108  111  109 1
   109  112  109 1
   110  113   69 1
   111  114  113 1
   112  115  113 1
   113  116  113 1
   114  117   67 1
   115  118  117 1
   116  119  117 1
   117  120  117 1
   118  121  120 ar
   119  122  121 1
   120  123  121 ar
   121  124  123 1
   122  125  123 ar
   123  126  125 1
   124  127  125 ar
   125  128  127 1
   126  129  120 ar
   127  130  129 1
   128   17   19 ar
   129   29   31 ar
   130   62   64 ar
   131   76   87 1
   132   83   85 ar
   133   95   97 ar
   134  127  129 ar
@<TRIPOS>SUBSTRUCTURE
     1 RES1 1
     2 RES2 66

@<TRIPOS>CRYSIN
  10.8535   20.4779   11.6203  90.0000 103.3809  90.0000   4 1

