# MOL2 file generated by ConQuest
# Please check atom types

@<TRIPOS>MOLECULE
QEGQOL
    42    44     1
SMALL
NO_CHARGES
****
Generated from CSD

@<TRIPOS>ATOM
      1 N1         7.3053   -0.1054    0.7112 N.pl3     1 RES1    0.0000
      2 O1         7.5872    0.4142   -0.4503 O.2       1 RES1    0.0000
      3 C1         6.6350   -1.9704    2.1499 C.ar      1 RES1    0.0000
      4 C2         6.9004   -1.3445    0.8345 C.2       1 RES1    0.0000
      5 C3         7.5890   -2.0215    3.1580 C.ar      1 RES1    0.0000
      6 H1         8.4136   -1.6077    3.0353 H         1 RES1    0.0000
      7 C4         9.0880    1.1433    3.8231 C.ar      1 RES1    0.0000
      8 C5         6.1151   -3.3172    4.5363 C.ar      1 RES1    0.0000
      9 H2         5.9424   -3.7613    5.3350 H         1 RES1    0.0000
     10 C6         7.4727    0.7497    1.8792 C.3       1 RES1    0.0000
     11 H3         6.8130    0.6242    2.5933 H         1 RES1    0.0000
     12 C7        10.1198    0.4272    4.4143 C.ar      1 RES1    0.0000
     13 H4        10.7061   -0.0541    3.8773 H         1 RES1    0.0000
     14 C8         8.8835    1.1294    2.3410 C.3       1 RES1    0.0000
     15 C9         5.4180   -2.6236    2.3601 C.ar      1 RES1    0.0000
     16 H5         4.7673   -2.6098    1.6957 H         1 RES1    0.0000
     17 C10        7.3221   -2.6825    4.3411 C.ar      1 RES1    0.0000
     18 H6         7.9647   -2.6987    5.0128 H         1 RES1    0.0000
     19 C11        5.1735   -3.2881    3.5434 C.ar      1 RES1    0.0000
     20 H7         4.3596   -3.7218    3.6681 H         1 RES1    0.0000
     21 C12        8.2455    1.8430    4.6774 C.ar      1 RES1    0.0000
     22 H8         7.5393    2.3296    4.3160 H         1 RES1    0.0000
     23 C13        8.4247    1.8387    6.0457 C.ar      1 RES1    0.0000
     24 H9         7.8456    2.3208    6.5904 H         1 RES1    0.0000
     25 C14       10.2920    0.4151    5.7808 C.ar      1 RES1    0.0000
     26 H10       10.9866   -0.0799    6.1517 H         1 RES1    0.0000
     27 C15        7.9596    2.1383    1.6950 C.3       1 RES1    0.0000
     28 H11        7.5790    2.8271    2.2626 H         1 RES1    0.0000
     29 H12        8.1684    2.4257    0.7930 H         1 RES1    0.0000
     30 C16       10.0355    0.6403    1.4881 C.3       1 RES1    0.0000
     31 H13        9.7868    0.6791    0.5619 H         1 RES1    0.0000
     32 H14       10.2471   -0.2665    1.7244 H         1 RES1    0.0000
     33 H15       10.8032    1.1967    1.6366 H         1 RES1    0.0000
     34 C17        9.4512    1.1257    6.6037 C.ar      1 RES1    0.0000
     35 H16        9.5779    1.1224    7.5251 H         1 RES1    0.0000
     36 C18        8.1798   -2.7479   -0.7431 C.3       1 RES1    0.0000
     37 H17        8.1161   -3.2696   -1.5472 H         1 RES1    0.0000
     38 H18        8.4780   -3.3067   -0.0219 H         1 RES1    0.0000
     39 H19        8.8079   -2.0333   -0.8740 H         1 RES1    0.0000
     40 C19        6.8174   -2.1698   -0.4065 C.3       1 RES1    0.0000
     41 H20        6.5064   -1.6198   -1.1423 H         1 RES1    0.0000
     42 H21        6.1811   -2.8892   -0.2767 H         1 RES1    0.0000
@<TRIPOS>BOND
     1    1    2 1
     2    3    4 1
     3    4    1 2
     4    5    3 ar
     5    6    5 1
     6    7   12 ar
     7    8    9 1
     8   10    1 1
     9   11   10 1
    10   12   13 1
    11   14    7 1
    12   15    3 ar
    13   16   15 1
    14   17    5 ar
    15   18   17 1
    16   19    8 ar
    17   20   19 1
    18   21    7 ar
    19   22   21 1
    20   23   21 ar
    21   24   23 1
    22   25   12 ar
    23   26   25 1
    24   27   10 1
    25   28   27 1
    26   29   27 1
    27   30   14 1
    28   31   30 1
    29   32   30 1
    30   33   30 1
    31   34   23 ar
    32   35   34 1
    33   36   37 1
    34   38   36 1
    35   39   36 1
    36   40    4 1
    37   41   40 1
    38   42   40 1
    39    8   17 ar
    40   10   14 1
    41   14   27 1
    42   15   19 ar
    43   25   34 ar
    44   36   40 1
@<TRIPOS>SUBSTRUCTURE
     1 RES1 1

@<TRIPOS>CRYSIN
  11.2290    8.0750   17.0780  90.0000  98.9000  90.0000  14 1

