# MOL2 file generated by ConQuest
# Please check atom types

@<TRIPOS>MOLECULE
QEGQUR
    76    80     2
SMALL
NO_CHARGES
****
Generated from CSD

@<TRIPOS>ATOM
      1 N1        -2.2497   -2.6188   -3.0928 N.pl3     1 RES1    0.0000
      2 O1        -3.1475   -3.2778   -2.4702 O.2       1 RES1    0.0000
      3 C1        -1.0730   -4.5599   -4.0342 C.ar      1 RES1    0.0000
      4 C2        -3.2321   -0.2794   -3.6904 C.3       1 RES1    0.0000
      5 C3        -1.6718   -5.5839   -3.3045 C.ar      1 RES1    0.0000
      6 H1        -2.3348   -5.3823   -2.6830 H         1 RES1    0.0000
      7 C4        -1.3412   -3.1452   -3.8612 C.2       1 RES1    0.0000
      8 H2        -0.8106   -2.5562   -4.3473 H         1 RES1    0.0000
      9 C5        -1.2898   -6.8954   -3.4958 C.ar      1 RES1    0.0000
     10 H3        -1.6814   -7.5765   -2.9972 H         1 RES1    0.0000
     11 C6        -2.7391    1.0638   -4.1606 C.ar      1 RES1    0.0000
     12 C7        -0.3287   -7.1843   -4.4292 C.ar      1 RES1    0.0000
     13 C8        -0.0866   -4.9012   -4.9608 C.ar      1 RES1    0.0000
     14 H4         0.3304   -4.2265   -5.4469 H         1 RES1    0.0000
     15 C9        -3.1167    1.5829   -5.3911 C.ar      1 RES1    0.0000
     16 H5        -3.6521    1.0749   -5.9580 H         1 RES1    0.0000
     17 C10       -3.3542   -0.5144   -2.2197 C.3       1 RES1    0.0000
     18 H6        -3.1479    0.2255   -1.6289 H         1 RES1    0.0000
     19 H7        -4.0752   -1.0876   -1.9147 H         1 RES1    0.0000
     20 N2         0.0554   -8.5768   -4.6569 N.pl3     1 RES1    0.0000
     21 C11        0.2831   -6.1984   -5.1714 C.ar      1 RES1    0.0000
     22 H8         0.9320   -6.4111   -5.8020 H         1 RES1    0.0000
     23 C12       -2.2316   -1.1527   -2.9335 C.3       1 RES1    0.0000
     24 H9        -1.3499   -0.7526   -2.7821 H         1 RES1    0.0000
     25 C13       -4.2443   -0.9955   -4.5715 C.3       1 RES1    0.0000
     26 H10       -5.0282   -0.4509   -4.6660 H         1 RES1    0.0000
     27 H11       -4.4833   -1.8338   -4.1674 H         1 RES1    0.0000
     28 H12       -3.8590   -1.1558   -5.4355 H         1 RES1    0.0000
     29 C14       -1.9062    3.6025   -4.9824 C.ar      1 RES1    0.0000
     30 H13       -1.6394    4.4487   -5.2568 H         1 RES1    0.0000
     31 C15       -1.4902    3.1040   -3.7599 C.ar      1 RES1    0.0000
     32 H14       -0.9407    3.6104   -3.2078 H         1 RES1    0.0000
     33 O2        -0.3503   -9.4214   -3.8794 O.2       1 RES1    0.0000
     34 C16       -1.9052    1.8370   -3.3672 C.ar      1 RES1    0.0000
     35 H15       -1.6148    1.4988   -2.5510 H         1 RES1    0.0000
     36 C17       -2.7092    2.8420   -5.7838 C.ar      1 RES1    0.0000
     37 H16       -2.9856    3.1770   -6.6057 H         1 RES1    0.0000
     38 O3         0.7328   -8.8514   -5.6176 O.2       1 RES1    0.0000
     39 O4        -4.1747   -0.1259    2.4861 O.2       2 RES2    0.0000
     40 N3        -3.3866   -0.7426    1.6779 N.pl3     2 RES2    0.0000
     41 C18       -3.4310   -5.0330    0.6033 C.ar      2 RES2    0.0000
     42 H17       -3.9400   -4.5122    0.0239 H         2 RES2    0.0000
     43 C19       -3.1364   -4.5376    1.8623 C.ar      2 RES2    0.0000
     44 C20       -3.6307   -3.2056    2.3358 C.3       2 RES2    0.0000
     45 C21       -2.3133   -0.1889    1.1531 C.2       2 RES2    0.0000
     46 H18       -1.7600   -0.7494    0.6568 H         2 RES2    0.0000
     47 C22       -1.9016    1.1797    1.2601 C.ar      2 RES2    0.0000
     48 C23       -0.8647    1.5671    0.4200 C.ar      2 RES2    0.0000
     49 H19       -0.4495    0.9288   -0.1138 H         2 RES2    0.0000
     50 C24       -1.0496    3.8010    1.1782 C.ar      2 RES2    0.0000
     51 C25       -0.4385    2.8769    0.3608 C.ar      2 RES2    0.0000
     52 H20        0.2442    3.1309   -0.2163 H         2 RES2    0.0000
     53 C26       -3.7019   -2.1323    1.3034 C.3       2 RES2    0.0000
     54 H21       -3.4514   -2.3958    0.3939 H         2 RES2    0.0000
     55 C27       -1.9212   -6.6096    2.2414 C.ar      2 RES2    0.0000
     56 H22       -1.3979   -7.1415    2.7957 H         2 RES2    0.0000
     57 C28       -2.9946   -6.2762    0.1730 C.ar      2 RES2    0.0000
     58 H23       -3.2127   -6.5747   -0.6796 H         2 RES2    0.0000
     59 C29       -2.3599   -5.3633    2.6944 C.ar      2 RES2    0.0000
     60 H24       -2.1372   -5.0775    3.5516 H         2 RES2    0.0000
     61 C30       -2.0542    3.4517    2.0376 C.ar      2 RES2    0.0000
     62 H25       -2.4458    4.0931    2.5863 H         2 RES2    0.0000
     63 C31       -2.4766    2.1593    2.0843 C.ar      2 RES2    0.0000
     64 H26       -3.1570    1.9211    2.6716 H         2 RES2    0.0000
     65 O5        -1.0363    5.9634    2.0000 O.2       2 RES2    0.0000
     66 N4        -0.6074    5.1981    1.1429 N.pl3     2 RES2    0.0000
     67 C32       -4.9397   -2.7324    1.8281 C.3       2 RES2    0.0000
     68 H27       -5.4373   -3.3246    1.2430 H         2 RES2    0.0000
     69 H28       -5.4855   -2.1942    2.4223 H         2 RES2    0.0000
     70 C33       -2.2519   -7.0589    0.9926 C.ar      2 RES2    0.0000
     71 H29       -1.9682   -7.8972    0.7080 H         2 RES2    0.0000
     72 C34       -3.2361   -2.7991    3.7530 C.3       2 RES2    0.0000
     73 H30       -3.4890   -3.4929    4.3666 H         2 RES2    0.0000
     74 H31       -3.6836   -1.9846    3.9887 H         2 RES2    0.0000
     75 H32       -2.2855   -2.6673    3.7940 H         2 RES2    0.0000
     76 O6         0.1828    5.5236    0.3051 O.2       2 RES2    0.0000
@<TRIPOS>BOND
     1    1    2 1
     2    3    5 ar
     3    4   11 1
     4    5    6 1
     5    7    1 2
     6    8    7 1
     7    9    5 ar
     8   10    9 1
     9   11   15 ar
    10   12    9 ar
    11   13    3 ar
    12   14   13 1
    13   15   16 1
    14   17    4 1
    15   18   17 1
    16   19   17 1
    17   20   12 1
    18   21   12 ar
    19   22   21 1
    20   23    1 1
    21   24   23 1
    22   25    4 1
    23   26   25 1
    24   27   25 1
    25   28   25 1
    26   29   30 1
    27   31   29 ar
    28   32   31 1
    29   33   20 2
    30   34   11 ar
    31   35   34 1
    32   36   15 ar
    33   37   36 1
    34   38   20 2
    35   39   40 1
    36   40   45 2
    37   41   42 1
    38   43   41 ar
    39   44   43 1
    40   45   46 1
    41   47   45 1
    42   48   47 ar
    43   49   48 1
    44   50   51 ar
    45   51   48 ar
    46   52   51 1
    47   53   40 1
    48   54   53 1
    49   55   56 1
    50   57   41 ar
    51   58   57 1
    52   59   43 ar
    53   60   59 1
    54   61   50 ar
    55   62   61 1
    56   63   47 ar
    57   64   63 1
    58   65   66 2
    59   66   50 1
    60   67   44 1
    61   68   67 1
    62   69   67 1
    63   70   55 ar
    64   71   70 1
    65   72   44 1
    66   73   72 1
    67   74   72 1
    68   75   72 1
    69   76   66 2
    70    3    7 1
    71    4   23 1
    72   13   21 ar
    73   17   23 1
    74   29   36 ar
    75   31   34 ar
    76   44   53 1
    77   53   67 1
    78   55   59 ar
    79   57   70 ar
    80   61   63 ar
@<TRIPOS>SUBSTRUCTURE
     1 RES1 1
     2 RES2 39

@<TRIPOS>CRYSIN
   8.3530   15.8770   11.4420  90.0000  95.8100  90.0000   4 1

