# MOL2 file generated by ConQuest
# Please check atom types

@<TRIPOS>MOLECULE
QEGYUZ
    41    44     1
SMALL
NO_CHARGES
****
Generated from CSD

@<TRIPOS>ATOM
      1 O1        11.6862    4.1152    1.0125 O.3       1 RES1    0.0000
      2 O2         9.6898    3.1531    0.7865 O.2       1 RES1    0.0000
      3 O3         6.2321    3.2947    9.5667 O.3       1 RES1    0.0000
      4 H1         6.4744    3.2532   10.3486 H         1 RES1    0.0000
      5 N1         6.4890    2.0761    3.3119 N.pl3     1 RES1    0.0000
      6 N2         6.4662    2.0420    4.6923 N.2       1 RES1    0.0000
      7 N3        12.5256    4.5903    2.0642 N.2       1 RES1    0.0000
      8 C1         7.6652    2.4549    5.0636 C.2       1 RES1    0.0000
      9 C2         8.4784    2.7869    3.9196 C.2       1 RES1    0.0000
     10 C3         7.6595    2.5105    2.8403 C.2       1 RES1    0.0000
     11 H2         7.8849    2.6098    1.9443 H         1 RES1    0.0000
     12 C4         5.3575    1.6292    2.5831 C.ar      1 RES1    0.0000
     13 C5         4.1841    1.3156    3.2404 C.ar      1 RES1    0.0000
     14 H3         4.1292    1.4105    4.1641 H         1 RES1    0.0000
     15 C6         3.0920    0.8605    2.5289 C.ar      1 RES1    0.0000
     16 H4         2.3006    0.6612    2.9752 H         1 RES1    0.0000
     17 C7         3.1619    0.6990    1.1693 C.ar      1 RES1    0.0000
     18 H5         2.4266    0.3847    0.6942 H         1 RES1    0.0000
     19 C8         4.3213    1.0051    0.5235 C.ar      1 RES1    0.0000
     20 H6         4.3704    0.9013   -0.4002 H         1 RES1    0.0000
     21 C9         5.4195    1.4654    1.2108 C.ar      1 RES1    0.0000
     22 H7         6.2046    1.6655    0.7530 H         1 RES1    0.0000
     23 C10        7.9885    2.4971    6.5051 C.ar      1 RES1    0.0000
     24 C11        7.0146    2.9367    7.3953 C.ar      1 RES1    0.0000
     25 H8         6.2012    3.2502    7.0724 H         1 RES1    0.0000
     26 C12        7.2491    2.9085    8.7572 C.ar      1 RES1    0.0000
     27 C13        8.4641    2.4979    9.2392 C.ar      1 RES1    0.0000
     28 H9         8.6259    2.4964   10.1549 H         1 RES1    0.0000
     29 C14        9.4513    2.0843    8.3628 C.ar      1 RES1    0.0000
     30 H10       10.2756    1.8071    8.6915 H         1 RES1    0.0000
     31 C15        9.2185    2.0813    6.9952 C.ar      1 RES1    0.0000
     32 H11        9.8845    1.8011    6.4094 H         1 RES1    0.0000
     33 C16        9.7614    3.3866    3.9796 C.2       1 RES1    0.0000
     34 H12       10.0552    3.5838    4.8399 H         1 RES1    0.0000
     35 C17       10.6439    3.7253    2.9856 C.2       1 RES1    0.0000
     36 C18       10.5389    3.5860    1.5303 C.2       1 RES1    0.0000
     37 C19       11.9069    4.3502    3.1735 C.2       1 RES1    0.0000
     38 C20       12.5139    4.7608    4.4697 C.3       1 RES1    0.0000
     39 H13       13.2993    5.2863    4.3025 H         1 RES1    0.0000
     40 H14       12.7532    3.9788    4.9736 H         1 RES1    0.0000
     41 H15       11.8808    5.2811    4.9690 H         1 RES1    0.0000
@<TRIPOS>BOND
     1    1    7 1
     2    2   36 2
     3    3    4 1
     4    5    6 1
     5    6    8 2
     6    7   37 2
     7    8    9 1
     8    9   10 2
     9   10    5 1
    10   11   10 1
    11   12    5 1
    12   13   12 ar
    13   14   13 1
    14   15   13 ar
    15   16   15 1
    16   17   15 ar
    17   18   17 1
    18   19   17 ar
    19   20   19 1
    20   21   12 ar
    21   22   21 1
    22   23    8 1
    23   24   23 ar
    24   25   24 1
    25   26    3 1
    26   27   26 ar
    27   28   27 1
    28   29   27 ar
    29   30   29 1
    30   31   23 ar
    31   32   31 1
    32   33    9 1
    33   34   33 1
    34   35   33 2
    35   36    1 1
    36   37   35 1
    37   38   37 1
    38   39   38 1
    39   40   38 1
    40   41   38 1
    41   19   21 ar
    42   24   26 ar
    43   29   31 ar
    44   35   36 1
@<TRIPOS>SUBSTRUCTURE
     1 RES1 1

@<TRIPOS>CRYSIN
   9.6545    7.4121   12.0115  90.0000 106.2480  90.0000   4 1

