# MOL2 file generated by ConQuest
# Please check atom types

@<TRIPOS>MOLECULE
QEHTUS
    56    59     1
SMALL
NO_CHARGES
****
Generated from CSD

@<TRIPOS>ATOM
      1 O1         0.4669    9.4717    5.1065 O.2       1 RES1    0.0000
      2 N1         0.2631    4.6894    7.8648 N.3       1 RES1    0.0000
      3 N2         0.3585    8.3436    5.7161 N.3       1 RES1    0.0000
      4 C1         3.3651    3.6513   11.7814 C.ar      1 RES1    0.0000
      5 C2         3.4761    2.3961   12.3850 C.ar      1 RES1    0.0000
      6 C3         2.3169    3.9530   10.9880 C.ar      1 RES1    0.0000
      7 C4         2.5642    1.4568   12.1549 C.ar      1 RES1    0.0000
      8 C5         1.2903    2.9928   10.7044 C.ar      1 RES1    0.0000
      9 C6         1.4496    1.6954   11.2882 C.ar      1 RES1    0.0000
     10 C7         0.1781    3.2451    9.8742 C.ar      1 RES1    0.0000
     11 C8         0.5465    0.7027   10.9808 C.ar      1 RES1    0.0000
     12 C9        -0.7194    2.2085    9.5536 C.ar      1 RES1    0.0000
     13 C10       -0.5154    0.9097   10.1138 C.ar      1 RES1    0.0000
     14 C11       -1.8164    2.3631    8.6525 C.ar      1 RES1    0.0000
     15 C12       -1.3955   -0.1370    9.7475 C.ar      1 RES1    0.0000
     16 C13       -2.6136    1.3316    8.3276 C.ar      1 RES1    0.0000
     17 C14       -2.4065    0.0661    8.8878 C.ar      1 RES1    0.0000
     18 C15       -0.0549    4.6274    9.2984 C.3       1 RES1    0.0000
     19 C16        0.5667    6.0375    7.3735 C.3       1 RES1    0.0000
     20 C17       -0.6260    6.9634    7.5130 C.3       1 RES1    0.0000
     21 C18        0.9071    5.9439    5.9062 C.3       1 RES1    0.0000
     22 C19       -0.3440    8.3832    7.0248 C.3       1 RES1    0.0000
     23 C20        1.2627    7.2676    5.2406 C.3       1 RES1    0.0000
     24 C21        0.5110    9.1470    8.0189 C.3       1 RES1    0.0000
     25 C22       -1.6616    9.1350    6.8196 C.3       1 RES1    0.0000
     26 C23        2.6956    7.6791    5.5506 C.3       1 RES1    0.0000
     27 C24        1.0519    7.1616    3.7431 C.3       1 RES1    0.0000
     28 H1         0.8734    4.0710    7.6610 H         1 RES1    0.0000
     29 H2         4.0220    4.2872   11.9346 H         1 RES1    0.0000
     30 H3         4.2320    2.2053   12.9407 H         1 RES1    0.0000
     31 H4         2.2129    4.7871   10.5524 H         1 RES1    0.0000
     32 H5         2.5785    0.6003   12.5245 H         1 RES1    0.0000
     33 H6         0.7100   -0.1781   11.3344 H         1 RES1    0.0000
     34 H7        -1.9452    3.1782    8.2807 H         1 RES1    0.0000
     35 H8        -1.2371   -0.9513   10.1168 H         1 RES1    0.0000
     36 H9        -3.3540    1.4791    7.7159 H         1 RES1    0.0000
     37 H10       -2.9663   -0.6270    8.6580 H         1 RES1    0.0000
     38 H11        0.5045    5.3657    9.8093 H         1 RES1    0.0000
     39 H12       -0.9564    4.8799    9.4274 H         1 RES1    0.0000
     40 H13        1.3840    6.4544    7.9069 H         1 RES1    0.0000
     41 H14       -0.9451    7.0420    8.4751 H         1 RES1    0.0000
     42 H15       -1.2951    6.5892    6.9957 H         1 RES1    0.0000
     43 H16        0.1314    5.5857    5.4362 H         1 RES1    0.0000
     44 H17        1.6470    5.3759    5.7701 H         1 RES1    0.0000
     45 H18        1.3099    8.6928    8.2464 H         1 RES1    0.0000
     46 H19        0.7447   10.0065    7.6771 H         1 RES1    0.0000
     47 H20        0.0098    9.1977    8.8443 H         1 RES1    0.0000
     48 H21       -1.4493   10.0994    6.5727 H         1 RES1    0.0000
     49 H22       -2.1508    9.1252    7.6542 H         1 RES1    0.0000
     50 H23       -2.1461    8.7373    6.0696 H         1 RES1    0.0000
     51 H24        2.9099    8.5516    5.1230 H         1 RES1    0.0000
     52 H25        2.8776    7.7313    6.5841 H         1 RES1    0.0000
     53 H26        3.2374    7.0445    5.2648 H         1 RES1    0.0000
     54 H27        1.3009    8.0861    3.3349 H         1 RES1    0.0000
     55 H28        0.1448    6.8296    3.5418 H         1 RES1    0.0000
     56 H29        1.4838    6.5485    3.4813 H         1 RES1    0.0000
@<TRIPOS>BOND
     1    1    3 1
     2    2   18 1
     3    3   22 1
     4    4    5 ar
     5    5    7 ar
     6    6    4 ar
     7    7    9 ar
     8    8    6 ar
     9    9    8 ar
    10   10    8 ar
    11   11    9 ar
    12   12   10 ar
    13   13   11 ar
    14   14   12 ar
    15   15   13 ar
    16   16   14 ar
    17   17   15 ar
    18   18   10 1
    19   19    2 1
    20   20   19 1
    21   21   19 1
    22   22   20 1
    23   23    3 1
    24   24   22 1
    25   25   22 1
    26   26   23 1
    27   27   23 1
    28   28    2 1
    29   29    4 1
    30   30    5 1
    31   31    6 1
    32   32    7 1
    33   33   11 1
    34   34   14 1
    35   35   15 1
    36   36   16 1
    37   37   17 1
    38   38   18 1
    39   39   18 1
    40   40   19 1
    41   41   20 1
    42   42   20 1
    43   43   21 1
    44   44   21 1
    45   45   24 1
    46   46   24 1
    47   47   24 1
    48   48   25 1
    49   49   25 1
    50   50   25 1
    51   51   26 1
    52   52   26 1
    53   53   26 1
    54   54   27 1
    55   55   27 1
    56   56   27 1
    57   12   13 ar
    58   16   17 ar
    59   21   23 1
@<TRIPOS>SUBSTRUCTURE
     1 RES1 1

@<TRIPOS>CRYSIN
  14.1760   12.7180   12.0730  90.0000 108.7440  90.0000  14 2

