# MOL2 file generated by ConQuest
# Please check atom types

@<TRIPOS>MOLECULE
QEJLAS
    20    21     1
SMALL
NO_CHARGES
****
Generated from CSD

@<TRIPOS>ATOM
      1 O1         2.3996    6.9890    6.3716 O.2       1 RES1    0.0000
      2 O2         0.8040    8.2505    7.0361 O.2       1 RES1    0.0000
      3 O3         0.1220   12.1240    5.1253 O.2       1 RES1    0.0000
      4 N1         4.5852    8.8005    9.6069 N.ar      1 RES1    0.0000
      5 N2         1.9502    8.0872    6.6569 N.pl3     1 RES1    0.0000
      6 N3         2.2964   12.7463    5.3419 N.am      1 RES1    0.0000
      7 C1         3.9254    6.5647    9.1626 C.ar      1 RES1    0.0000
      8 C2         3.5600    6.3976   10.4754 C.ar      1 RES1    0.0000
      9 C3         3.7093    7.4391   11.3550 C.ar      1 RES1    0.0000
     10 C4         4.2168    8.6195   10.8642 C.ar      1 RES1    0.0000
     11 C5         4.4399    7.7731    8.7443 C.ar      1 RES1    0.0000
     12 C6         4.8875    8.0154    7.3288 C.3       1 RES1    0.0000
     13 C7         4.1825    9.1869    6.6739 C.ar      1 RES1    0.0000
     14 C8         2.8044    9.2655    6.4736 C.ar      1 RES1    0.0000
     15 C9         2.1419   10.4085    6.0663 C.ar      1 RES1    0.0000
     16 C10        2.8880   11.5365    5.7485 C.ar      1 RES1    0.0000
     17 C11        4.2719   11.4687    5.8527 C.ar      1 RES1    0.0000
     18 C12        4.8834   10.3283    6.3324 C.ar      1 RES1    0.0000
     19 C13        0.9831   12.9819    5.0736 C.2       1 RES1    0.0000
     20 C14        0.6639   14.3969    4.6929 C.3       1 RES1    0.0000
@<TRIPOS>BOND
     1    1    5 2
     2    2    5 2
     3    3   19 2
     4    4   10 ar
     5    5   14 1
     6    6   16 1
     7    7    8 ar
     8    8    9 ar
     9    9   10 ar
    10   11    4 ar
    11   12   11 1
    12   13   12 1
    13   14   13 ar
    14   15   14 ar
    15   16   15 ar
    16   17   16 ar
    17   18   13 ar
    18   19    6 1
    19   20   19 1
    20    7   11 ar
    21   17   18 ar
@<TRIPOS>SUBSTRUCTURE
     1 RES1 1

@<TRIPOS>CRYSIN
   7.4300   23.9430    8.0070  90.0000 112.6100  90.0000  14 2

