# MOL2 file generated by ConQuest
# Please check atom types

@<TRIPOS>MOLECULE
QEJZAH
    38    38     2
SMALL
NO_CHARGES
****
Generated from CSD

@<TRIPOS>ATOM
      1 C1        18.4844    0.7206    3.1010 C.ar      1 RES1    0.0000
      2 C2        19.8517    0.4439    3.2574 C.ar      1 RES1    0.0000
      3 C3        20.3331   -0.0468    4.4813 C.ar      1 RES1    0.0000
      4 C4        19.4468   -0.2608    5.5489 C.ar      1 RES1    0.0000
      5 C5        18.0796    0.0159    5.3925 C.ar      1 RES1    0.0000
      6 C6        17.5984    0.5066    4.1685 C.ar      1 RES1    0.0000
      7 C7        21.8266   -0.3177    4.5590 C.2       1 RES1    0.0000
      8 C8        15.3676    0.5806    4.9871 C.3       1 RES1    0.0000
      9 N1        18.0296    1.2354    1.7926 N.pl3     1 RES1    0.0000
     10 O1        18.7932    1.9697    1.1643 O.2       1 RES1    0.0000
     11 O2        16.9146    0.9180    1.3764 O.2       1 RES1    0.0000
     12 O3        22.2684   -0.8556    5.5463 O.2       1 RES1    0.0000
     13 O4        16.3283    0.7897    3.9458 O.3       1 RES1    0.0000
     14 H1        20.4197    0.5812    2.5729 H         1 RES1    0.0000
     15 H2        19.7552   -0.5755    6.3336 H         1 RES1    0.0000
     16 H3        17.5113   -0.1214    6.0770 H         1 RES1    0.0000
     17 H4        15.4344    1.2492    5.5859 H         1 RES1    0.0000
     18 H5        14.5427    0.5721    4.6273 H         1 RES1    0.0000
     19 H6        15.5358   -0.2078    5.3873 H         1 RES1    0.0000
     20 C9         2.4455    1.2672    5.2137 C.ar      2 RES2    0.0000
     21 C10        3.7327    1.1136    5.7523 C.ar      2 RES2    0.0000
     22 C11        4.7629    0.5747    4.9657 C.ar      2 RES2    0.0000
     23 C12        4.5060    0.1894    3.6405 C.ar      2 RES2    0.0000
     24 C13        3.2188    0.3430    3.1019 C.ar      2 RES2    0.0000
     25 C14        2.1885    0.8819    3.8885 C.ar      2 RES2    0.0000
     26 C15        6.1212    0.4409    5.6165 C.2       2 RES2    0.0000
     27 C16        0.6234    0.4030    2.1628 C.3       2 RES2    0.0000
     28 N2         1.3901    1.8216    6.0264 N.pl3     2 RES2    0.0000
     29 O5         1.4196    1.5411    7.2254 O.2       2 RES2    0.0000
     30 O6         0.5092    2.5359    5.5458 O.2       2 RES2    0.0000
     31 O7         6.9317   -0.2003    4.9653 O.2       2 RES2    0.0000
     32 O8         0.9150    1.0535    3.4133 O.3       2 RES2    0.0000
     33 H7         3.8974    1.3607    6.6019 H         2 RES2    0.0000
     34 H8         5.1663   -0.1561    3.1363 H         2 RES2    0.0000
     35 H9         3.0540    0.0959    2.2523 H         2 RES2    0.0000
     36 H10        0.4593   -0.4683    2.3171 H         2 RES2    0.0000
     37 H11       -0.0994    0.7907    1.7923 H         2 RES2    0.0000
     38 H12        1.3324    0.4893    1.6153 H         2 RES2    0.0000
@<TRIPOS>BOND
     1    1    2 ar
     2    2    3 ar
     3    3    4 ar
     4    4    5 ar
     5    5    6 ar
     6    6    1 ar
     7    7    3 1
     8    8   13 1
     9    9    1 1
    10   10    9 2
    11   11    9 2
    12   12    7 2
    13   13    6 1
    14   14    2 1
    15   15    4 1
    16   16    5 1
    17   17    8 1
    18   18    8 1
    19   19    8 1
    20   20   21 ar
    21   21   22 ar
    22   22   23 ar
    23   23   24 ar
    24   24   25 ar
    25   25   20 ar
    26   26   22 1
    27   27   32 1
    28   28   20 1
    29   29   28 2
    30   30   28 2
    31   31   26 2
    32   32   25 1
    33   33   21 1
    34   34   23 1
    35   35   24 1
    36   36   27 1
    37   37   27 1
    38   38   27 1
@<TRIPOS>SUBSTRUCTURE
     1 RES1 1
     2 RES2 20

@<TRIPOS>CRYSIN
  62.4105    3.8489   14.1786  90.0000 104.3983  90.0000  15 1

