# MOL2 file generated by ConQuest
# Please check atom types

@<TRIPOS>MOLECULE
QEJZAH02
    20    20     1
SMALL
NO_CHARGES
****
Generated from CSD

@<TRIPOS>ATOM
      1 O1         0.4240   12.3888    5.5763 O.3       1 RES1    0.0000
      2 O2        -0.7148   14.1774    7.1000 O.2       1 RES1    0.0000
      3 O3         0.3898   16.0234    7.1884 O.2       1 RES1    0.0000
      4 O4         2.6187   16.8466    1.5285 O.2       1 RES1    0.0000
      5 N1         0.0569   14.9824    6.6203 N.pl3     1 RES1    0.0000
      6 C1         0.8170   13.4216    4.8209 C.ar      1 RES1    0.0000
      7 C2         0.6353   14.7277    5.2960 C.ar      1 RES1    0.0000
      8 C3         1.0025   15.8359    4.5646 C.ar      1 RES1    0.0000
      9 H1         0.8598   16.7070    4.9159 H         1 RES1    0.0000
     10 C4         1.5834   15.6757    3.3080 C.ar      1 RES1    0.0000
     11 C5         1.8035   14.3851    2.8346 C.ar      1 RES1    0.0000
     12 H2         2.2175   14.2655    1.9878 H         1 RES1    0.0000
     13 C6         1.4352   13.2821    3.5651 C.ar      1 RES1    0.0000
     14 H3         1.6001   12.4134    3.2179 H         1 RES1    0.0000
     15 C7         1.9680   16.8704    2.5429 C.2       1 RES1    0.0000
     16 H4         1.6856   17.7168    2.8692 H         1 RES1    0.0000
     17 C8         0.7017   11.0540    5.1089 C.3       1 RES1    0.0000
     18 H5         0.3603   10.4027    5.7572 H         1 RES1    0.0000
     19 H6         0.2639   10.9136    4.2431 H         1 RES1    0.0000
     20 H7         1.6696   10.9381    5.0078 H         1 RES1    0.0000
@<TRIPOS>BOND
     1    1    6 1
     2    2    5 2
     3    3    5 2
     4    4   15 2
     5    5    7 1
     6    6    7 ar
     7    7    8 ar
     8    8    9 1
     9   10    8 ar
    10   11   10 ar
    11   12   11 1
    12   13    6 ar
    13   14   13 1
    14   15   10 1
    15   16   15 1
    16   17    1 1
    17   18   17 1
    18   19   17 1
    19   20   17 1
    20   11   13 ar
@<TRIPOS>SUBSTRUCTURE
     1 RES1 1

@<TRIPOS>CRYSIN
   3.8385   17.4395   11.7830  90.0000  90.1120  90.0000  14 1

