# MOL2 file generated by ConQuest
# Please check atom types

@<TRIPOS>MOLECULE
QEKQOM
    29    32     1
SMALL
NO_CHARGES
****
Generated from CSD

@<TRIPOS>ATOM
      1 O1        -6.9356    0.5406   -3.6026 O.3       1 RES1    0.0000
      2 O2        -2.5012   -0.9186   -7.2095 O.3       1 RES1    0.0000
      3 N1        -6.5862   -0.1095   -4.8505 N.2       1 RES1    0.0000
      4 N2        -3.1153   -1.3474   -5.9789 N.2       1 RES1    0.0000
      5 C1        -5.3811   -2.2265   -5.3891 C.3       1 RES1    0.0000
      6 C2        -6.0705   -1.1872   -4.5586 C.2       1 RES1    0.0000
      7 C3        -6.2672   -0.1704   -2.5382 C.3       1 RES1    0.0000
      8 C4        -6.0255   -1.4919   -3.0717 C.3       1 RES1    0.0000
      9 C5        -4.8110   -2.3642   -2.9990 C.3       1 RES1    0.0000
     10 C6        -4.8717   -3.1812   -4.2806 C.3       1 RES1    0.0000
     11 C7        -4.2754   -1.6138   -6.2161 C.2       1 RES1    0.0000
     12 C8        -3.4281   -1.2244   -8.2842 C.3       1 RES1    0.0000
     13 C9        -4.7817   -1.3869   -7.6260 C.3       1 RES1    0.0000
     14 C10       -5.7232   -2.4556   -7.8148 C.3       1 RES1    0.0000
     15 C11       -6.2944   -2.8551   -6.5002 C.3       1 RES1    0.0000
     16 H1        -5.4502    0.2596   -2.3122 H         1 RES1    0.0000
     17 H2        -6.8206   -0.2144   -1.7666 H         1 RES1    0.0000
     18 H3        -6.7787   -2.0313   -2.8665 H         1 RES1    0.0000
     19 H4        -4.0170   -1.8395   -2.9704 H         1 RES1    0.0000
     20 H5        -4.8434   -2.9341   -2.2343 H         1 RES1    0.0000
     21 H6        -5.4711   -3.9159   -4.1741 H         1 RES1    0.0000
     22 H7        -4.0066   -3.5096   -4.5032 H         1 RES1    0.0000
     23 H8        -5.2410   -0.5530   -7.6554 H         1 RES1    0.0000
     24 H9        -6.4231   -2.1667   -8.3915 H         1 RES1    0.0000
     25 H10       -5.2828   -3.2049   -8.2097 H         1 RES1    0.0000
     26 H11       -6.2975   -3.8030   -6.4257 H         1 RES1    0.0000
     27 H12       -7.1867   -2.5278   -6.4171 H         1 RES1    0.0000
     28 H13       -3.4521   -0.5191   -8.9111 H         1 RES1    0.0000
     29 H14       -3.1697   -2.0313   -8.7206 H         1 RES1    0.0000
@<TRIPOS>BOND
     1    1    3 1
     2    2    4 1
     3    3    6 2
     4    4   11 2
     5    5    6 1
     6    6    8 1
     7    7    1 1
     8    8    7 1
     9    9    8 1
    10   10    5 1
    11   11    5 1
    12   12    2 1
    13   13   11 1
    14   14   13 1
    15   15    5 1
    16   16    7 1
    17   17    7 1
    18   18    8 1
    19   19    9 1
    20   20    9 1
    21   21   10 1
    22   22   10 1
    23   23   13 1
    24   24   14 1
    25   25   14 1
    26   26   15 1
    27   27   15 1
    28   28   12 1
    29   29   12 1
    30    9   10 1
    31   12   13 1
    32   14   15 1
@<TRIPOS>SUBSTRUCTURE
     1 RES1 1

@<TRIPOS>CRYSIN
  10.4610   11.2850    8.6600  90.0000  90.0000  90.0000  19 1

