# MOL2 file generated by ConQuest
# Please check atom types

@<TRIPOS>MOLECULE
QEKQUS
    29    32     1
SMALL
NO_CHARGES
****
Generated from CSD

@<TRIPOS>ATOM
      1 O1        -4.5248   -0.1346   -3.3091 O.3       1 RES1    0.0000
      2 N1        -5.7961   -0.5600   -3.8217 N.2       1 RES1    0.0000
      3 C1        -6.5895   -2.5878   -5.0517 C.3       1 RES1    0.0000
      4 C2        -5.6643   -1.7390   -4.2211 C.2       1 RES1    0.0000
      5 C3        -3.5276   -1.0651   -3.7931 C.3       1 RES1    0.0000
      6 C4        -4.2849   -2.3031   -4.1650 C.3       1 RES1    0.0000
      7 C5        -4.1716   -2.8952   -5.5808 C.3       1 RES1    0.0000
      8 C6        -5.5501   -3.4458   -5.8492 C.3       1 RES1    0.0000
      9 H1        -5.6230   -4.4302   -5.3245 H         1 RES1    0.0000
     10 H2        -5.7724   -3.7781   -6.5896 H         1 RES1    0.0000
     11 H3        -3.9625   -2.0909   -6.2816 H         1 RES1    0.0000
     12 H4        -3.4353   -3.4055   -5.6875 H         1 RES1    0.0000
     13 H5        -4.2261   -2.9397   -3.4983 H         1 RES1    0.0000
     14 H6        -2.8818   -1.3042   -3.0583 H         1 RES1    0.0000
     15 H7        -3.1366   -0.6107   -4.6644 H         1 RES1    0.0000
     16 C2A       -7.5147   -3.4365   -4.2211 C.2       1 RES1    0.0000
     17 N1A       -7.3829   -4.6155   -3.8217 N.2       1 RES1    0.0000
     18 O1A       -8.6542   -5.0409   -3.3091 O.3       1 RES1    0.0000
     19 C3A       -9.6514   -4.1104   -3.7931 C.3       1 RES1    0.0000
     20 C4A       -8.8941   -2.8724   -4.1650 C.3       1 RES1    0.0000
     21 C5A       -9.0074   -2.2803   -5.5808 C.3       1 RES1    0.0000
     22 C6A       -7.6289   -1.7297   -5.8492 C.3       1 RES1    0.0000
     23 H1A       -7.5560   -0.7453   -5.3245 H         1 RES1    0.0000
     24 H2A       -7.4066   -1.3974   -6.5896 H         1 RES1    0.0000
     25 H3A       -9.2165   -3.0846   -6.2816 H         1 RES1    0.0000
     26 H4A       -9.7437   -1.7700   -5.6875 H         1 RES1    0.0000
     27 H5A       -8.9529   -2.2358   -3.4983 H         1 RES1    0.0000
     28 H6A      -10.2972   -3.8713   -3.0583 H         1 RES1    0.0000
     29 H7A      -10.0424   -4.5648   -4.6644 H         1 RES1    0.0000
@<TRIPOS>BOND
     1    1    2 1
     2    2    4 2
     3    3    4 1
     4    4    6 1
     5    5    1 1
     6    6    5 1
     7    7    6 1
     8    8    3 1
     9    9    8 1
    10   10    8 1
    11   11    7 1
    12   12    7 1
    13   13    6 1
    14   14    5 1
    15   15    5 1
    16   16    3 1
    17   17   16 2
    18   18   17 1
    19   19   18 1
    20   20   16 1
    21   21   20 1
    22   22    3 1
    23   23   22 1
    24   24   22 1
    25   25   21 1
    26   26   21 1
    27   27   20 1
    28   28   19 1
    29   29   19 1
    30    7    8 1
    31   19   20 1
    32   21   22 1
@<TRIPOS>SUBSTRUCTURE
     1 RES1 1

@<TRIPOS>CRYSIN
   8.7860   10.3510   11.0010  90.0000  90.0000  90.0000  56 1

