# MOL2 file generated by ConQuest
# Please check atom types

@<TRIPOS>MOLECULE
QELYEO
    37    38     1
SMALL
NO_CHARGES
****
Generated from CSD

@<TRIPOS>ATOM
      1 C1         4.4020    3.0709    7.8852 C.3       1 RES1    0.0000
      2 H1         4.4653    3.8307    7.2536 H         1 RES1    0.0000
      3 H2         4.4915    3.4344    8.8018 H         1 RES1    0.0000
      4 C2         5.5490    2.1256    7.6240 C.ar      1 RES1    0.0000
      5 C3         5.8159    1.7083    6.3033 C.ar      1 RES1    0.0000
      6 O1         5.0428    2.2144    5.3247 O.3       1 RES1    0.0000
      7 H3         5.2299    1.8657    4.6315 H         1 RES1    0.0000
      8 C4         6.8552    0.7935    6.1049 C.ar      1 RES1    0.0000
      9 N1         7.0995    0.2368    4.7943 N.pl3     1 RES1    0.0000
     10 O2         6.4819    0.6854    3.8172 O.2       1 RES1    0.0000
     11 O3         7.9060   -0.6811    4.6830 O.2       1 RES1    0.0000
     12 C5         7.6702    0.3680    7.1538 C.ar      1 RES1    0.0000
     13 H4         8.3855   -0.2332    6.9825 H         1 RES1    0.0000
     14 C6         7.4427    0.8158    8.4392 C.ar      1 RES1    0.0000
     15 C7         8.3187    0.3693    9.5791 C.3       1 RES1    0.0000
     16 H5         7.8340   -0.2824   10.1276 H         1 RES1    0.0000
     17 H6         8.5594    1.1441   10.1289 H         1 RES1    0.0000
     18 H7         9.1326   -0.0442    9.2231 H         1 RES1    0.0000
     19 C8         6.3606    1.6731    8.6456 C.ar      1 RES1    0.0000
     20 H8         6.1732    1.9589    9.5320 H         1 RES1    0.0000
     21 C9         3.0342    2.4331    7.7451 C.ar      1 RES1    0.0000
     22 C10        2.5307    1.6294    8.7833 C.ar      1 RES1    0.0000
     23 O4         3.3098    1.4518    9.8694 O.3       1 RES1    0.0000
     24 H9         2.9179    0.9050   10.4171 H         1 RES1    0.0000
     25 C11        1.2532    1.0723    8.6258 C.ar      1 RES1    0.0000
     26 N2         0.6980    0.2162    9.6527 N.pl3     1 RES1    0.0000
     27 O5         1.3830   -0.0407   10.6664 O.2       1 RES1    0.0000
     28 O6        -0.4189   -0.2500    9.5025 O.2       1 RES1    0.0000
     29 C12        0.4885    1.3000    7.4826 C.ar      1 RES1    0.0000
     30 H10       -0.3741    0.9094    7.4056 H         1 RES1    0.0000
     31 C13        0.9758    2.0870    6.4661 C.ar      1 RES1    0.0000
     32 C14        0.1976    2.3517    5.2026 C.3       1 RES1    0.0000
     33 H11        0.6212    1.8814    4.4535 H         1 RES1    0.0000
     34 H12        0.1888    3.3146    5.0194 H         1 RES1    0.0000
     35 H13       -0.7218    2.0313    5.3109 H         1 RES1    0.0000
     36 C15        2.2549    2.6459    6.6242 C.ar      1 RES1    0.0000
     37 H14        2.5997    3.1949    5.9296 H         1 RES1    0.0000
@<TRIPOS>BOND
     1    1    2 1
     2    3    1 1
     3    4    1 1
     4    5    4 ar
     5    6    5 1
     6    7    6 1
     7    8    5 ar
     8    9    8 1
     9   10    9 2
    10   11    9 2
    11   12    8 ar
    12   13   12 1
    13   14   12 ar
    14   15   14 1
    15   16   15 1
    16   17   15 1
    17   18   15 1
    18   19    4 ar
    19   20   19 1
    20   21    1 1
    21   22   21 ar
    22   23   22 1
    23   24   23 1
    24   25   22 ar
    25   26   25 1
    26   27   26 2
    27   28   26 2
    28   29   25 ar
    29   30   29 1
    30   31   29 ar
    31   32   31 1
    32   33   32 1
    33   34   32 1
    34   35   32 1
    35   36   21 ar
    36   37   36 1
    37   14   19 ar
    38   31   36 ar
@<TRIPOS>SUBSTRUCTURE
     1 RES1 1

@<TRIPOS>CRYSIN
  43.9000    4.2890   15.2790  90.0000 101.1880  90.0000  15 1

