# MOL2 file generated by ConQuest
# Please check atom types

@<TRIPOS>MOLECULE
QENGEY
    77    68     2
SMALL
NO_CHARGES
****
Generated from CSD

@<TRIPOS>ATOM
      1 O1         6.8908    3.9002    7.1645 O.3       1 RES1    0.0000
      2 O2         6.8306    4.1842    2.5064 O.3       1 RES1    0.0000
      3 O3         8.8319    4.9219    5.6567 O.2       1 RES1    0.0000
      4 O4         3.5707    7.4648    5.6161 O.2       1 RES1    0.0000
      5 O5         3.1678    7.5806    7.7326 O.2       1 RES1    0.0000
      6 O6         6.4145    6.2620    3.2167 O.2       1 RES1    0.0000
      7 N1         6.3907    8.1767    6.9739 N.ar      1 RES1    0.0000
      8 N2         8.3290    7.0551    6.0710 N.am      1 RES1    0.0000
      9 N3         6.0382    4.4811    4.5312 N.am      1 RES1    0.0000
     10 H1         6.0306    3.6019    4.5701 H         1 RES1    0.0000
     11 N4         3.3806    6.9436    6.7155 N.pl3     1 RES1    0.0000
     12 C1         7.6212    8.2051    6.4781 C.ar      1 RES1    0.0000
     13 C2         7.7000    3.6123    8.2487 C.ar      1 RES1    0.0000
     14 C3         4.3317    4.6822    6.2657 C.ar      1 RES1    0.0000
     15 C4         8.3898    9.3381    6.2377 C.ar      1 RES1    0.0000
     16 C5         6.4354    5.0852    3.3913 C.2       1 RES1    0.0000
     17 C6         6.7347    5.2448    6.7614 C.3       1 RES1    0.0000
     18 H2         6.4762    5.8219    7.5361 H         1 RES1    0.0000
     19 C7         3.3265    5.4758    6.7911 C.ar      1 RES1    0.0000
     20 C8         5.6268    5.2381    5.6849 C.3       1 RES1    0.0000
     21 H3         5.4627    6.1820    5.3983 H         1 RES1    0.0000
     22 C9         6.5437   10.5739    7.0491 C.ar      1 RES1    0.0000
     23 H4         6.1258   11.4009    7.2578 H         1 RES1    0.0000
     24 C10        8.0449    5.7274    6.1335 C.2       1 RES1    0.0000
     25 C11        5.8795    9.3883    7.2603 C.ar      1 RES1    0.0000
     26 H5         5.0061    9.4269    7.6312 H         1 RES1    0.0000
     27 C12        7.8378   10.5520    6.5259 C.ar      1 RES1    0.0000
     28 H6         8.3184   11.3573    6.3752 H         1 RES1    0.0000
     29 C13        7.8359    2.2685    8.5259 C.ar      1 RES1    0.0000
     30 H7         7.4129    1.6174    7.9788 H         1 RES1    0.0000
     31 C14        2.9825    2.7768    6.9326 C.ar      1 RES1    0.0000
     32 H8         2.8624    1.8350    6.9648 H         1 RES1    0.0000
     33 C15        2.0134    3.6123    7.4507 C.ar      1 RES1    0.0000
     34 H9         1.2265    3.2499    7.8397 H         1 RES1    0.0000
     35 C16        4.1294    3.3077    6.3662 C.ar      1 RES1    0.0000
     36 H10        4.7975    2.7177    6.0369 H         1 RES1    0.0000
     37 C17        8.3157    4.5695    9.0364 C.ar      1 RES1    0.0000
     38 H11        8.2142    5.4941    8.8419 H         1 RES1    0.0000
     39 C18        2.1948    4.9659    7.3996 C.ar      1 RES1    0.0000
     40 H12        1.5498    5.5509    7.7788 H         1 RES1    0.0000
     41 C19        9.5319    7.4744    5.3156 C.3       1 RES1    0.0000
     42 H13        9.3835    7.3854    4.3407 H         1 RES1    0.0000
     43 H14       10.3163    6.9275    5.5713 H         1 RES1    0.0000
     44 C20        7.2582    4.5533    1.1511 C.3       1 RES1    0.0000
     45 C21        8.6027    1.8832    9.6194 C.ar      1 RES1    0.0000
     46 H15        8.6968    0.9607    9.8248 H         1 RES1    0.0000
     47 C22        9.7400    8.9328    5.7000 C.3       1 RES1    0.0000
     48 H16       10.4424    9.0230    6.3922 H         1 RES1    0.0000
     49 H17        9.9898    9.4780    4.9124 H         1 RES1    0.0000
     50 C23        9.2269    2.8255   10.4093 C.ar      1 RES1    0.0000
     51 H18        9.7526    2.5520   11.1518 H         1 RES1    0.0000
     52 C24        9.0853    4.1531   10.1193 C.ar      1 RES1    0.0000
     53 H19        9.5183    4.8004   10.6633 H         1 RES1    0.0000
     54 C25        8.6150    5.1779    1.2481 C.3       1 RES1    0.0000
     55 H20        8.5652    5.9817    1.8062 H         1 RES1    0.0000
     56 H21        8.9275    5.4208    0.3518 H         1 RES1    0.0000
     57 H22        9.2402    4.5391    1.6502 H         1 RES1    0.0000
     58 C26        6.2339    5.4793    0.4821 C.3       1 RES1    0.0000
     59 H23        5.3386    5.0909    0.5679 H         1 RES1    0.0000
     60 H24        6.4571    5.5824   -0.4657 H         1 RES1    0.0000
     61 H25        6.2528    6.3563    0.9201 H         1 RES1    0.0000
     62 C27        7.2506    3.2230    0.4310 C.3       1 RES1    0.0000
     63 H26        7.8661    2.6056    0.8781 H         1 RES1    0.0000
     64 H27        7.5356    3.3526   -0.4981 H         1 RES1    0.0000
     65 H28        6.3448    2.8490    0.4451 H         1 RES1    0.0000
     66 C28        6.0458    4.8088    0.3616 Du        2 SUP2    0.0000
     67 H29        5.4247    4.0569    0.4656 Du        2 SUP2    0.0000
     68 H30        6.2851    4.9058   -0.5832 Du        2 SUP2    0.0000
     69 H31        5.6175    5.6314    0.6772 Du        2 SUP2    0.0000
     70 C29        8.2473    5.7430    1.1358 Du        2 SUP2    0.0000
     71 H32        7.7600    6.5720    1.3293 Du        2 SUP2    0.0000
     72 H33        8.6632    5.8084    0.2513 Du        2 SUP2    0.0000
     73 H34        8.9369    5.6022    1.8146 Du        2 SUP2    0.0000
     74 C30        7.9813    3.2581    0.7170 Du        2 SUP2    0.0000
     75 H35        8.7059    3.0619    1.3462 Du        2 SUP2    0.0000
     76 H36        8.3499    3.3750   -0.1824 Du        2 SUP2    0.0000
     77 H37        7.3417    2.5139    0.7138 Du        2 SUP2    0.0000
@<TRIPOS>BOND
     1    1   13 1
     2    2   16 1
     3    3   24 2
     4    4   11 2
     5    5   11 2
     6    6   16 2
     7    7   12 ar
     8    8   12 1
     9    9   10 1
    10   11   19 1
    11   12   15 ar
    12   13   29 ar
    13   14   19 ar
    14   15   27 ar
    15   16    9 1
    16   17    1 1
    17   18   17 1
    18   19   39 ar
    19   20    9 1
    20   21   20 1
    21   22   23 1
    22   24    8 1
    23   25    7 ar
    24   26   25 1
    25   27   22 ar
    26   28   27 1
    27   29   30 1
    28   31   32 1
    29   33   31 ar
    30   34   33 1
    31   35   14 ar
    32   36   35 1
    33   37   13 ar
    34   38   37 1
    35   39   33 ar
    36   40   39 1
    37   41    8 1
    38   42   41 1
    39   43   41 1
    40   44    2 1
    41   45   29 ar
    42   46   45 1
    43   47   15 1
    44   48   47 1
    45   49   47 1
    46   50   45 ar
    47   51   50 1
    48   52   37 ar
    49   53   52 1
    50   54   44 1
    51   55   54 1
    52   56   54 1
    53   57   54 1
    54   58   44 1
    55   59   58 1
    56   60   58 1
    57   61   58 1
    58   62   44 1
    59   63   62 1
    60   64   62 1
    61   65   62 1
    62   14   20 1
    63   17   20 1
    64   17   24 1
    65   22   25 ar
    66   31   35 ar
    67   41   47 1
    68   50   52 ar
@<TRIPOS>SUBSTRUCTURE
     1 RES1 1
     2 SUP2 66

@<TRIPOS>CRYSIN
   9.5015   13.5192   20.4273  90.0000  90.0000  90.0000  19 1

