# MOL2 file generated by ConQuest
# Please check atom types

@<TRIPOS>MOLECULE
QENQIJ
    58    63     1
SMALL
NO_CHARGES
****
Generated from CSD

@<TRIPOS>ATOM
      1 O1        -0.1479    3.6468    9.8610 O.3       1 RES1    0.0000
      2 O2        -1.8753    4.6033    8.7714 O.2       1 RES1    0.0000
      3 O3        -1.2948    9.4602   13.7234 O.2       1 RES1    0.0000
      4 O4        -0.8093    7.9379   15.0883 O.2       1 RES1    0.0000
      5 N1        -1.0815    8.2700   14.0216 N.pl3     1 RES1    0.0000
      6 C1         0.3531    3.0877    7.4266 C.3       1 RES1    0.0000
      7 H1         0.6585    4.0188    7.4266 H         1 RES1    0.0000
      8 C2        -0.6261    2.8353    6.3255 C.ar      1 RES1    0.0000
      9 C3        -0.5341    3.5294    5.1240 C.ar      1 RES1    0.0000
     10 H2         0.0478    4.2524    5.0753 H         1 RES1    0.0000
     11 C4        -1.2492    3.2062    4.0201 C.ar      1 RES1    0.0000
     12 H3        -1.1264    3.6568    3.2172 H         1 RES1    0.0000
     13 C5        -2.1681    2.1799    4.1377 C.ar      1 RES1    0.0000
     14 H4        -2.6750    1.9441    3.3950 H         1 RES1    0.0000
     15 C6        -2.3528    1.5079    5.2990 C.ar      1 RES1    0.0000
     16 H5        -2.9803    0.8226    5.3391 H         1 RES1    0.0000
     17 C7        -1.6068    1.8345    6.4488 C.ar      1 RES1    0.0000
     18 C8        -1.8061    1.2101    7.7764 C.ar      1 RES1    0.0000
     19 C9        -2.7824    0.1904    7.9714 C.ar      1 RES1    0.0000
     20 H6        -3.2393   -0.1439    7.2345 H         1 RES1    0.0000
     21 C10       -3.0627   -0.3056    9.2044 C.ar      1 RES1    0.0000
     22 H7        -3.7109   -0.9665    9.2904 H         1 RES1    0.0000
     23 C11       -2.4455    0.1251   10.2682 C.ar      1 RES1    0.0000
     24 H8        -2.6809   -0.2159   11.0997 H         1 RES1    0.0000
     25 C12       -1.4103    1.1115   10.1793 C.ar      1 RES1    0.0000
     26 H9        -0.9608    1.4060   10.9391 H         1 RES1    0.0000
     27 C13       -1.0999    1.6164    8.9147 C.ar      1 RES1    0.0000
     28 C14        0.0221    2.6216    8.8230 C.3       1 RES1    0.0000
     29 C15        1.4412    1.9806    8.9291 C.3       1 RES1    0.0000
     30 H10        1.4133    1.0506    9.2388 H         1 RES1    0.0000
     31 C16        1.5626    2.0913    7.4581 C.3       1 RES1    0.0000
     32 H11        1.3912    1.2599    6.9907 H         1 RES1    0.0000
     33 H12        2.3984    2.4865    7.1656 H         1 RES1    0.0000
     34 C17        2.4661    2.8331    9.7061 C.3       1 RES1    0.0000
     35 H13        3.3496    2.5164    9.4624 H         1 RES1    0.0000
     36 H14        2.3918    3.7431    9.3793 H         1 RES1    0.0000
     37 C18        2.4153    2.8929   11.1886 C.ar      1 RES1    0.0000
     38 C19        1.9915    1.8621   11.9513 C.ar      1 RES1    0.0000
     39 H15        1.7524    1.0717   11.5241 H         1 RES1    0.0000
     40 C20        1.8907    1.9109   13.3305 C.ar      1 RES1    0.0000
     41 H16        1.6016    1.1868   13.8381 H         1 RES1    0.0000
     42 C21        2.2439    3.0899   13.8897 C.ar      1 RES1    0.0000
     43 H17        2.1608    3.1829   14.8130 H         1 RES1    0.0000
     44 C22        2.7221    4.1549   13.1757 C.ar      1 RES1    0.0000
     45 H18        2.9891    4.9332   13.6087 H         1 RES1    0.0000
     46 C23        2.8082    4.0642   11.8223 C.ar      1 RES1    0.0000
     47 H19        3.1267    4.7816   11.3234 H         1 RES1    0.0000
     48 C24       -1.1300    4.5701    9.7205 C.2       1 RES1    0.0000
     49 C25       -1.1013    5.5134   10.8789 C.ar      1 RES1    0.0000
     50 C26       -1.7068    6.7334   10.7126 C.ar      1 RES1    0.0000
     51 H20       -2.1129    6.9493    9.9040 H         1 RES1    0.0000
     52 C27       -1.7090    7.6323   11.7477 C.ar      1 RES1    0.0000
     53 H21       -2.1291    8.4560   11.6502 H         1 RES1    0.0000
     54 C28       -1.0999    7.3135   12.9004 C.ar      1 RES1    0.0000
     55 C29       -0.4708    6.0824   13.0983 C.ar      1 RES1    0.0000
     56 H22       -0.0677    5.8621   13.9040 H         1 RES1    0.0000
     57 C30       -0.4789    5.2078   12.0230 C.ar      1 RES1    0.0000
     58 H23       -0.0427    4.3897   12.0976 H         1 RES1    0.0000
@<TRIPOS>BOND
     1    1   28 1
     2    2   48 2
     3    3    5 2
     4    4    5 2
     5    5   54 1
     6    6    7 1
     7    8    6 1
     8    9    8 ar
     9   10    9 1
    10   11    9 ar
    11   12   11 1
    12   13   11 ar
    13   14   13 1
    14   15   13 ar
    15   16   15 1
    16   17    8 ar
    17   18   17 1
    18   19   18 ar
    19   20   19 1
    20   21   19 ar
    21   22   21 1
    22   23   21 ar
    23   24   23 1
    24   25   23 ar
    25   26   25 1
    26   27   18 ar
    27   28    6 1
    28   29   28 1
    29   30   29 1
    30   31    6 1
    31   32   31 1
    32   33   31 1
    33   34   29 1
    34   35   34 1
    35   36   34 1
    36   37   34 1
    37   38   37 ar
    38   39   38 1
    39   40   38 ar
    40   41   40 1
    41   42   40 ar
    42   43   42 1
    43   44   42 ar
    44   45   44 1
    45   46   37 ar
    46   47   46 1
    47   48    1 1
    48   49   48 1
    49   50   49 ar
    50   51   50 1
    51   52   50 ar
    52   53   52 1
    53   54   52 ar
    54   55   54 ar
    55   56   55 1
    56   57   49 ar
    57   58   57 1
    58   15   17 ar
    59   25   27 ar
    60   27   28 1
    61   29   31 1
    62   44   46 ar
    63   55   57 ar
@<TRIPOS>SUBSTRUCTURE
     1 RES1 1

@<TRIPOS>CRYSIN
   7.3570   11.0710   28.6740  90.0000  90.0000  90.0000  19 1

