# MOL2 file generated by ConQuest
# Please check atom types

@<TRIPOS>MOLECULE
QENQEF
    61    65     1
SMALL
NO_CHARGES
****
Generated from CSD

@<TRIPOS>ATOM
      1 O1         6.8388    3.6792    8.0493 O.2       1 RES1    0.0000
      2 O2         5.2512    4.4415    6.8582 O.2       1 RES1    0.0000
      3 O3         9.4889   -0.5972    4.7183 O.2       1 RES1    0.0000
      4 O4         9.2842   -0.2253    6.8465 O.2       1 RES1    0.0000
      5 N1         3.6836    2.8030    3.6386 N.2       1 RES1    0.0000
      6 H1         4.2401    3.8098    5.3026 H         1 RES1    0.0000
      7 N2         4.5198    3.2151    4.6542 N.pl3     1 RES1    0.0000
      8 N3         6.1450    3.6306    7.0637 N.pl3     1 RES1    0.0000
      9 N4         8.9426   -0.0616    5.6722 N.pl3     1 RES1    0.0000
     10 C1        -0.0981    3.7770    0.7246 C.ar      1 RES1    0.0000
     11 C2        -0.3112    3.1216   -0.4788 C.ar      1 RES1    0.0000
     12 C3         0.8180    2.5350   -1.2485 C.ar      1 RES1    0.0000
     13 C4         1.6217    1.5288   -0.6864 C.ar      1 RES1    0.0000
     14 C5         1.3614    0.9656    0.6737 C.3       1 RES1    0.0000
     15 H2         1.5370    0.0123    0.6554 H         1 RES1    0.0000
     16 H3         0.4227    1.0869    0.8871 H         1 RES1    0.0000
     17 C6         2.2083    1.6021    1.7907 C.3       1 RES1    0.0000
     18 H4         2.3028    0.9553    2.5077 H         1 RES1    0.0000
     19 H5         3.0950    1.7771    1.4387 H         1 RES1    0.0000
     20 C7         1.6601    2.9031    2.3853 C.3       1 RES1    0.0000
     21 H6         0.8344    2.6699    2.8588 H         1 RES1    0.0000
     22 C8         1.2815    3.9702    1.3335 C.3       1 RES1    0.0000
     23 H7         1.3181    4.8455    1.7500 H         1 RES1    0.0000
     24 H8         1.9412    3.9545    0.6227 H         1 RES1    0.0000
     25 C9        -1.1958    4.2981    1.4050 C.ar      1 RES1    0.0000
     26 H9        -1.0688    4.7193    2.2248 H         1 RES1    0.0000
     27 C10       -2.4826    4.1983    0.8771 C.ar      1 RES1    0.0000
     28 H10       -3.2050    4.5600    1.3377 H         1 RES1    0.0000
     29 C11       -2.6800    3.5653   -0.3217 C.ar      1 RES1    0.0000
     30 H11       -3.5366    3.4968   -0.6767 H         1 RES1    0.0000
     31 C12       -1.6104    3.0320   -0.9992 C.ar      1 RES1    0.0000
     32 H12       -1.7497    2.6063   -1.8140 H         1 RES1    0.0000
     33 C13        1.0970    2.9985   -2.5232 C.ar      1 RES1    0.0000
     34 H13        0.5499    3.6489   -2.8987 H         1 RES1    0.0000
     35 C14        2.1651    2.5188   -3.2484 C.ar      1 RES1    0.0000
     36 H14        2.3413    2.8481   -4.0999 H         1 RES1    0.0000
     37 C15        2.9661    1.5504   -2.6968 C.ar      1 RES1    0.0000
     38 H15        3.6993    1.2306   -3.1716 H         1 RES1    0.0000
     39 C16        2.6872    1.0483   -1.4415 C.ar      1 RES1    0.0000
     40 H16        3.2237    0.3739   -1.0932 H         1 RES1    0.0000
     41 C17        2.6133    3.4723    3.4254 C.2       1 RES1    0.0000
     42 C18        2.2340    4.7177    4.1647 C.ar      1 RES1    0.0000
     43 C19        3.0860    5.8161    4.1950 C.ar      1 RES1    0.0000
     44 H17        3.8951    5.7834    3.7388 H         1 RES1    0.0000
     45 C20        2.7406    6.9539    4.8974 C.ar      1 RES1    0.0000
     46 H18        3.3230    7.6788    4.9188 H         1 RES1    0.0000
     47 C21        1.5526    7.0211    5.5583 C.ar      1 RES1    0.0000
     48 H19        1.3277    7.7899    6.0319 H         1 RES1    0.0000
     49 C22        0.6843    5.9568    5.5286 C.ar      1 RES1    0.0000
     50 H20       -0.1256    5.9979    5.9835 H         1 RES1    0.0000
     51 C23        1.0288    4.8129    4.8091 C.ar      1 RES1    0.0000
     52 H21        0.4305    4.1028    4.7666 H         1 RES1    0.0000
     53 C24        5.6107    2.4617    4.9156 C.ar      1 RES1    0.0000
     54 C25        6.4008    2.6039    6.0784 C.ar      1 RES1    0.0000
     55 C26        7.4725    1.7561    6.3404 C.ar      1 RES1    0.0000
     56 H22        7.9497    1.8264    7.1350 H         1 RES1    0.0000
     57 C27        7.8105    0.8131    5.4035 C.ar      1 RES1    0.0000
     58 C28        7.1069    0.6816    4.2207 C.ar      1 RES1    0.0000
     59 H23        7.3695    0.0523    3.5881 H         1 RES1    0.0000
     60 C29        6.0257    1.4802    3.9876 C.ar      1 RES1    0.0000
     61 H24        5.5492    1.3758    3.1958 H         1 RES1    0.0000
@<TRIPOS>BOND
     1    1    8 2
     2    2    8 2
     3    3    9 2
     4    4    9 2
     5    5    7 1
     6    6    7 1
     7    7   53 1
     8    8   54 1
     9    9   57 1
    10   10   11 ar
    11   11   12 1
    12   12   13 ar
    13   13   14 1
    14   14   15 1
    15   16   14 1
    16   17   14 1
    17   18   17 1
    18   19   17 1
    19   20   17 1
    20   21   20 1
    21   22   10 1
    22   23   22 1
    23   24   22 1
    24   25   10 ar
    25   26   25 1
    26   27   25 ar
    27   28   27 1
    28   29   27 ar
    29   30   29 1
    30   31   11 ar
    31   32   31 1
    32   33   12 ar
    33   34   33 1
    34   35   33 ar
    35   36   35 1
    36   37   35 ar
    37   38   37 1
    38   39   13 ar
    39   40   39 1
    40   41    5 2
    41   42   41 1
    42   43   42 ar
    43   44   43 1
    44   45   43 ar
    45   46   45 1
    46   47   45 ar
    47   48   47 1
    48   49   47 ar
    49   50   49 1
    50   51   42 ar
    51   52   51 1
    52   53   54 ar
    53   54   55 ar
    54   55   56 1
    55   57   55 ar
    56   58   57 ar
    57   59   58 1
    58   60   53 ar
    59   61   60 1
    60   20   41 1
    61   20   22 1
    62   29   31 ar
    63   37   39 ar
    64   49   51 ar
    65   58   60 ar
@<TRIPOS>SUBSTRUCTURE
     1 RES1 1

@<TRIPOS>CRYSIN
   7.8760   10.8100   14.9310  80.0600  74.9200  87.3100   2 1

