# MOL2 file generated by ConQuest
# Please check atom types

@<TRIPOS>MOLECULE
QEPBUJ
    94    96     2
SMALL
NO_CHARGES
****
Generated from CSD

@<TRIPOS>ATOM
      1 O1         7.5822    7.3674    7.5734 O.3       1 RES1    0.0000
      2 C1         7.3538    6.2387    6.8351 C.2       1 RES1    0.0000
      3 C2         7.7559    6.2302    5.4507 C.2       1 RES1    0.0000
      4 C3         8.3130    7.3344    4.8681 C.2       1 RES1    0.0000
      5 C4         8.5091    8.5012    5.6672 C.ar      1 RES1    0.0000
      6 C5         9.0405    9.7306    5.2209 C.ar      1 RES1    0.0000
      7 H1         9.2978    9.8085    4.2989 H         1 RES1    0.0000
      8 C6         9.1927   10.8094    6.0400 C.ar      1 RES1    0.0000
      9 H2         9.5411   11.6341    5.6939 H         1 RES1    0.0000
     10 C7         8.8352   10.7484    7.4178 C.ar      1 RES1    0.0000
     11 C8         8.2868    9.5477    7.8761 C.ar      1 RES1    0.0000
     12 H3         8.0269    9.4546    8.7955 H         1 RES1    0.0000
     13 C9         8.1452    8.5096    7.0115 C.ar      1 RES1    0.0000
     14 O2         6.8223    5.3175    7.4485 O.2       1 RES1    0.0000
     15 C10        7.4668    4.9246    4.8320 C.2       1 RES1    0.0000
     16 H4         7.0580    4.2489    5.3786 H         1 RES1    0.0000
     17 N1         7.7125    4.6248    3.6120 N.2       1 RES1    0.0000
     18 O3         7.2635    3.3141    3.3501 O.3       1 RES1    0.0000
     19 C11        8.7035    7.3293    3.4182 C.3       1 RES1    0.0000
     20 H5         9.1702    6.5097    3.2338 H         1 RES1    0.0000
     21 H6         9.3016    8.0575    3.2365 H         1 RES1    0.0000
     22 C12        7.5165    7.4715    2.4815 C.3       1 RES1    0.0000
     23 H7         6.8565    6.8213    2.7381 H         1 RES1    0.0000
     24 H8         7.7772    7.2920    1.5755 H         1 RES1    0.0000
     25 C13        6.8969    8.7603    2.5229 C.3       1 RES1    0.0000
     26 H9         7.5747    9.4106    2.3211 H         1 RES1    0.0000
     27 H10        6.5886    8.9178    3.4182 H         1 RES1    0.0000
     28 C14        5.6686    8.9330    1.5194 C.3       1 RES1    0.0000
     29 H11        5.3035    9.8187    1.5889 H         1 RES1    0.0000
     30 H12        5.9829    8.7857    0.6240 H         1 RES1    0.0000
     31 H13        4.9878    8.2895    1.7305 H         1 RES1    0.0000
     32 N2         9.0081   11.8237    8.2476 N.3       1 RES1    0.0000
     33 C15        8.6598   11.7475    9.6694 C.3       1 RES1    0.0000
     34 H14        7.8231   11.2869    9.7736 H         1 RES1    0.0000
     35 H15        8.5520   12.6417   10.0008 H         1 RES1    0.0000
     36 C16        9.7187   11.0600   10.5126 C.3       1 RES1    0.0000
     37 H16        9.4709   11.0380   11.4400 H         1 RES1    0.0000
     38 H17        9.8166   10.1625   10.1866 H         1 RES1    0.0000
     39 H18       10.5513   11.5274   10.4151 H         1 RES1    0.0000
     40 C17        9.5721   13.0921    7.8039 C.3       1 RES1    0.0000
     41 H19       10.2296   12.9330    7.1224 H         1 RES1    0.0000
     42 H20       10.0094   13.5104    8.5483 H         1 RES1    0.0000
     43 C18        8.5153   14.0574    7.2708 C.3       1 RES1    0.0000
     44 H21        8.9133   14.8855    6.9955 H         1 RES1    0.0000
     45 H22        8.0870   13.6425    6.5171 H         1 RES1    0.0000
     46 H23        7.8645   14.2251    7.9563 H         1 RES1    0.0000
     47 O4        11.9741    9.7787    7.4929 O.3       2 RES2    0.0000
     48 C19       12.5036   10.7840    6.7082 C.2       2 RES2    0.0000
     49 C20       12.9696   10.4486    5.3893 C.2       2 RES2    0.0000
     50 C21       12.9120    9.1650    4.9269 C.2       2 RES2    0.0000
     51 C22       12.3221    8.1506    5.7594 C.ar      2 RES2    0.0000
     52 C23       12.1669    6.7908    5.4334 C.ar      2 RES2    0.0000
     53 H24       12.4968    6.4978    4.5795 H         2 RES2    0.0000
     54 C24       11.5823    5.8797    6.2605 C.ar      2 RES2    0.0000
     55 H25       11.4873    4.9652    5.9866 H         2 RES2    0.0000
     56 C25       11.1016    6.2675    7.5247 C.ar      2 RES2    0.0000
     57 C26       11.2427    7.6138    7.8815 C.ar      2 RES2    0.0000
     58 H26       10.9222    7.9152    8.7327 H         2 RES2    0.0000
     59 C27       11.8307    8.4978    7.0062 C.ar      2 RES2    0.0000
     60 O5        12.5609   11.8959    7.2173 O.2       2 RES2    0.0000
     61 C28       13.5338   11.6222    4.7104 C.2       2 RES2    0.0000
     62 H27       13.9300   12.3081    5.2530 H         2 RES2    0.0000
     63 N3        13.5356   11.7831    3.4356 N.2       2 RES2    0.0000
     64 O6        14.1543   13.0244    3.1216 O.3       2 RES2    0.0000
     65 C29       13.4287    8.7755    3.5559 C.3       2 RES2    0.0000
     66 H28       13.8512    7.9135    3.5906 H         2 RES2    0.0000
     67 H29       14.0866    9.4207    3.2846 H         2 RES2    0.0000
     68 C30       12.3167    8.7518    2.4922 C.3       2 RES2    0.0000
     69 H30       11.8566    9.5935    2.5029 H         2 RES2    0.0000
     70 H31       11.6909    8.0659    2.7327 H         2 RES2    0.0000
     71 C31       12.8373    8.5079    1.0797 C.3       2 RES2    0.0000
     72 H32       12.1008    8.3183    0.4944 H         2 RES2    0.0000
     73 H33       13.4009    7.7306    1.1038 H         2 RES2    0.0000
     74 C32       13.6422    9.6392    0.4931 C.3       2 RES2    0.0000
     75 H34       13.9556    9.4190   -0.3875 H         2 RES2    0.0000
     76 H35       13.0777   10.4148    0.4477 H         2 RES2    0.0000
     77 H36       14.3917    9.8221    1.0637 H         2 RES2    0.0000
     78 N4        10.5020    5.3784    8.3879 N.3       2 RES2    0.0000
     79 C33        9.8059    5.7933    9.5959 C.3       2 RES2    0.0000
     80 H37        9.1317    5.1447    9.8124 H         2 RES2    0.0000
     81 H38        9.3702    6.6316    9.4249 H         2 RES2    0.0000
     82 C34       10.7279    5.9678   10.8012 C.3       2 RES2    0.0000
     83 H39       10.2347    6.2489   11.5750 H         2 RES2    0.0000
     84 H40       11.1549    5.1278   10.9803 H         2 RES2    0.0000
     85 H41       11.3953    6.6265   10.5901 H         2 RES2    0.0000
     86 C35       10.6559    3.9017    8.1928 C.3       2 RES2    0.0000
     87 H42       10.7176    3.4767    9.0520 H         2 RES2    0.0000
     88 H43       11.4711    3.7290    7.7157 H         2 RES2    0.0000
     89 C36        9.5052    3.3141    7.4418 C.3       2 RES2    0.0000
     90 H44        9.6269    2.3675    7.3322 H         2 RES2    0.0000
     91 H45        8.6920    3.4767    7.9255 H         2 RES2    0.0000
     92 H46        9.4532    3.7307    6.5786 H         2 RES2    0.0000
     93 H47        7.4168    3.2176    2.4053 H         1 RES1    0.0000
     94 H48       13.8888   13.1582    2.2182 H         2 RES2    0.0000
@<TRIPOS>BOND
     1    1    2 1
     2    2    3 1
     3    3    4 2
     4    4    5 1
     5    5    6 ar
     6    6    7 1
     7    8    6 ar
     8    9    8 1
     9   10    8 ar
    10   11   10 ar
    11   12   11 1
    12   13    1 1
    13   14    2 2
    14   15    3 1
    15   16   15 1
    16   17   15 2
    17   18   17 1
    18   19    4 1
    19   20   19 1
    20   21   19 1
    21   22   19 1
    22   23   22 1
    23   24   22 1
    24   25   22 1
    25   26   25 1
    26   27   25 1
    27   28   25 1
    28   29   28 1
    29   30   28 1
    30   31   28 1
    31   32   10 1
    32   33   32 1
    33   34   33 1
    34   35   33 1
    35   36   33 1
    36   37   36 1
    37   38   36 1
    38   39   36 1
    39   40   32 1
    40   41   40 1
    41   42   40 1
    42   43   40 1
    43   44   43 1
    44   45   43 1
    45   46   43 1
    46   47   48 1
    47   48   49 1
    48   49   50 2
    49   50   51 1
    50   51   52 ar
    51   52   53 1
    52   54   52 ar
    53   55   54 1
    54   56   54 ar
    55   57   56 ar
    56   58   57 1
    57   59   47 1
    58   60   48 2
    59   61   49 1
    60   62   61 1
    61   63   61 2
    62   64   63 1
    63   65   50 1
    64   66   65 1
    65   67   65 1
    66   68   65 1
    67   69   68 1
    68   70   68 1
    69   71   68 1
    70   72   71 1
    71   73   71 1
    72   74   71 1
    73   75   74 1
    74   76   74 1
    75   77   74 1
    76   78   56 1
    77   79   78 1
    78   80   79 1
    79   81   79 1
    80   82   79 1
    81   83   82 1
    82   84   82 1
    83   85   82 1
    84   86   78 1
    85   87   86 1
    86   88   86 1
    87   89   86 1
    88   90   89 1
    89   91   89 1
    90   92   89 1
    91   93   18 1
    92   94   64 1
    93    5   13 ar
    94   11   13 ar
    95   51   59 ar
    96   57   59 ar
@<TRIPOS>SUBSTRUCTURE
     1 RES1 1
     2 RES2 47

@<TRIPOS>CRYSIN
  14.9783   16.9346   13.5481  90.0000  99.4840  90.0000  14 1

