# MOL2 file generated by ConQuest
# Please check atom types

@<TRIPOS>MOLECULE
QEPFEY
    20    20     1
SMALL
NO_CHARGES
****
Generated from CSD

@<TRIPOS>ATOM
      1 O1        -3.4789    1.7748    7.3652 O.2       1 RES1    0.0000
      2 N1        -2.8274    2.8474    7.7530 N.pl3     1 RES1    0.0000
      3 C1        -1.8013    3.3357    7.1294 C.2       1 RES1    0.0000
      4 H1        -1.4141    4.1126    7.5505 H         1 RES1    0.0000
      5 C2        -1.1921    2.8555    5.9067 C.ar      1 RES1    0.0000
      6 C3         0.0020    3.4801    5.5266 C.ar      1 RES1    0.0000
      7 H2         0.3715    4.1918    6.0934 H         1 RES1    0.0000
      8 C4         0.6663    3.1239    4.3676 C.ar      1 RES1    0.0000
      9 H3         1.4869    3.5885    4.1055 H         1 RES1    0.0000
     10 C5         0.1414    2.1327    3.5512 C.ar      1 RES1    0.0000
     11 C6        -1.0432    1.4967    3.9118 C.ar      1 RES1    0.0000
     12 H4        -1.3732    0.7729    3.3465 H         1 RES1    0.0000
     13 C7        -1.7058    1.8507    5.0753 C.ar      1 RES1    0.0000
     14 H5        -2.5264    1.4066    5.3333 H         1 RES1    0.0000
     15 O2         0.7341    1.7544    2.3886 O.3       1 RES1    0.0000
     16 H6         1.5696    2.0083    2.3653 H         1 RES1    0.0000
     17 C8        -3.3345    3.4717    8.9896 C.3       1 RES1    0.0000
     18 H7        -2.7852    4.2270    9.2146 H         1 RES1    0.0000
     19 H8        -3.3088    2.8324    9.7047 H         1 RES1    0.0000
     20 H9        -4.2390    3.7637    8.8534 H         1 RES1    0.0000
@<TRIPOS>BOND
     1    1    2 1
     2    2    3 2
     3    3    4 1
     4    5    3 1
     5    6    5 ar
     6    7    6 1
     7    8    6 ar
     8    9    8 1
     9   10    8 ar
    10   11   10 ar
    11   12   11 1
    12   13    5 ar
    13   14   13 1
    14   15   10 1
    15   16   15 1
    16   17    2 1
    17   18   17 1
    18   19   17 1
    19   20   17 1
    20   11   13 ar
@<TRIPOS>SUBSTRUCTURE
     1 RES1 1

@<TRIPOS>CRYSIN
   9.1200    8.0011   11.1142  90.0000 114.0780  90.0000 231 1

