# MOL2 file generated by ConQuest
# Please check atom types

@<TRIPOS>MOLECULE
QEPJEC
    36    37     1
SMALL
NO_CHARGES
****
Generated from CSD

@<TRIPOS>ATOM
      1 O1         2.0099    5.0016    2.8844 O.2       1 RES1    0.0000
      2 O2         2.4386    7.1521    3.3054 O.3       1 RES1    0.0000
      3 O3         1.8734    7.6159   -2.3858 O.2       1 RES1    0.0000
      4 O4         3.3743    7.2383   -0.8715 O.2       1 RES1    0.0000
      5 N1         1.9273    8.8237    0.9458 N.3       1 RES1    0.0000
      6 N2        -0.1487    9.5608    0.6245 N.2       1 RES1    0.0000
      7 N3         2.3174    7.7285   -1.2409 N.pl3     1 RES1    0.0000
      8 C1         0.8770    9.5004    1.4705 C.2       1 RES1    0.0000
      9 C2         0.2563    8.9107   -0.4845 C.2       1 RES1    0.0000
     10 H1        -0.2589    8.7890   -1.2500 H         1 RES1    0.0000
     11 C3         1.5237    8.4595   -0.3215 C.2       1 RES1    0.0000
     12 C4         0.8894   10.1257    2.8130 C.3       1 RES1    0.0000
     13 H2         0.0453   10.5538    2.9747 H         1 RES1    0.0000
     14 H3         1.5919   10.7785    2.8548 H         1 RES1    0.0000
     15 H4         1.0390    9.4516    3.4791 H         1 RES1    0.0000
     16 C5         3.2165    8.6114    1.5971 C.3       1 RES1    0.0000
     17 H5         3.3228    9.2651    2.3058 H         1 RES1    0.0000
     18 H6         3.9244    8.7579    0.9508 H         1 RES1    0.0000
     19 C6         3.3632    7.2170    2.1837 C.3       1 RES1    0.0000
     20 H7         3.1231    6.5447    1.5121 H         1 RES1    0.0000
     21 C7         4.7652    6.9763    2.6767 C.3       1 RES1    0.0000
     22 H8         4.8307    6.0882    3.0340 H         1 RES1    0.0000
     23 H9         4.9777    7.6140    3.3617 H         1 RES1    0.0000
     24 H10        5.3822    7.0731    1.9460 H         1 RES1    0.0000
     25 C8         1.8692    5.9781    3.5648 C.2       1 RES1    0.0000
     26 C9         1.0431    6.0136    4.8021 C.ar      1 RES1    0.0000
     27 C10        0.1477    4.9869    5.0258 C.ar      1 RES1    0.0000
     28 H11        0.0668    4.2977    4.4064 H         1 RES1    0.0000
     29 C11       -0.6293    4.9825    6.1695 C.ar      1 RES1    0.0000
     30 H12       -1.2406    4.2959    6.3129 H         1 RES1    0.0000
     31 C12       -0.4983    5.9914    7.0968 C.ar      1 RES1    0.0000
     32 H13       -1.0213    5.9878    7.8670 H         1 RES1    0.0000
     33 C13        0.3974    6.9950    6.8848 C.ar      1 RES1    0.0000
     34 H14        0.4976    7.6664    7.5196 H         1 RES1    0.0000
     35 C14        1.1558    7.0207    5.7369 C.ar      1 RES1    0.0000
     36 H15        1.7480    7.7233    5.5909 H         1 RES1    0.0000
@<TRIPOS>BOND
     1    1   25 2
     2    2   19 1
     3    3    7 2
     4    4    7 2
     5    5    8 1
     6    6    8 2
     7    7   11 1
     8    8   12 1
     9    9    6 1
    10   10    9 1
    11   11    5 1
    12   12   13 1
    13   14   12 1
    14   15   12 1
    15   16    5 1
    16   17   16 1
    17   18   16 1
    18   19   16 1
    19   20   19 1
    20   21   19 1
    21   22   21 1
    22   23   21 1
    23   24   21 1
    24   25    2 1
    25   26   25 1
    26   27   26 ar
    27   28   27 1
    28   29   27 ar
    29   30   29 1
    30   31   29 ar
    31   32   31 1
    32   33   31 ar
    33   34   33 1
    34   35   26 ar
    35   36   35 1
    36    9   11 2
    37   33   35 ar
@<TRIPOS>SUBSTRUCTURE
     1 RES1 1

@<TRIPOS>CRYSIN
   6.5627    8.8814   12.7277  90.0000 103.7360  90.0000   4 1

