# MOL2 file generated by ConQuest
# Please check atom types

@<TRIPOS>MOLECULE
QEPJAY
    40    41     1
SMALL
NO_CHARGES
****
Generated from CSD

@<TRIPOS>ATOM
      1 O1         1.4631    3.3342   -2.7285 O.2       1 RES1    0.0000
      2 O2        -0.0298    2.9673   -1.2031 O.2       1 RES1    0.0000
      3 O3         0.8930    3.0111    3.0347 O.3       1 RES1    0.0000
      4 O4         1.0979    0.7782    2.9751 O.2       1 RES1    0.0000
      5 N1         1.4463    4.5449    0.5965 N.3       1 RES1    0.0000
      6 N2         3.5214    5.2517    0.2550 N.2       1 RES1    0.0000
      7 N3         1.0269    3.4456   -1.5814 N.pl3     1 RES1    0.0000
      8 C1         2.5096    5.2002    1.1037 C.2       1 RES1    0.0000
      9 C2         3.0976    4.6134   -0.8522 C.2       1 RES1    0.0000
     10 H1         3.6016    4.4909   -1.6241 H         1 RES1    0.0000
     11 C3         1.8345    4.1792   -0.6763 C.2       1 RES1    0.0000
     12 C4         0.1511    4.3561    1.2563 C.3       1 RES1    0.0000
     13 H2        -0.5558    4.4721    0.6013 H         1 RES1    0.0000
     14 H3         0.0403    5.0402    1.9346 H         1 RES1    0.0000
     15 C5         0.0041    2.9983    1.9013 C.3       1 RES1    0.0000
     16 H4         0.2703    2.2946    1.2726 H         1 RES1    0.0000
     17 C6        -1.4131    2.7634    2.3760 C.3       1 RES1    0.0000
     18 H5        -1.4528    1.9418    2.8702 H         1 RES1    0.0000
     19 H6        -1.9993    2.7100    1.6175 H         1 RES1    0.0000
     20 H7        -1.6856    3.4905    2.9402 H         1 RES1    0.0000
     21 C7         1.3657    1.8426    3.4732 C.2       1 RES1    0.0000
     22 C8         2.2755    2.0634    4.6234 C.2       1 RES1    0.0000
     23 H8         2.2377    2.8701    5.0836 H         1 RES1    0.0000
     24 C9         3.1290    1.1501    5.0062 C.2       1 RES1    0.0000
     25 H9         3.0991    0.3350    4.5590 H         1 RES1    0.0000
     26 C10        4.1282    1.2839    6.0695 C.ar      1 RES1    0.0000
     27 C11        5.1581    0.3855    6.1353 C.ar      1 RES1    0.0000
     28 H10        5.1938   -0.3172    5.5263 H         1 RES1    0.0000
     29 C12        6.1432    0.5072    7.0916 C.ar      1 RES1    0.0000
     30 H11        6.8408   -0.1076    7.1134 H         1 RES1    0.0000
     31 C13        6.1083    1.5150    8.0051 C.ar      1 RES1    0.0000
     32 H12        6.7735    1.5862    8.6503 H         1 RES1    0.0000
     33 C14        5.0926    2.4153    7.9654 C.ar      1 RES1    0.0000
     34 H13        5.0645    3.1106    8.5829 H         1 RES1    0.0000
     35 C15        4.1040    2.3030    7.0147 C.ar      1 RES1    0.0000
     36 H14        3.4080    2.9197    7.0037 H         1 RES1    0.0000
     37 C16        2.5423    5.7982    2.4545 C.3       1 RES1    0.0000
     38 H15        3.4317    6.1051    2.6469 H         1 RES1    0.0000
     39 H16        2.2833    5.1394    3.1028 H         1 RES1    0.0000
     40 H17        1.9330    6.5393    2.4909 H         1 RES1    0.0000
@<TRIPOS>BOND
     1    1    7 2
     2    2    7 2
     3    3   15 1
     4    4   21 2
     5    5    8 1
     6    6    8 2
     7    7   11 1
     8    8   37 1
     9    9    6 1
    10   10    9 1
    11   11    5 1
    12   12    5 1
    13   13   12 1
    14   14   12 1
    15   15   12 1
    16   16   15 1
    17   17   15 1
    18   18   17 1
    19   19   17 1
    20   20   17 1
    21   21    3 1
    22   22   21 1
    23   23   22 1
    24   24   22 2
    25   25   24 1
    26   26   24 1
    27   27   26 ar
    28   28   27 1
    29   29   27 ar
    30   30   29 1
    31   31   29 ar
    32   32   31 1
    33   33   31 ar
    34   34   33 1
    35   35   26 ar
    36   36   35 1
    37   37   38 1
    38   39   37 1
    39   40   37 1
    40    9   11 2
    41   33   35 ar
@<TRIPOS>SUBSTRUCTURE
     1 RES1 1

@<TRIPOS>CRYSIN
   6.5444    9.3579   13.2222  90.0000  91.9450  90.0000   4 1

