# MOL2 file generated by ConQuest
# Please check atom types

@<TRIPOS>MOLECULE
QEQKAY
    64    68     1
SMALL
NO_CHARGES
****
Generated from CSD

@<TRIPOS>ATOM
      1 C1        13.4425   -0.2501   -0.9307 C.ar      1 RES1    0.0000
      2 H1        13.1610   -1.1267   -0.8011 H         1 RES1    0.0000
      3 C2        13.3796    0.2927   -2.1952 C.ar      1 RES1    0.0000
      4 H2        13.0723   -0.2181   -2.9085 H         1 RES1    0.0000
      5 C3        13.7778    1.6039   -2.3979 C.ar      1 RES1    0.0000
      6 C4        14.2051    2.3600   -1.3323 C.ar      1 RES1    0.0000
      7 H3        14.4535    3.2456   -1.4665 H         1 RES1    0.0000
      8 C5        14.2693    1.8073   -0.0399 C.ar      1 RES1    0.0000
      9 C6        14.7468    2.7044    1.0774 C.3       1 RES1    0.0000
     10 H4        14.2625    3.5440    1.0349 H         1 RES1    0.0000
     11 H5        15.6877    2.8979    0.9450 H         1 RES1    0.0000
     12 C7        14.5581    2.0943    2.4595 C.3       1 RES1    0.0000
     13 H6        13.6280    2.1746    2.7254 H         1 RES1    0.0000
     14 H7        15.0989    2.5781    3.1047 H         1 RES1    0.0000
     15 C8        14.9627    0.6257    2.4541 C.3       1 RES1    0.0000
     16 H8        15.8648    0.5527    2.0796 H         1 RES1    0.0000
     17 C9        13.9964   -0.1525    1.5512 C.3       1 RES1    0.0000
     18 H9        13.1063   -0.0648    1.9521 H         1 RES1    0.0000
     19 C10       13.9155    0.4781    0.1646 C.ar      1 RES1    0.0000
     20 C11       14.3233   -1.6531    1.5304 C.3       1 RES1    0.0000
     21 H10       13.6480   -2.1222    1.0153 H         1 RES1    0.0000
     22 H11       15.1787   -1.7892    1.0954 H         1 RES1    0.0000
     23 C12       14.3768   -2.2370    2.9510 C.3       1 RES1    0.0000
     24 H12       13.4926   -2.1935    3.3466 H         1 RES1    0.0000
     25 H13       14.6366   -3.1709    2.9019 H         1 RES1    0.0000
     26 C13       15.3606   -1.4899    3.8384 C.3       1 RES1    0.0000
     27 C14       14.9656   -0.0008    3.8451 C.3       1 RES1    0.0000
     28 H14       14.0424    0.0410    4.1722 H         1 RES1    0.0000
     29 C15       15.8425    0.6035    4.9414 C.3       1 RES1    0.0000
     30 H15       15.4460    1.4129    5.2987 H         1 RES1    0.0000
     31 H16       16.7289    0.8077    4.6055 H         1 RES1    0.0000
     32 C16       15.8966   -0.5035    6.0080 C.3       1 RES1    0.0000
     33 H17       15.3580   -0.2526    6.7750 H         1 RES1    0.0000
     34 H18       16.8104   -0.6355    6.3041 H         1 RES1    0.0000
     35 C17       15.3463   -1.8147    5.3749 C.3       1 RES1    0.0000
     36 C18       16.7855   -1.6941    3.3208 C.3       1 RES1    0.0000
     37 H19       16.9446   -2.6306    3.1848 H         1 RES1    0.0000
     38 H20       17.4117   -1.3530    3.9630 H         1 RES1    0.0000
     39 H21       16.8939   -1.2267    2.4899 H         1 RES1    0.0000
     40 C19       14.1846    3.3522   -3.9760 C.3       1 RES1    0.0000
     41 H22       13.7151    3.9950   -3.4398 H         1 RES1    0.0000
     42 H23       14.0513    3.5514   -4.9063 H         1 RES1    0.0000
     43 H24       15.1225    3.3882   -3.7717 H         1 RES1    0.0000
     44 O1        13.6920    2.0566   -3.6975 O.3       1 RES1    0.0000
     45 O2        16.1802   -2.9389    5.6325 O.3       1 RES1    0.0000
     46 H25       16.3600   -2.9684    6.4316 H         1 RES1    0.0000
     47 O3        13.9711   -2.0221    7.3696 O.3       1 RES1    0.0000
     48 N1        13.6377   -3.2677    7.9374 N.2       1 RES1    0.0000
     49 C20       13.3441   -4.0934    7.0253 C.2       1 RES1    0.0000
     50 C21       13.4357   -3.5334    5.6502 C.3       1 RES1    0.0000
     51 H26       12.5670   -3.5235    5.2169 H         1 RES1    0.0000
     52 H27       14.0572   -4.0393    5.1058 H         1 RES1    0.0000
     53 C22       13.9421   -2.1238    5.9021 C.3       1 RES1    0.0000
     54 H28       13.3034   -1.4744    5.5390 H         1 RES1    0.0000
     55 C23       13.0240   -5.5399    7.3178 C.3       1 RES1    0.0000
     56 H29       13.8161   -6.0409    7.0267 H         1 RES1    0.0000
     57 C24       12.8895   -5.8286    8.7450 C.3       1 RES1    0.0000
     58 H30       12.0283   -5.5325    9.0507 H         1 RES1    0.0000
     59 H31       13.5779   -5.3685    9.2306 H         1 RES1    0.0000
     60 H32       12.9719   -6.7740    8.8889 H         1 RES1    0.0000
     61 C25       11.9215   -6.0385    6.4774 C.3       1 RES1    0.0000
     62 H33       11.1164   -5.5580    6.6867 H         1 RES1    0.0000
     63 H34       11.7873   -6.9741    6.6475 H         1 RES1    0.0000
     64 H35       12.1402   -5.9097    5.5521 H         1 RES1    0.0000
@<TRIPOS>BOND
     1    1    2 1
     2    3    1 ar
     3    4    3 1
     4    5    3 ar
     5    6    5 ar
     6    7    6 1
     7    8    6 ar
     8    9    8 1
     9   10    9 1
    10   11    9 1
    11   12    9 1
    12   13   12 1
    13   14   12 1
    14   15   12 1
    15   16   15 1
    16   17   15 1
    17   18   17 1
    18   19    1 ar
    19   20   17 1
    20   21   20 1
    21   22   20 1
    22   23   20 1
    23   24   23 1
    24   25   23 1
    25   26   23 1
    26   27   15 1
    27   28   27 1
    28   29   27 1
    29   30   29 1
    30   31   29 1
    31   32   29 1
    32   33   32 1
    33   34   32 1
    34   35   26 1
    35   36   26 1
    36   37   36 1
    37   38   36 1
    38   39   36 1
    39   40   41 1
    40   42   40 1
    41   43   40 1
    42   44    5 1
    43   45   35 1
    44   46   45 1
    45   47   48 1
    46   48   49 2
    47   49   50 1
    48   50   51 1
    49   52   50 1
    50   53   35 1
    51   54   53 1
    52   55   49 1
    53   56   55 1
    54   57   55 1
    55   58   57 1
    56   59   57 1
    57   60   57 1
    58   61   55 1
    59   62   61 1
    60   63   61 1
    61   64   61 1
    62    8   19 ar
    63   17   19 1
    64   26   27 1
    65   32   35 1
    66   40   44 1
    67   47   53 1
    68   50   53 1
@<TRIPOS>SUBSTRUCTURE
     1 RES1 1

@<TRIPOS>CRYSIN
  16.4060    8.2000   16.4720  90.0000  97.0100  90.0000   5 1

