# MOL2 file generated by ConQuest
# Please check atom types

@<TRIPOS>MOLECULE
QERHAX
    41    42     1
SMALL
USER_CHARGES
****
Generated from CSD

@<TRIPOS>ATOM
      1 O1        -0.2548    1.7139    8.5262 O.3       1 RES1    0.0000
      2 O2        -0.2127    2.0145    5.8651 O.3       1 RES1    0.0000
      3 O3         1.5001    3.6392    4.6752 O.3       1 RES1    0.0000
      4 O4         3.2635    3.8911   11.0357 O.2       1 RES1   -1.0000
      5 N1         3.9420    4.5912   10.1683 N.pl3     1 RES1    1.0000
      6 C1         5.9507    6.8723   12.2893 C.ar      1 RES1    0.0000
      7 C2         7.2299    6.5726   11.8837 C.ar      1 RES1    0.0000
      8 C3         7.4276    5.6611   10.8678 C.ar      1 RES1    0.0000
      9 C4         6.3454    5.0411   10.2780 C.ar      1 RES1    0.0000
     10 C5         5.0679    5.3268   10.7372 C.ar      1 RES1    0.0000
     11 C6         4.8304    6.2572   11.7381 C.ar      1 RES1    0.0000
     12 C7         3.7023    4.6547    8.8974 C.2       1 RES1    0.0000
     13 C8         2.6467    3.9670    8.1758 C.ar      1 RES1    0.0000
     14 C9         2.6082    4.1470    6.7876 C.ar      1 RES1    0.0000
     15 C10        1.6271    3.5303    6.0251 C.ar      1 RES1    0.0000
     16 C11        0.6896    2.7047    6.6456 C.ar      1 RES1    0.0000
     17 C12        0.7227    2.5247    8.0210 C.ar      1 RES1    0.0000
     18 C13        1.6930    3.1546    8.7989 C.ar      1 RES1    0.0000
     19 C14       -0.1770    1.2995    9.8647 C.3       1 RES1    0.0000
     20 C15       -1.4847    2.6436    5.7474 C.3       1 RES1    0.0000
     21 C16        2.3581    4.5309    4.0035 C.3       1 RES1    0.0000
     22 C17        3.4452    6.6304   12.2036 C.3       1 RES1    0.0000
     23 H1         5.8290    7.5097   12.9572 H         1 RES1    0.0000
     24 H2         7.9577    6.9821   12.2919 H         1 RES1    0.0000
     25 H3         8.2901    5.4646   10.5799 H         1 RES1    0.0000
     26 H4         6.4704    4.4393    9.5807 H         1 RES1    0.0000
     27 H5         4.2647    5.1980    8.3933 H         1 RES1    0.0000
     28 H6         3.2451    4.6836    6.3730 H         1 RES1    0.0000
     29 H7         1.7069    3.0349    9.7201 H         1 RES1    0.0000
     30 H8         0.6853    0.9123   10.0298 H         1 RES1    0.0000
     31 H9        -0.8596    0.6473   10.0374 H         1 RES1    0.0000
     32 H10       -0.3046    2.0566   10.4417 H         1 RES1    0.0000
     33 H11       -1.9072    2.6741    6.6097 H         1 RES1    0.0000
     34 H12       -2.0339    2.1433    5.1396 H         1 RES1    0.0000
     35 H13       -1.3706    3.5369    5.4160 H         1 RES1    0.0000
     36 H14        2.2700    5.4077    4.3860 H         1 RES1    0.0000
     37 H15        2.1231    4.5614    3.0733 H         1 RES1    0.0000
     38 H16        3.2654    4.2320    4.0956 H         1 RES1    0.0000
     39 H17        2.8933    6.8244   11.4423 H         1 RES1    0.0000
     40 H18        3.4953    7.4056   12.7678 H         1 RES1    0.0000
     41 H19        3.0649    5.8997   12.6962 H         1 RES1    0.0000
@<TRIPOS>BOND
     1    1   17 1
     2    2   16 1
     3    3   15 1
     4    4    5 1
     5    5   10 1
     6    6    7 ar
     7    7    8 ar
     8    8    9 ar
     9    9   10 ar
    10   10   11 ar
    11   11    6 ar
    12   12    5 2
    13   13   12 1
    14   14   13 ar
    15   15   14 ar
    16   16   15 ar
    17   17   16 ar
    18   18   13 ar
    19   19    1 1
    20   20    2 1
    21   21    3 1
    22   22   11 1
    23   23    6 1
    24   24    7 1
    25   25    8 1
    26   26    9 1
    27   27   12 1
    28   28   14 1
    29   29   18 1
    30   30   19 1
    31   31   19 1
    32   32   19 1
    33   33   20 1
    34   34   20 1
    35   35   20 1
    36   36   21 1
    37   37   21 1
    38   38   21 1
    39   39   22 1
    40   40   22 1
    41   41   22 1
    42   17   18 ar
@<TRIPOS>SUBSTRUCTURE
     1 RES1 1

@<TRIPOS>CRYSIN
   7.5320    8.2560   12.8720  90.0000  96.2830  90.0000   4 1

