# MOL2 file generated by ConQuest
# Please check atom types

@<TRIPOS>MOLECULE
QERTUD
    19    20     1
SMALL
NO_CHARGES
****
Generated from CSD

@<TRIPOS>ATOM
      1 O1         5.4008   14.9379    0.9118 O.2       1 RES1    0.0000
      2 O2         4.9229    9.2154    2.0044 O.3       1 RES1    0.0000
      3 O3         6.3230   10.8748    1.2052 O.3       1 RES1    0.0000
      4 O4         0.9259   13.5256    2.7787 O.2       1 RES1    0.0000
      5 O5         0.7045   11.5160    3.5286 O.2       1 RES1    0.0000
      6 N1         1.3459   12.3896    2.9590 N.pl3     1 RES1    0.0000
      7 C1         4.7853   12.7494    1.5607 C.ar      1 RES1    0.0000
      8 C2         3.4918   13.0582    2.0105 C.ar      1 RES1    0.0000
      9 C3         2.6807   12.0536    2.4807 C.ar      1 RES1    0.0000
     10 C4         3.0534   10.7030    2.5377 C.ar      1 RES1    0.0000
     11 C5         4.3057   10.4304    2.0985 C.ar      1 RES1    0.0000
     12 C6         5.1622   11.4206    1.6214 C.ar      1 RES1    0.0000
     13 C7         6.2682    9.4834    1.5820 C.3       1 RES1    0.0000
     14 C8         5.6924   13.7735    1.0275 C.2       1 RES1    0.0000
     15 H1         3.1621   13.9875    1.9956 H         1 RES1    0.0000
     16 H2         2.4356   10.0564    2.8633 H         1 RES1    0.0000
     17 H3         6.9118    9.3453    2.3499 H         1 RES1    0.0000
     18 H4         6.4679    8.9402    0.7664 H         1 RES1    0.0000
     19 H5         6.5510   13.5016    0.6652 H         1 RES1    0.0000
@<TRIPOS>BOND
     1    1   14 2
     2    2   11 1
     3    3   12 1
     4    4    6 2
     5    5    6 2
     6    6    9 1
     7    7    8 ar
     8    8    9 ar
     9    9   10 ar
    10   10   11 ar
    11   11   12 ar
    12   12    7 ar
    13   13    2 1
    14   14    7 1
    15   15    8 1
    16   16   10 1
    17   17   13 1
    18   18   13 1
    19   19   14 1
    20    3   13 1
@<TRIPOS>SUBSTRUCTURE
     1 RES1 1

@<TRIPOS>CRYSIN
   7.4620   14.1660    7.3202  90.0000  98.9750  90.0000  14 1

