# MOL2 file generated by ConQuest
# Please check atom types

@<TRIPOS>MOLECULE
QERYUK
    30    32     1
SMALL
NO_CHARGES
****
Generated from CSD

@<TRIPOS>ATOM
      1 O1         2.9812    7.2492    7.4475 O.2       1 RES1    0.0000
      2 O2         2.8077   12.8654    9.8871 O.2       1 RES1    0.0000
      3 O3         3.7778   10.9740    9.7180 O.2       1 RES1    0.0000
      4 C1         3.6758   10.0590    7.0238 C.2       1 RES1    0.0000
      5 H1         3.8103    9.6782    7.8616 H         1 RES1    0.0000
      6 C2         3.1703    9.2547    6.0907 C.2       1 RES1    0.0000
      7 C3         4.7122   14.1878    6.5018 C.ar      1 RES1    0.0000
      8 H2         4.9225   15.0843    6.3692 H         1 RES1    0.0000
      9 C4         4.8609   13.2809    5.4793 C.ar      1 RES1    0.0000
     10 H3         5.1983   13.5614    4.6587 H         1 RES1    0.0000
     11 C5         4.5162   11.9729    5.6595 C.ar      1 RES1    0.0000
     12 H4         4.5971   11.3895    4.9394 H         1 RES1    0.0000
     13 C6         4.0432   11.4612    6.8898 C.ar      1 RES1    0.0000
     14 C7         2.7852    7.8195    6.3990 C.2       1 RES1    0.0000
     15 C8         2.1568    7.3242    5.1889 C.ar      1 RES1    0.0000
     16 C9         1.5890    6.0980    4.8851 C.ar      1 RES1    0.0000
     17 H5         1.5415    5.4245    5.5240 H         1 RES1    0.0000
     18 C10        1.1031    5.9035    3.6340 C.ar      1 RES1    0.0000
     19 H6         0.7152    5.0888    3.4099 H         1 RES1    0.0000
     20 C11        4.2447   13.7517    7.7350 C.ar      1 RES1    0.0000
     21 H7         4.1405   14.3515    8.4379 H         1 RES1    0.0000
     22 C12        3.9366   12.4191    7.9025 C.ar      1 RES1    0.0000
     23 N1         2.8135    9.4698    4.7786 N.pl3     1 RES1    0.0000
     24 H8         2.9385   10.2063    4.3519 H         1 RES1    0.0000
     25 C13        2.2234    8.3354    4.2402 C.ar      1 RES1    0.0000
     26 C14        1.1827    6.9148    2.6883 C.ar      1 RES1    0.0000
     27 H9         0.8476    6.7592    1.8341 H         1 RES1    0.0000
     28 C15        1.7470    8.1491    2.9765 C.ar      1 RES1    0.0000
     29 H10        1.7981    8.8205    2.3346 H         1 RES1    0.0000
     30 N2         3.4731   12.0527    9.2623 N.pl3     1 RES1    0.0000
@<TRIPOS>BOND
     1    1   14 2
     2    2   30 2
     3    3   30 2
     4    4    5 1
     5    6    4 2
     6    7    8 1
     7    9    7 ar
     8   10    9 1
     9   11    9 ar
    10   12   11 1
    11   13    4 1
    12   14    6 1
    13   15   14 1
    14   16   15 ar
    15   17   16 1
    16   18   16 ar
    17   19   18 1
    18   20    7 ar
    19   21   20 1
    20   22   13 ar
    21   23    6 1
    22   24   23 1
    23   25   15 ar
    24   26   18 ar
    25   27   26 1
    26   28   25 ar
    27   29   28 1
    28   30   22 1
    29   11   13 ar
    30   20   22 ar
    31   23   25 1
    32   26   28 ar
@<TRIPOS>SUBSTRUCTURE
     1 RES1 1

@<TRIPOS>CRYSIN
   3.8970   20.4700    7.4470  90.0000  90.4500  90.0000   4 1

