# MOL2 file generated by ConQuest
# Please check atom types

@<TRIPOS>MOLECULE
QESKUU
    36    37     1
SMALL
USER_CHARGES
****
Generated from CSD

@<TRIPOS>ATOM
      1 O1         9.9582    8.4337    1.7851 O.2       1 RES1   -1.0000
      2 N1        11.3270    8.4337    1.5257 N.4       1 RES1    1.0000
      3 C1        11.9560    7.2553    2.2435 C.3       1 RES1    0.0000
      4 O2        12.7393    7.0248    4.5417 O.3       1 RES1    0.0000
      5 C2        11.7899    7.6533    3.7180 C.3       1 RES1    0.0000
      6 C3        11.3468    5.9250    1.8772 C.3       1 RES1    0.0000
      7 C4        11.5268    8.4337    0.0273 C.3       1 RES1    0.0000
      8 C5        12.9628    8.4337   -0.4426 C.ar      1 RES1    0.0000
      9 C6        13.6334    7.2452   -0.6917 C.ar      1 RES1    0.0000
     10 C7        14.9388    7.2519   -1.1354 C.ar      1 RES1    0.0000
     11 C8        15.5975    8.4337   -1.3493 C.ar      1 RES1    0.0000
     12 H1        12.9114    7.2317    2.0308 H         1 RES1    0.0000
     13 H2        13.4820    7.3385    4.3904 H         1 RES1    0.0000
     14 H3        10.9017    7.3565    4.0081 H         1 RES1    0.0000
     15 H4        11.4932    5.7518    0.9443 H         1 RES1    0.0000
     16 H5        10.4033    5.9452    2.0547 H         1 RES1    0.0000
     17 H6        11.7553    5.2312    2.3994 H         1 RES1    0.0000
     18 H7        11.0847    7.6522   -0.3402 H         1 RES1    0.0000
     19 H8        13.1972    6.4344   -0.5586 H         1 RES1    0.0000
     20 H9        15.3760    6.4468   -1.2924 H         1 RES1    0.0000
     21 H10       16.4827    8.4337   -1.6349 H         1 RES1    0.0000
     22 C2G       11.7899    9.2142    3.7180 C.3       1 RES1    0.0000
     23 C1G       11.9560    9.6122    2.2435 C.3       1 RES1    0.0000
     24 C7G       14.9388    9.6156   -1.1354 C.ar      1 RES1    0.0000
     25 C6G       13.6334    9.6223   -0.6917 C.ar      1 RES1    0.0000
     26 H8G       13.1972   10.4331   -0.5586 H         1 RES1    0.0000
     27 H9G       15.3760   10.4207   -1.2924 H         1 RES1    0.0000
     28 H7G       11.0847    9.2153   -0.3402 H         1 RES1    0.0000
     29 C3G       11.3468   10.9425    1.8772 C.3       1 RES1    0.0000
     30 H4G       11.4932   11.1157    0.9443 H         1 RES1    0.0000
     31 H5G       10.4033   10.9223    2.0547 H         1 RES1    0.0000
     32 H6G       11.7553   11.6363    2.3994 H         1 RES1    0.0000
     33 H1G       12.9114    9.6358    2.0308 H         1 RES1    0.0000
     34 O2G       12.7393    9.8427    4.5417 O.3       1 RES1    0.0000
     35 H2G       13.4820    9.5290    4.3904 H         1 RES1    0.0000
     36 H3G       10.9017    9.5110    4.0081 H         1 RES1    0.0000
@<TRIPOS>BOND
     1    1    2 1
     2    2    3 1
     3    3    5 1
     4    4    5 1
     5    5   14 1
     6    6    3 1
     7    7    2 1
     8    8    7 1
     9    9    8 ar
    10   10    9 ar
    11   11   10 ar
    12   12    3 1
    13   13    4 1
    14   15    6 1
    15   16    6 1
    16   17    6 1
    17   18    7 1
    18   19    9 1
    19   20   10 1
    20   21   11 1
    21   22    5 1
    22   23    2 1
    23   24   11 ar
    24   25    8 ar
    25   26   25 1
    26   27   24 1
    27   28    7 1
    28   29   23 1
    29   30   29 1
    30   31   29 1
    31   32   29 1
    32   33   23 1
    33   34   22 1
    34   35   34 1
    35   36   22 1
    36   22   23 1
    37   24   25 ar
@<TRIPOS>SUBSTRUCTURE
     1 RES1 1

@<TRIPOS>CRYSIN
   9.8900   11.2450   11.3770  90.0000  90.0000  90.0000  62 1

