# MOL2 file generated by ConQuest
# Please check atom types

@<TRIPOS>MOLECULE
QESVIW
    51    53     1
SMALL
NO_CHARGES
****
Generated from CSD

@<TRIPOS>ATOM
      1 O1         3.2604    2.8656   -1.8994 O.3       1 RES1    0.0000
      2 O2         2.7153    0.6933   -1.9679 O.2       1 RES1    0.0000
      3 O3         2.9203    1.3160    1.3880 O.2       1 RES1    0.0000
      4 O4         3.8074    5.1897    2.1556 O.2       1 RES1    0.0000
      5 O5         5.6216    6.1655    2.7991 O.2       1 RES1    0.0000
      6 N1         4.9714    5.1569    2.5385 N.pl3     1 RES1    0.0000
      7 C1         2.3812    1.8454   -1.8870 C.2       1 RES1    0.0000
      8 C2         0.9604    2.3538   -1.6805 C.3       1 RES1    0.0000
      9 C3         0.7620    2.5039   -0.1270 C.3       1 RES1    0.0000
     10 H1         0.8028    1.5752    0.2412 H         1 RES1    0.0000
     11 C4         1.8850    3.2869    0.5914 C.3       1 RES1    0.0000
     12 H2         2.1756    4.0380    0.0167 H         1 RES1    0.0000
     13 H3         1.5287    3.6663    1.4326 H         1 RES1    0.0000
     14 C5         3.0813    2.4105    0.9074 C.2       1 RES1    0.0000
     15 C6         4.5124    2.8949    0.6268 C.3       1 RES1    0.0000
     16 H4         4.4815    3.8521    0.3428 H         1 RES1    0.0000
     17 C7         5.1161    2.0492   -0.5212 C.3       1 RES1    0.0000
     18 H5         6.1035    2.0887   -0.4691 H         1 RES1    0.0000
     19 H6         4.8439    1.1036   -0.4069 H         1 RES1    0.0000
     20 C8         4.6722    2.5306   -1.8817 C.3       1 RES1    0.0000
     21 H7         5.2005    3.3294   -2.1343 H         1 RES1    0.0000
     22 H8         4.8491    1.8238   -2.5519 H         1 RES1    0.0000
     23 C9        -0.0105    1.3074   -2.2191 C.3       1 RES1    0.0000
     24 H9         0.1636    1.1594   -3.1726 H         1 RES1    0.0000
     25 H10       -0.9300    1.6240   -2.1008 H         1 RES1    0.0000
     26 H11        0.1124    0.4670   -1.7313 H         1 RES1    0.0000
     27 C10        0.7509    3.6707   -2.4403 C.3       1 RES1    0.0000
     28 H12        1.3150    4.3679   -2.0467 H         1 RES1    0.0000
     29 H13       -0.1904    3.9381   -2.3775 H         1 RES1    0.0000
     30 H14        0.9932    3.5478   -3.3818 H         1 RES1    0.0000
     31 C11       -0.6195    3.0290    0.2379 C.ar      1 RES1    0.0000
     32 C12       -0.9515    4.3807    0.1944 C.ar      1 RES1    0.0000
     33 H15       -0.3009    5.0161   -0.0829 H         1 RES1    0.0000
     34 C13       -2.2192    4.8105    0.5499 C.ar      1 RES1    0.0000
     35 H16       -2.4343    5.7341    0.4992 H         1 RES1    0.0000
     36 C14       -3.1722    3.9095    0.9776 C.ar      1 RES1    0.0000
     37 H17       -4.0383    4.2099    1.2275 H         1 RES1    0.0000
     38 C15       -2.8559    2.5701    1.0397 C.ar      1 RES1    0.0000
     39 H18       -3.5022    1.9423    1.3411 H         1 RES1    0.0000
     40 C16       -1.5942    2.1361    0.6615 C.ar      1 RES1    0.0000
     41 H19       -1.3931    1.2081    0.6929 H         1 RES1    0.0000
     42 C17        5.3400    2.7820    1.9010 C.ar      1 RES1    0.0000
     43 C18        5.9292    1.5673    2.2632 C.ar      1 RES1    0.0000
     44 H20        5.7914    0.8062    1.7126 H         1 RES1    0.0000
     45 C19        6.7053    1.4440    3.3998 C.ar      1 RES1    0.0000
     46 H21        7.0731    0.5994    3.6284 H         1 RES1    0.0000
     47 C20        6.9508    2.5373    4.2057 C.ar      1 RES1    0.0000
     48 H22        7.4924    2.4488    4.9808 H         1 RES1    0.0000
     49 C21        6.4063    3.7543    3.8796 C.ar      1 RES1    0.0000
     50 H23        6.5812    4.5189    4.4162 H         1 RES1    0.0000
     51 C22        5.5985    3.8547    2.7590 C.ar      1 RES1    0.0000
@<TRIPOS>BOND
     1    1    7 1
     2    2    7 2
     3    3   14 2
     4    4    6 2
     5    5    6 2
     6    6   51 1
     7    7    8 1
     8    8    9 1
     9    9   10 1
    10   11    9 1
    11   12   11 1
    12   13   11 1
    13   14   11 1
    14   15   14 1
    15   16   15 1
    16   17   15 1
    17   18   17 1
    18   19   17 1
    19   20    1 1
    20   21   20 1
    21   22   20 1
    22   23    8 1
    23   24   23 1
    24   25   23 1
    25   26   23 1
    26   27    8 1
    27   28   27 1
    28   29   27 1
    29   30   27 1
    30   31    9 1
    31   32   31 ar
    32   33   32 1
    33   34   32 ar
    34   35   34 1
    35   36   34 ar
    36   37   36 1
    37   38   36 ar
    38   39   38 1
    39   40   31 ar
    40   41   40 1
    41   42   15 1
    42   43   42 ar
    43   44   43 1
    44   45   43 ar
    45   46   45 1
    46   47   45 ar
    47   48   47 1
    48   49   47 ar
    49   50   49 1
    50   51   42 ar
    51   17   20 1
    52   38   40 ar
    53   49   51 ar
@<TRIPOS>SUBSTRUCTURE
     1 RES1 1

@<TRIPOS>CRYSIN
  12.2593   23.2336    6.8793  90.0000 103.7530  90.0000  14 1

