# MOL2 file generated by ConQuest
# Please check atom types

@<TRIPOS>MOLECULE
QETRUD
    48    50     1
SMALL
NO_CHARGES
****
Generated from CSD

@<TRIPOS>ATOM
      1 N1         5.1189    6.4482    1.1200 N.am      1 RES1    0.0000
      2 H1         5.5932    7.0952    0.8120 H         1 RES1    0.0000
      3 C1         4.3094    6.6974    2.2154 C.2       1 RES1    0.0000
      4 C2         3.4937    5.7372    2.6822 C.2       1 RES1    0.0000
      5 C3         3.4644    4.3437    2.0801 C.3       1 RES1    0.0000
      6 H2         3.7331    3.6995    2.7685 H         1 RES1    0.0000
      7 N2         4.4146    4.2552    0.9580 N.am      1 RES1    0.0000
      8 H3         4.4636    3.4965    0.5563 H         1 RES1    0.0000
      9 C4         5.2109    5.2359    0.4966 C.2       1 RES1    0.0000
     10 O1         5.9850    5.0684   -0.4486 O.2       1 RES1    0.0000
     11 C5         4.5399    8.0664    2.7802 C.3       1 RES1    0.0000
     12 H4         4.2129    8.7256    2.1643 H         1 RES1    0.0000
     13 H5         5.4797    8.1985    2.9219 H         1 RES1    0.0000
     14 H6         4.0756    8.1494    3.6156 H         1 RES1    0.0000
     15 C6         2.0463    4.0100    1.6293 C.ar      1 RES1    0.0000
     16 C7         1.2865    3.0566    2.2975 C.ar      1 RES1    0.0000
     17 H7         1.6637    2.5825    3.0040 H         1 RES1    0.0000
     18 C8        -0.0267    2.8005    1.9256 C.ar      1 RES1    0.0000
     19 H8        -0.5194    2.1589    2.3859 H         1 RES1    0.0000
     20 C9        -0.6085    3.4883    0.8802 C.ar      1 RES1    0.0000
     21 H9        -1.4861    3.3208    0.6234 H         1 RES1    0.0000
     22 C10        0.1562    4.4295    0.2312 C.ar      1 RES1    0.0000
     23 C11        1.4635    4.7074    0.5808 C.ar      1 RES1    0.0000
     24 H10        1.9451    5.3544    0.1193 H         1 RES1    0.0000
     25 N3        -0.4300    5.1746   -0.8983 N.pl3     1 RES1    0.0000
     26 O2         0.2689    5.9823   -1.4940 O.2       1 RES1    0.0000
     27 O3        -1.5975    4.9717   -1.1796 O.2       1 RES1    0.0000
     28 C12        2.6233    5.8965    3.8767 C.2       1 RES1    0.0000
     29 O4         2.5601    5.0180    4.7388 O.2       1 RES1    0.0000
     30 N4         1.8814    7.0203    3.9385 N.am      1 RES1    0.0000
     31 H11        1.8998    7.5515    3.2619 H         1 RES1    0.0000
     32 C13        1.0682    7.3867    5.0574 C.ar      1 RES1    0.0000
     33 C14        1.4928    8.4164    5.8897 C.ar      1 RES1    0.0000
     34 H12        2.2835    8.8686    5.7032 H         1 RES1    0.0000
     35 C15        0.7444    8.7651    6.9894 C.ar      1 RES1    0.0000
     36 H13        1.0378    9.4543    7.5414 H         1 RES1    0.0000
     37 C16       -0.4434    8.1086    7.2899 C.ar      1 RES1    0.0000
     38 C17       -0.8602    7.1088    6.4363 C.ar      1 RES1    0.0000
     39 H14       -1.6617    6.6770    6.6185 H         1 RES1    0.0000
     40 C18       -0.1311    6.7124    5.3046 C.ar      1 RES1    0.0000
     41 C19       -0.6155    5.6268    4.4042 C.3       1 RES1    0.0000
     42 H15       -0.5910    5.9319    3.4942 H         1 RES1    0.0000
     43 H16       -1.5156    5.3939    4.6408 H         1 RES1    0.0000
     44 H17       -0.0501    4.8572    4.4990 H         1 RES1    0.0000
     45 C20       -1.2517    8.4695    8.5185 C.3       1 RES1    0.0000
     46 H18       -1.7007    9.3045    8.3726 H         1 RES1    0.0000
     47 H19       -0.6654    8.5499    9.2751 H         1 RES1    0.0000
     48 H20       -1.9000    7.7817    8.6880 H         1 RES1    0.0000
@<TRIPOS>BOND
     1    1    2 1
     2    3    1 1
     3    4    3 2
     4    5    4 1
     5    6    5 1
     6    7    5 1
     7    8    7 1
     8    9    1 1
     9   10    9 2
    10   11    3 1
    11   12   11 1
    12   13   11 1
    13   14   11 1
    14   15    5 1
    15   16   15 ar
    16   17   16 1
    17   18   16 ar
    18   19   18 1
    19   20   18 ar
    20   21   20 1
    21   22   20 ar
    22   23   15 ar
    23   24   23 1
    24   25   22 1
    25   26   25 2
    26   27   25 2
    27   28    4 1
    28   29   28 2
    29   30   28 1
    30   31   30 1
    31   32   30 1
    32   33   32 ar
    33   34   33 1
    34   35   33 ar
    35   36   35 1
    36   37   35 ar
    37   38   37 ar
    38   39   38 1
    39   40   32 ar
    40   41   40 1
    41   42   41 1
    42   43   41 1
    43   44   41 1
    44   45   37 1
    45   46   45 1
    46   47   45 1
    47   48   45 1
    48    7    9 1
    49   22   23 ar
    50   38   40 ar
@<TRIPOS>SUBSTRUCTURE
     1 RES1 1

@<TRIPOS>CRYSIN
  12.8970   13.6210   11.8420  90.0000 115.8600  90.0000  14 1

