# MOL2 file generated by ConQuest
# Please check atom types

@<TRIPOS>MOLECULE
QETROW
    31    32     1
SMALL
NO_CHARGES
****
Generated from CSD

@<TRIPOS>ATOM
      1 O1       -10.5106    2.8146   -3.5688 O.3       1 RES1    0.0000
      2 O2        -9.3941   -3.2903   -2.6739 O.2       1 RES1    0.0000
      3 N1        -9.5608    2.2670   -2.6450 N.2       1 RES1    0.0000
      4 N2        -7.8980    0.6206   -1.1504 N.2       1 RES1    0.0000
      5 N3        -7.2708   -0.4707   -0.6050 N.3       1 RES1    0.0000
      6 N4        -9.5405   -2.1035   -2.8100 N.2       1 RES1    0.0000
      7 C1       -11.0798    1.8012   -4.2151 C.2       1 RES1    0.0000
      8 C2       -10.5822    0.6615   -3.7962 C.2       1 RES1    0.0000
      9 H1       -10.6707   -0.3345   -3.9780 H         1 RES1    0.0000
     10 C3        -9.6301    1.0109   -2.8092 C.2       1 RES1    0.0000
     11 C4        -8.7713    0.1152   -2.0224 C.2       1 RES1    0.0000
     12 C5        -8.6977   -1.2896   -2.0276 C.2       1 RES1    0.0000
     13 C6        -7.7050   -1.6340   -1.0810 C.2       1 RES1    0.0000
     14 C7       -12.0825    2.2075   -5.2372 C.3       1 RES1    0.0000
     15 H2       -12.3800    1.4321   -5.7193 H         1 RES1    0.0000
     16 H3       -11.6821    2.8294   -5.8484 H         1 RES1    0.0000
     17 H4       -12.8317    2.6213   -4.8034 H         1 RES1    0.0000
     18 C8        -7.1746   -2.9508   -0.6367 C.3       1 RES1    0.0000
     19 H5        -6.2155   -2.9347   -0.6612 H         1 RES1    0.0000
     20 H6        -7.4981   -3.6408   -1.2215 H         1 RES1    0.0000
     21 H7        -7.4684   -3.1292    0.2599 H         1 RES1    0.0000
     22 C9        -6.2042   -0.2106    0.3873 C.3       1 RES1    0.0000
     23 H8        -6.4376    0.5327    0.8694 H         1 RES1    0.0000
     24 H9        -6.0808   -1.0901    0.9484 H         1 RES1    0.0000
     25 C10       -4.8789   -0.0074   -0.3030 C.3       1 RES1    0.0000
     26 H10       -4.6949   -0.9415   -0.6937 H         1 RES1    0.0000
     27 H11       -4.9240    0.6070   -1.0450 H         1 RES1    0.0000
     28 C11       -3.7803    0.3072    0.7104 C.3       1 RES1    0.0000
     29 H12       -3.9951    1.1199    1.1741 H         1 RES1    0.0000
     30 H13       -2.9423    0.4125    0.2520 H         1 RES1    0.0000
     31 H14       -3.7104   -0.4125    1.3409 H         1 RES1    0.0000
@<TRIPOS>BOND
     1    1    3 1
     2    2    6 2
     3    3   10 2
     4    4    5 1
     5    5   13 1
     6    6   12 1
     7    7    1 1
     8    8    7 2
     9    9    8 1
    10   10    8 1
    11   11    4 2
    12   12   11 1
    13   13   12 2
    14   14    7 1
    15   15   14 1
    16   16   14 1
    17   17   14 1
    18   18   13 1
    19   19   18 1
    20   20   18 1
    21   21   18 1
    22   22    5 1
    23   23   22 1
    24   24   22 1
    25   25   22 1
    26   26   25 1
    27   27   25 1
    28   28   25 1
    29   29   28 1
    30   30   28 1
    31   31   28 1
    32   10   11 1
@<TRIPOS>SUBSTRUCTURE
     1 RES1 1

@<TRIPOS>CRYSIN
  11.0590   12.3880    8.8280  90.0000  95.8900  90.0000   9 1

