# MOL2 file generated by ConQuest
# Please check atom types

@<TRIPOS>MOLECULE
QETRIQ
    31    32     1
SMALL
NO_CHARGES
****
Generated from CSD

@<TRIPOS>ATOM
      1 O1         0.9916    8.0473    2.0455 O.3       1 RES1    0.0000
      2 O2         3.0279   11.9802   -2.3729 O.2       1 RES1    0.0000
      3 N1         0.7658    9.4358    2.0383 N.2       1 RES1    0.0000
      4 N2         0.3711   12.1756    1.1235 N.3       1 RES1    0.0000
      5 N3         0.4374   13.4060    0.4965 N.2       1 RES1    0.0000
      6 N4         2.5438   11.2550   -1.4842 N.2       1 RES1    0.0000
      7 C1         1.5763    7.6779    0.8851 C.2       1 RES1    0.0000
      8 C2         1.7149    8.7661    0.1232 C.2       1 RES1    0.0000
      9 H1         2.0875    8.8077   -0.7277 H         1 RES1    0.0000
     10 C3         1.1865    9.8342    0.8617 C.2       1 RES1    0.0000
     11 C4         1.0962   11.2414    0.4659 C.2       1 RES1    0.0000
     12 C5         1.7057   11.9062   -0.6081 C.2       1 RES1    0.0000
     13 C6         1.2475   13.2489   -0.5451 C.2       1 RES1    0.0000
     14 C7         1.9155    6.2373    0.7412 C.3       1 RES1    0.0000
     15 H2         2.4980    6.1197   -0.0126 H         1 RES1    0.0000
     16 H3         1.1110    5.7309    0.6063 H         1 RES1    0.0000
     17 H4         2.3563    5.9315    1.5372 H         1 RES1    0.0000
     18 C8         1.5498   14.3973   -1.4482 C.3       1 RES1    0.0000
     19 H5         1.0200   15.1558   -1.1900 H         1 RES1    0.0000
     20 H6         1.3428   14.1559   -2.3540 H         1 RES1    0.0000
     21 H7         2.4815   14.6189   -1.3816 H         1 RES1    0.0000
     22 C9        -0.4798   12.0805    2.3162 C.3       1 RES1    0.0000
     23 H8        -0.8490   11.1840    2.3693 H         1 RES1    0.0000
     24 H9        -1.2201   12.7024    2.2254 H         1 RES1    0.0000
     25 C10        0.2618   12.3842    3.6043 C.3       1 RES1    0.0000
     26 H10        1.0409   11.8074    3.6574 H         1 RES1    0.0000
     27 H11       -0.3150   12.1654    4.3536 H         1 RES1    0.0000
     28 C11        0.7114   13.8217    3.7428 C.3       1 RES1    0.0000
     29 H12        1.4411   13.9893    3.1420 H         1 RES1    0.0000
     30 H13        0.9972   13.9831    4.6450 H         1 RES1    0.0000
     31 H14       -0.0187   14.4090    3.5296 H         1 RES1    0.0000
@<TRIPOS>BOND
     1    1    3 1
     2    2    6 2
     3    3   10 2
     4    4    5 1
     5    5   13 2
     6    6   12 1
     7    7    1 1
     8    8    7 2
     9    9    8 1
    10   10    8 1
    11   11    4 1
    12   12   11 2
    13   13   12 1
    14   14    7 1
    15   15   14 1
    16   16   14 1
    17   17   14 1
    18   18   13 1
    19   19   18 1
    20   20   18 1
    21   21   18 1
    22   22    4 1
    23   23   22 1
    24   24   22 1
    25   25   22 1
    26   26   25 1
    27   27   25 1
    28   28   25 1
    29   29   28 1
    30   30   28 1
    31   31   28 1
    32   10   11 1
@<TRIPOS>SUBSTRUCTURE
     1 RES1 1

@<TRIPOS>CRYSIN
   4.2480   30.8610    9.0980  90.0000  98.6300  90.0000 231 1

