# MOL2 file generated by ConQuest
# Please check atom types

@<TRIPOS>MOLECULE
QETTEO
    72    74     2
SMALL
NO_CHARGES
****
Generated from CSD

@<TRIPOS>ATOM
      1 O1         2.0114    6.9753    6.4694 O.2       1 RES1    0.0000
      2 O2         0.5807    7.1577    4.8920 O.2       1 RES1    0.0000
      3 N1         1.6854    6.9907    5.2970 N.pl3     1 RES1    0.0000
      4 C1         2.7965    7.1369    4.3082 C.ar      1 RES1    0.0000
      5 C2         4.0823    6.9894    4.7191 C.ar      1 RES1    0.0000
      6 H1         4.2753    6.8164    5.6329 H         1 RES1    0.0000
      7 C3         5.1083    7.0940    3.7970 C.ar      1 RES1    0.0000
      8 H2         6.0136    7.0287    4.0777 H         1 RES1    0.0000
      9 C4         4.8018    7.2955    2.4583 C.ar      1 RES1    0.0000
     10 C5         3.4882    7.4235    2.0352 C.ar      1 RES1    0.0000
     11 H3         3.2733    7.5750    1.1221 H         1 RES1    0.0000
     12 C6         2.4868    7.3188    3.0140 C.ar      1 RES1    0.0000
     13 H4         1.5751    7.3774    2.7564 H         1 RES1    0.0000
     14 C7         5.8959    7.3805    1.4498 C.2       1 RES1    0.0000
     15 C8         5.6182    7.8190    0.0823 C.3       1 RES1    0.0000
     16 H5         5.0535    7.1558   -0.3655 H         1 RES1    0.0000
     17 H6         6.4622    7.9151   -0.4075 H         1 RES1    0.0000
     18 H7         5.1536    8.6821    0.1046 H         1 RES1    0.0000
     19 N2         7.0384    7.0085    1.8870 N.2       1 RES1    0.0000
     20 N3         8.1127    7.0951    0.9476 N.2       1 RES1    0.0000
     21 C9         8.8947    6.0274    0.9254 C.2       1 RES1    0.0000
     22 C10        8.7014    4.8462    1.7198 C.3       1 RES1    0.0000
     23 H8         8.4731    4.0939    1.1361 H         1 RES1    0.0000
     24 H9         7.9742    4.9985    2.3587 H         1 RES1    0.0000
     25 H10        9.5271    4.6429    2.2072 H         1 RES1    0.0000
     26 C11        9.9989    6.1372   -0.0922 C.ar      1 RES1    0.0000
     27 C12       10.9263    5.0978   -0.2388 C.ar      1 RES1    0.0000
     28 H11       10.8627    4.3229    0.3079 H         1 RES1    0.0000
     29 C13       11.9037    5.1962   -1.1493 C.ar      1 RES1    0.0000
     30 H12       12.4926    4.4589   -1.2539 H         1 RES1    0.0000
     31 C14       12.1036    6.2928   -1.9364 C.ar      1 RES1    0.0000
     32 H13       12.8245    6.3437   -2.5530 H         1 RES1    0.0000
     33 C15       11.1732    7.3525   -1.7816 C.ar      1 RES1    0.0000
     34 H14       11.2467    8.1411   -2.3060 H         1 RES1    0.0000
     35 C16       10.1846    7.2201   -0.8743 C.ar      1 RES1    0.0000
     36 H15        9.5738    7.9424   -0.7797 H         1 RES1    0.0000
     37 O3        11.8408    1.7167   -3.3088 O.2       2 RES2    0.0000
     38 O4        13.2842    1.5434   -1.7495 O.2       2 RES2    0.0000
     39 N4        12.1114    1.4827   -2.1562 N.pl3     2 RES2    0.0000
     40 C17       11.0160    1.4572   -1.1608 C.ar      2 RES2    0.0000
     41 C18        9.7077    1.5529   -1.5914 C.ar      2 RES2    0.0000
     42 H16        9.5004    1.6578   -2.5127 H         2 RES2    0.0000
     43 C19        8.7167    1.4913   -0.6471 C.ar      2 RES2    0.0000
     44 H17        7.8145    1.6157   -0.9188 H         2 RES2    0.0000
     45 C20        8.9870    1.2549    0.6916 C.ar      2 RES2    0.0000
     46 C21       10.3101    1.1409    1.0505 C.ar      2 RES2    0.0000
     47 H18       10.5072    0.9993    1.9685 H         2 RES2    0.0000
     48 C22       11.3646    1.2158    0.1770 C.ar      2 RES2    0.0000
     49 H19       12.2662    1.1119    0.4577 H         2 RES2    0.0000
     50 C23        7.8565    1.2159    1.6523 C.2       2 RES2    0.0000
     51 C24        8.1182    0.7855    3.1293 C.3       2 RES2    0.0000
     52 H20        7.3945    0.1972    3.4306 H         2 RES2    0.0000
     53 H21        8.1528    1.5806    3.7007 H         2 RES2    0.0000
     54 H22        8.9728    0.3078    3.1836 H         2 RES2    0.0000
     55 N5         6.7060    1.5711    1.2596 N.2       2 RES2    0.0000
     56 N6         5.7086    1.4980    2.1899 N.2       2 RES2    0.0000
     57 C25        4.9281    2.4587    2.2574 C.2       2 RES2    0.0000
     58 C26        5.1290    3.7350    1.4053 C.3       2 RES2    0.0000
     59 H23        5.4630    3.4857    0.5187 H         2 RES2    0.0000
     60 H24        5.7777    4.3226    1.8458 H         2 RES2    0.0000
     61 H25        4.2738    4.2040    1.3131 H         2 RES2    0.0000
     62 C27        3.8097    2.4248    3.1762 C.ar      2 RES2    0.0000
     63 C28        2.9318    3.4759    3.3672 C.ar      2 RES2    0.0000
     64 H26        3.0623    4.2696    2.8609 H         2 RES2    0.0000
     65 C29        1.8471    3.4317    4.2761 C.ar      2 RES2    0.0000
     66 H27        1.2344    4.1538    4.3535 H         2 RES2    0.0000
     67 C30        1.7216    2.3020    5.0393 C.ar      2 RES2    0.0000
     68 H28        1.0154    2.2521    5.6733 H         2 RES2    0.0000
     69 C31        2.5535    1.2774    4.9224 C.ar      2 RES2    0.0000
     70 H29        2.4189    0.5165    5.4748 H         2 RES2    0.0000
     71 C32        3.6404    1.2684    4.0020 C.ar      2 RES2    0.0000
     72 H30        4.2293    0.5250    3.9394 H         2 RES2    0.0000
@<TRIPOS>BOND
     1    1    3 2
     2    2    3 2
     3    3    4 1
     4    4    5 ar
     5    5    6 1
     6    7    5 ar
     7    8    7 1
     8    9    7 ar
     9   10    9 ar
    10   11   10 1
    11   12    4 ar
    12   13   12 1
    13   14    9 1
    14   15   14 1
    15   16   15 1
    16   17   15 1
    17   18   15 1
    18   19   14 2
    19   20   19 1
    20   21   20 2
    21   22   21 1
    22   23   22 1
    23   24   22 1
    24   25   22 1
    25   26   21 1
    26   27   26 ar
    27   28   27 1
    28   29   27 ar
    29   30   29 1
    30   31   29 ar
    31   32   31 1
    32   33   31 ar
    33   34   33 1
    34   35   26 ar
    35   36   35 1
    36   37   39 2
    37   38   39 2
    38   39   40 1
    39   40   41 ar
    40   41   42 1
    41   43   41 ar
    42   44   43 1
    43   45   43 ar
    44   46   45 ar
    45   47   46 1
    46   48   40 ar
    47   49   48 1
    48   50   45 1
    49   51   50 1
    50   52   51 1
    51   53   51 1
    52   54   51 1
    53   55   50 2
    54   56   55 1
    55   57   56 2
    56   58   57 1
    57   59   58 1
    58   60   58 1
    59   61   58 1
    60   62   57 1
    61   63   62 ar
    62   64   63 1
    63   65   63 ar
    64   66   65 1
    65   67   65 ar
    66   68   67 1
    67   69   67 ar
    68   70   69 1
    69   71   62 ar
    70   72   71 1
    71   10   12 ar
    72   33   35 ar
    73   46   48 ar
    74   69   71 ar
@<TRIPOS>SUBSTRUCTURE
     1 RES1 1
     2 RES2 37

@<TRIPOS>CRYSIN
   9.2694    9.4267    9.6076  75.9990  62.8900  89.8720   1 1

