# MOL2 file generated by ConQuest
# Please check atom types

@<TRIPOS>MOLECULE
QETTUE
    89    82     3
SMALL
NO_CHARGES
****
Generated from CSD

@<TRIPOS>ATOM
      1 O1         5.6720    8.3925    7.9247 O.2       1 RES1    0.0000
      2 O2         4.3989    8.2386    9.5326 O.2       1 RES1    0.0000
      3 O3         5.1366    8.4049    7.5285 Du        3 SUP3    0.0000
      4 O4         4.9081    8.2705    9.8505 Du        3 SUP3    0.0000
      5 N1         4.9973    8.8685    8.7390 N.pl3     1 RES1    0.0000
      6 C1         4.8947   10.3480    8.8454 C.ar      1 RES1    0.0000
      7 C2         4.2561   10.8963    9.8994 C.ar      1 RES1    0.0000
      8 H1         3.9063   10.3637   10.5780 H         1 RES1    0.0000
      9 C3         4.1360   12.2942    9.9398 C.ar      1 RES1    0.0000
     10 H2         3.6883   12.6923   10.6514 H         1 RES1    0.0000
     11 C4         4.6663   13.0912    8.9469 C.ar      1 RES1    0.0000
     12 C5         5.3317   12.4754    7.9063 C.ar      1 RES1    0.0000
     13 H3         5.7024   12.9931    7.2277 H         1 RES1    0.0000
     14 C6         5.4560   11.0963    7.8574 C.ar      1 RES1    0.0000
     15 H4         5.9157   10.6893    7.1604 H         1 RES1    0.0000
     16 C7         4.5064   14.5625    8.9616 C.2       1 RES1    0.0000
     17 C8         4.0169   15.2634   10.1562 C.3       1 RES1    0.0000
     18 H5         3.9681   16.2065    9.9764 H         1 RES1    0.0000
     19 H6         4.6185   15.1076   10.8874 H         1 RES1    0.0000
     20 H7         3.1433   14.9360   10.3848 H         1 RES1    0.0000
     21 N2         4.8064   15.1478    7.8513 N.2       1 RES1    0.0000
     22 N3         4.6904   16.5459    7.8268 N.2       1 RES1    0.0000
     23 C9         4.2716   17.0240    6.7190 C.2       1 RES1    0.0000
     24 C10        3.8218   16.1622    5.5880 C.3       1 RES1    0.0000
     25 H8         3.9243   15.2386    5.8289 H         1 RES1    0.0000
     26 H9         4.3523   16.3516    4.8115 H         1 RES1    0.0000
     27 H10        2.8980   16.3427    5.3972 H         1 RES1    0.0000
     28 C11        4.1979   18.4875    6.5809 C.ar      1 RES1    0.0000
     29 C12        3.5218   19.0659    5.5036 C.ar      1 RES1    0.0000
     30 H11        3.1317   18.5156    4.8629 H         1 RES1    0.0000
     31 C13        3.4222   20.4160    5.3740 C.ar      1 RES1    0.0000
     32 H12        2.9569   20.7752    4.6538 H         1 RES1    0.0000
     33 C14        3.9977   21.2583    6.2923 C.ar      1 RES1    0.0000
     34 H13        3.9181   22.1802    6.1994 H         1 RES1    0.0000
     35 C15        4.6987   20.7202    7.3585 C.ar      1 RES1    0.0000
     36 C16        4.7923   19.3434    7.4943 C.ar      1 RES1    0.0000
     37 H14        5.2629   18.9863    8.2132 H         1 RES1    0.0000
     38 O5         5.3324   21.4678    8.3013 O.3       1 RES1    0.0000
     39 C17        5.3075   22.8809    8.1570 C.3       1 RES1    0.0000
     40 H15        5.7934   23.2843    8.8796 H         1 RES1    0.0000
     41 H16        4.3977   23.1870    8.1729 H         1 RES1    0.0000
     42 H17        5.7129   23.1251    7.3231 H         1 RES1    0.0000
     43 O6         1.3029    4.5440    8.5605 O.2       2 RES2    0.0000
     44 O7         0.6675    4.5758   10.6025 O.2       2 RES2    0.0000
     45 O8         1.6253    4.5935    8.9958 Du        3 SUP3    0.0000
     46 O9         0.2601    4.5511   10.7566 Du        3 SUP3    0.0000
     47 N4         0.9127    4.0061    9.7050 N.pl3     2 RES2    0.0000
     48 C18        0.7867    2.5250    9.6267 C.ar      2 RES2    0.0000
     49 C19        0.2278    1.8772   10.6881 C.ar      2 RES2    0.0000
     50 H18       -0.0850    2.3516   11.4242 H         2 RES2    0.0000
     51 C20        0.1376    0.5008   10.6428 C.ar      2 RES2    0.0000
     52 H19       -0.2449    0.0460   11.3582 H         2 RES2    0.0000
     53 C21        0.6077   -0.2221    9.5497 C.ar      2 RES2    0.0000
     54 C22        1.1385    0.4919    8.4786 C.ar      2 RES2    0.0000
     55 H20        1.4326    0.0354    7.7241 H         2 RES2    0.0000
     56 C23        1.2336    1.8756    8.5201 C.ar      2 RES2    0.0000
     57 H21        1.5964    2.3498    7.8061 H         2 RES2    0.0000
     58 C24        0.5826   -1.6982    9.5705 C.2       2 RES2    0.0000
     59 C25        0.8637   -2.4560    8.3013 C.3       2 RES2    0.0000
     60 H22        0.8286   -3.3991    8.4774 H         2 RES2    0.0000
     61 H23        1.7371   -2.2242    7.9760 H         2 RES2    0.0000
     62 H24        0.2060   -2.2295    7.6398 H         2 RES2    0.0000
     63 N5         0.3378   -2.2224   10.6918 N.2       2 RES2    0.0000
     64 N6         0.3820   -3.6292   10.7358 N.2       2 RES2    0.0000
     65 C26       -0.1402   -4.1292   11.8118 C.2       2 RES2    0.0000
     66 C27       -0.7813   -3.3248   12.8988 C.3       2 RES2    0.0000
     67 H25       -0.7276   -2.3923   12.6800 H         2 RES2    0.0000
     68 H26       -0.3257   -3.4876   13.7279 H         2 RES2    0.0000
     69 H27       -1.7024   -3.5814   12.9844 H         2 RES2    0.0000
     70 C28       -0.1001   -5.6002   11.9475 C.ar      2 RES2    0.0000
     71 C29       -0.6510   -6.2179   13.0663 C.ar      2 RES2    0.0000
     72 H28       -1.0371   -5.7047   13.7376 H         2 RES2    0.0000
     73 C30       -0.6250   -7.5928   13.1776 C.ar      2 RES2    0.0000
     74 H29       -1.0165   -7.9980   13.9174 H         2 RES2    0.0000
     75 C31       -0.0384   -8.3642   12.2300 C.ar      2 RES2    0.0000
     76 H30       -0.0268   -9.2897   12.3229 H         2 RES2    0.0000
     77 C32        0.5380   -7.7768   11.1320 C.ar      2 RES2    0.0000
     78 C33        0.5068   -6.3941   10.9950 C.ar      2 RES2    0.0000
     79 H31        0.9003   -5.9985   10.2516 H         2 RES2    0.0000
     80 O10        0.9178   -8.5005   10.0730 O.3       2 RES2    0.0000
     81 C34        1.0426   -9.9284   10.3103 C.3       2 RES2    0.0000
     82 H32        1.3278  -10.3620    9.5045 H         2 RES2    0.0000
     83 H33        0.1924  -10.2823   10.5817 H         2 RES2    0.0000
     84 H34        1.6887  -10.0824   11.0036 H         2 RES2    0.0000
     85 O11        1.4136   -8.4456   10.2112 Du        3 SUP3    0.0000
     86 C35        1.5456   -9.8276   10.3152 Du        3 SUP3    0.0000
     87 H35        2.1598  -10.1408    9.6463 Du        3 SUP3    0.0000
     88 H36        0.6898  -10.2416   10.1819 Du        3 SUP3    0.0000
     89 H37        1.8786  -10.0523   11.1870 Du        3 SUP3    0.0000
@<TRIPOS>BOND
     1    1    5 2
     2    2    5 2
     3    5    6 1
     4    6    7 ar
     5    7    8 1
     6    9    7 ar
     7   10    9 1
     8   11    9 ar
     9   12   11 ar
    10   13   12 1
    11   14    6 ar
    12   15   14 1
    13   16   11 1
    14   17   16 1
    15   18   17 1
    16   19   17 1
    17   20   17 1
    18   21   16 2
    19   22   21 1
    20   23   22 2
    21   24   23 1
    22   25   24 1
    23   26   24 1
    24   27   24 1
    25   28   23 1
    26   29   28 ar
    27   30   29 1
    28   31   29 ar
    29   32   31 1
    30   33   31 ar
    31   34   33 1
    32   35   33 ar
    33   36   28 ar
    34   37   36 1
    35   38   35 1
    36   39   38 1
    37   40   39 1
    38   41   39 1
    39   42   39 1
    40   43   47 2
    41   44   47 2
    42   47   48 1
    43   48   49 ar
    44   49   50 1
    45   51   49 ar
    46   52   51 1
    47   53   51 ar
    48   54   53 ar
    49   55   54 1
    50   56   48 ar
    51   57   56 1
    52   58   53 1
    53   59   58 1
    54   60   59 1
    55   61   59 1
    56   62   59 1
    57   63   58 2
    58   64   63 1
    59   65   64 2
    60   66   65 1
    61   67   66 1
    62   68   66 1
    63   69   66 1
    64   70   65 1
    65   71   70 ar
    66   72   71 1
    67   73   71 ar
    68   74   73 1
    69   75   73 ar
    70   76   75 1
    71   77   75 ar
    72   78   70 ar
    73   79   78 1
    74   80   77 1
    75   81   80 1
    76   82   81 1
    77   83   81 1
    78   84   81 1
    79   12   14 ar
    80   35   36 ar
    81   54   56 ar
    82   77   78 ar
@<TRIPOS>SUBSTRUCTURE
     1 RES1 1
     2 RES2 43
     3 SUP3 3

@<TRIPOS>CRYSIN
   7.2285   17.6946   12.3886  90.0000  99.2490  90.0000   4 1

