# MOL2 file generated by ConQuest
# Please check atom types

@<TRIPOS>MOLECULE
QEVBUP
   156   126     2
SMALL
NO_CHARGES
****
Generated from CSD

@<TRIPOS>ATOM
      1 O1        11.6637    7.8884    2.7094 O.3       1 RES1    0.0000
      2 O2        11.1838    4.9808    4.4741 O.3       1 RES1    0.0000
      3 O3        11.1129    5.0530    7.8293 O.3       1 RES1    0.0000
      4 O4        11.0579    8.0500    6.0044 O.3       1 RES1    0.0000
      5 O5         5.6325    7.9828    4.2838 O.3       1 RES1    0.0000
      6 H1         5.6181    7.5598    4.9868 H         1 RES1    0.0000
      7 O6         5.6376    4.9076    4.8363 O.3       1 RES1    0.0000
      8 H2         5.7925    5.3261    4.1479 H         1 RES1    0.0000
      9 N1         6.1187    7.1008    3.1816 N.3       1 RES1    0.0000
     10 N2         5.8450    5.7877    6.0037 N.3       1 RES1    0.0000
     11 C1        10.1260    9.9013    4.1050 C.3       1 RES1    0.0000
     12 H3        11.0933    9.8489    4.0416 H         1 RES1    0.0000
     13 H4         9.8389   10.7077    3.6483 H         1 RES1    0.0000
     14 C2         9.5116    8.6936    3.4281 C.ar      1 RES1    0.0000
     15 C3        10.2735    7.7188    2.7930 C.ar      1 RES1    0.0000
     16 C4         9.7216    6.5406    2.3195 C.ar      1 RES1    0.0000
     17 C5         8.3407    6.3614    2.4522 C.ar      1 RES1    0.0000
     18 H5         7.9482    5.5715    2.1550 H         1 RES1    0.0000
     19 C6         7.5519    7.3452    3.0202 C.ar      1 RES1    0.0000
     20 C7         8.1372    8.4880    3.5235 C.ar      1 RES1    0.0000
     21 H6         7.6056    9.1312    3.9335 H         1 RES1    0.0000
     22 C8        10.5623    5.3994    1.7591 C.3       1 RES1    0.0000
     23 H7        10.3846    5.3009    0.8109 H         1 RES1    0.0000
     24 H8        11.5032    5.6051    1.8698 H         1 RES1    0.0000
     25 C9        10.2415    4.1160    2.4660 C.ar      1 RES1    0.0000
     26 C10       10.4843    3.9742    3.8276 C.ar      1 RES1    0.0000
     27 C11        9.9312    2.9503    4.5932 C.ar      1 RES1    0.0000
     28 C12        9.2221    1.9624    3.9147 C.ar      1 RES1    0.0000
     29 H9         8.8493    1.2572    4.3921 H         1 RES1    0.0000
     30 C13        9.0632    2.0155    2.5281 C.ar      1 RES1    0.0000
     31 H10        8.6255    1.3278    2.0805 H         1 RES1    0.0000
     32 C14        9.5595    3.0925    1.8252 C.ar      1 RES1    0.0000
     33 H11        9.4352    3.1328    0.9041 H         1 RES1    0.0000
     34 C15        9.9861    3.0221    6.0883 C.3       1 RES1    0.0000
     35 H12       10.9113    3.0891    6.3737 H         1 RES1    0.0000
     36 H13        9.6144    2.2084    6.4632 H         1 RES1    0.0000
     37 C16        9.2061    4.2246    6.6097 C.ar      1 RES1    0.0000
     38 C17        9.7816    5.2087    7.4046 C.ar      1 RES1    0.0000
     39 C18        9.1112    6.3858    7.7206 C.ar      1 RES1    0.0000
     40 C19        7.8122    6.5465    7.2439 C.ar      1 RES1    0.0000
     41 H14        7.3520    7.3346    7.4270 H         1 RES1    0.0000
     42 C20        7.1991    5.5584    6.5074 C.ar      1 RES1    0.0000
     43 C21        7.8952    4.4145    6.1709 C.ar      1 RES1    0.0000
     44 H15        7.4858    3.7648    5.6467 H         1 RES1    0.0000
     45 C22        9.7750    7.5354    8.4549 C.3       1 RES1    0.0000
     46 H16        9.3954    7.6169    9.3434 H         1 RES1    0.0000
     47 H17       10.7249    7.3581    8.5474 H         1 RES1    0.0000
     48 C23        9.5688    8.8245    7.6921 C.ar      1 RES1    0.0000
     49 C24       10.1417    8.9894    6.4382 C.ar      1 RES1    0.0000
     50 C25        9.7236    9.9736    5.5473 C.ar      1 RES1    0.0000
     51 C26        8.8061   10.9088    6.0180 C.ar      1 RES1    0.0000
     52 H18        8.5274   11.5968    5.4584 H         1 RES1    0.0000
     53 C27        8.3002   10.8324    7.3062 C.ar      1 RES1    0.0000
     54 H19        7.7186   11.4859    7.6209 H         1 RES1    0.0000
     55 C28        8.6687    9.7790    8.1158 C.ar      1 RES1    0.0000
     56 H20        8.3011    9.7111    8.9668 H         1 RES1    0.0000
     57 C29       12.0836    8.5803    1.5320 C.3       1 RES1    0.0000
     58 H21       11.5426    9.3766    1.4131 H         1 RES1    0.0000
     59 H22       11.9544    8.0102    0.7569 H         1 RES1    0.0000
     60 C30       13.5071    8.9600    1.6351 C.3       1 RES1    0.0000
     61 H23       13.7926    9.1413    0.7252 H         1 RES1    0.0000
     62 H24       13.5138    9.8136    2.0935 H         1 RES1    0.0000
     63 C31       14.4870    8.2606    2.1783 C.3       1 RES1    0.0000
     64 H25       15.3057    8.7598    2.1233 H         1 RES1    0.0000
     65 H26       14.5863    7.4304    1.7076 H         1 RES1    0.0000
     66 H27       14.2814    8.0825    3.1002 H         1 RES1    0.0000
     67 C32       12.5294    4.6354    4.8904 C.3       1 RES1    0.0000
     68 H28       12.5379    3.7110    5.1844 H         1 RES1    0.0000
     69 H29       12.7733    5.1883    5.6486 H         1 RES1    0.0000
     70 C33       13.5486    4.8051    3.8302 C.3       1 RES1    0.0000
     71 H30       13.4459    5.6858    3.4357 H         1 RES1    0.0000
     72 H31       13.3896    4.1496    3.1337 H         1 RES1    0.0000
     73 C34       14.9770    4.6555    4.3276 C.3       1 RES1    0.0000
     74 H32       15.5863    4.7917    3.5979 H         1 RES1    0.0000
     75 H33       15.0997    3.7749    4.6866 H         1 RES1    0.0000
     76 H34       15.1479    5.3077    5.0110 H         1 RES1    0.0000
     77 C35       11.3780    4.6270    9.1786 C.3       1 RES1    0.0000
     78 H35       11.3367    3.6589    9.2204 H         1 RES1    0.0000
     79 H36       10.6887    4.9782    9.7647 H         1 RES1    0.0000
     80 C36       12.7647    5.0976    9.6872 C.3       1 RES1    0.0000
     81 H37       12.9201    6.0287    9.4627 H         1 RES1    0.0000
     82 H38       12.8385    4.9883   10.6484 H         1 RES1    0.0000
     83 C37       13.6796    4.2471    9.0060 C.3       1 RES1    0.0000
     84 H39       14.5713    4.4236    9.3155 H         1 RES1    0.0000
     85 H40       13.6292    4.4152    8.0627 H         1 RES1    0.0000
     86 H41       13.4548    3.3311    9.1812 H         1 RES1    0.0000
     87 C38       12.4261    8.5430    5.8456 C.3       1 RES1    0.0000
     88 H42       12.4047    9.5128    5.8573 H         1 RES1    0.0000
     89 H43       12.7503    8.2707    4.9737 H         1 RES1    0.0000
     90 C39       13.3909    8.0858    6.8653 C.3       1 RES1    0.0000
     91 H44       13.4066    7.1161    6.9013 H         1 RES1    0.0000
     92 H45       13.1401    8.4220    7.7402 H         1 RES1    0.0000
     93 C40       14.7688    8.6220    6.4651 C.3       1 RES1    0.0000
     94 H46       15.4318    8.2909    7.0747 H         1 RES1    0.0000
     95 H47       14.7590    9.5817    6.4949 H         1 RES1    0.0000
     96 H48       14.9786    8.3329    5.5740 H         1 RES1    0.0000
     97 C41        5.2803    7.4978    1.9906 C.3       1 RES1    0.0000
     98 C42        3.8286    7.1658    2.3545 C.3       1 RES1    0.0000
     99 H49        3.7473    6.2236    2.5185 H         1 RES1    0.0000
    100 H50        3.2512    7.4152    1.6293 H         1 RES1    0.0000
    101 H51        3.5770    7.6505    3.1431 H         1 RES1    0.0000
    102 C43        5.6975    6.6914    0.7697 C.3       1 RES1    0.0000
    103 H52        6.6050    6.9043    0.5406 H         1 RES1    0.0000
    104 H53        5.1226    6.9077    0.0317 H         1 RES1    0.0000
    105 H54        5.6274    5.7547    0.9657 H         1 RES1    0.0000
    106 C44        5.4308    8.9968    1.7095 C.3       1 RES1    0.0000
    107 H55        6.3418    9.1884    1.4727 H         1 RES1    0.0000
    108 H56        5.1916    9.4960    2.4943 H         1 RES1    0.0000
    109 H57        4.8533    9.2455    0.9843 H         1 RES1    0.0000
    110 C45        4.7434    5.4176    6.9738 C.3       1 RES1    0.0000
    111 C46        3.4175    5.6991    6.2522 C.3       1 RES1    0.0000
    112 H58        2.6851    5.4841    6.8342 H         1 RES1    0.0000
    113 H59        3.3638    5.1614    5.4584 H         1 RES1    0.0000
    114 H60        3.3752    6.6270    6.0121 H         1 RES1    0.0000
    115 C47        4.8530    3.9461    7.3338 C.3       1 RES1    0.0000
    116 H61        5.6730    3.7933    7.8092 H         1 RES1    0.0000
    117 H62        4.8448    3.4185    6.5322 H         1 RES1    0.0000
    118 H63        4.1094    3.6959    7.8875 H         1 RES1    0.0000
    119 C48        4.8343    6.2804    8.2169 C.3       1 RES1    0.0000
    120 H64        5.6523    6.0892    8.6798 H         1 RES1    0.0000
    121 H65        4.0898    6.0925    8.7916 H         1 RES1    0.0000
    122 H66        4.8187    7.2068    7.9658 H         1 RES1    0.0000
    123 O7         5.8979    5.6108    3.2292 Du        2 SUP2    0.0000
    124 H67        5.7121    5.3866    3.9950 Du        2 SUP2    0.0000
    125 O8         5.5976    7.2436    5.9019 Du        2 SUP2    0.0000
    126 H68        5.7241    7.4892    5.1303 Du        2 SUP2    0.0000
    127 C49       12.5821    5.0841    4.1853 Du        2 SUP2    0.0000
    128 H69       12.8637    6.0085    4.2597 Du        2 SUP2    0.0000
    129 H70       12.7521    4.7866    3.2773 Du        2 SUP2    0.0000
    130 C50       13.3575    4.2454    5.1396 Du        2 SUP2    0.0000
    131 H71       13.1584    3.3093    4.9812 Du        2 SUP2    0.0000
    132 H72       13.0883    4.4589    6.0475 Du        2 SUP2    0.0000
    133 C51       14.8501    4.4757    4.9886 Du        2 SUP2    0.0000
    134 H73       15.3263    3.8925    5.5833 Du        2 SUP2    0.0000
    135 H74       15.0549    5.3883    5.2049 Du        2 SUP2    0.0000
    136 H75       15.1112    4.2942    4.0845 Du        2 SUP2    0.0000
    137 C52       11.0834    4.2370    9.0049 Du        2 SUP2    0.0000
    138 H76       10.6550    3.3866    8.8252 Du        2 SUP2    0.0000
    139 H77       10.6074    4.6824    9.7237 Du        2 SUP2    0.0000
    140 C53       12.5565    4.0421    9.3658 Du        2 SUP2    0.0000
    141 H78       12.6538    3.0774    9.4180 Du        2 SUP2    0.0000
    142 H79       13.0265    4.3026    8.5567 Du        2 SUP2    0.0000
    143 C54       13.4169    4.5345   10.4377 Du        2 SUP2    0.0000
    144 H80       14.3059    4.6673   10.0984 Du        2 SUP2    0.0000
    145 H81       13.4401    3.8908   11.1498 Du        2 SUP2    0.0000
    146 H82       13.0726    5.3665   10.7695 Du        2 SUP2    0.0000
    147 C55       12.3092    8.0573    6.7009 Du        2 SUP2    0.0000
    148 H83       12.6086    7.1480    6.8584 Du        2 SUP2    0.0000
    149 H84       12.2104    8.5010    7.5575 Du        2 SUP2    0.0000
    150 C56       13.2964    8.7800    5.8667 Du        2 SUP2    0.0000
    151 H85       13.1160    9.7329    5.8890 Du        2 SUP2    0.0000
    152 H86       13.2369    8.4775    4.9457 Du        2 SUP2    0.0000
    153 C57       14.7026    8.4976    6.4222 Du        2 SUP2    0.0000
    154 H87       15.3571    8.9262    5.8685 Du        2 SUP2    0.0000
    155 H88       14.8589    7.5497    6.4297 Du        2 SUP2    0.0000
    156 H89       14.7671    8.8388    7.3170 Du        2 SUP2    0.0000
@<TRIPOS>BOND
     1    1   15 1
     2    2   26 1
     3    3   38 1
     4    4   49 1
     5    5    6 1
     6    7    8 1
     7    9    5 1
     8   10    7 1
     9   11   12 1
    10   13   11 1
    11   14   11 1
    12   15   14 ar
    13   16   15 ar
    14   17   16 ar
    15   18   17 1
    16   19    9 1
    17   20   14 ar
    18   21   20 1
    19   22   16 1
    20   23   22 1
    21   24   22 1
    22   25   22 1
    23   26   25 ar
    24   27   26 ar
    25   28   27 ar
    26   29   28 1
    27   30   28 ar
    28   31   30 1
    29   32   25 ar
    30   33   32 1
    31   34   27 1
    32   35   34 1
    33   36   34 1
    34   37   34 1
    35   38   37 ar
    36   39   38 ar
    37   40   39 ar
    38   41   40 1
    39   42   10 1
    40   43   37 ar
    41   44   43 1
    42   45   39 1
    43   46   45 1
    44   47   45 1
    45   48   45 1
    46   49   48 ar
    47   50   11 1
    48   51   50 ar
    49   52   51 1
    50   53   51 ar
    51   54   53 1
    52   55   48 ar
    53   56   55 1
    54   57    1 1
    55   58   57 1
    56   59   57 1
    57   60   57 1
    58   61   60 1
    59   62   60 1
    60   63   60 1
    61   64   63 1
    62   65   63 1
    63   66   63 1
    64   67    2 1
    65   68   67 1
    66   69   67 1
    67   70   67 1
    68   71   70 1
    69   72   70 1
    70   73   70 1
    71   74   73 1
    72   75   73 1
    73   76   73 1
    74   77    3 1
    75   78   77 1
    76   79   77 1
    77   80   77 1
    78   81   80 1
    79   82   80 1
    80   83   80 1
    81   84   83 1
    82   85   83 1
    83   86   83 1
    84   87    4 1
    85   88   87 1
    86   89   87 1
    87   90   87 1
    88   91   90 1
    89   92   90 1
    90   93   90 1
    91   94   93 1
    92   95   93 1
    93   96   93 1
    94   97    9 1
    95   98   97 1
    96   99   98 1
    97  100   98 1
    98  101   98 1
    99  102   97 1
   100  103  102 1
   101  104  102 1
   102  105  102 1
   103  106   97 1
   104  107  106 1
   105  108  106 1
   106  109  106 1
   107  110   10 1
   108  111  110 1
   109  112  111 1
   110  113  111 1
   111  114  111 1
   112  115  110 1
   113  116  115 1
   114  117  115 1
   115  118  115 1
   116  119  110 1
   117  120  119 1
   118  121  119 1
   119  122  119 1
   120   17   19 ar
   121   19   20 ar
   122   30   32 ar
   123   40   42 ar
   124   42   43 ar
   125   49   50 ar
   126   53   55 ar
@<TRIPOS>SUBSTRUCTURE
     1 RES1 1
     2 SUP2 123

@<TRIPOS>CRYSIN
  14.6360   16.8070   19.1310  90.0000 102.9810  90.0000  14 1

