# MOL2 file generated by ConQuest
# Please check atom types

@<TRIPOS>MOLECULE
QEVJOQ
    23    24     1
SMALL
NO_CHARGES
****
Generated from CSD

@<TRIPOS>ATOM
      1 O1        -0.8481    2.3448    3.0589 O.2       1 RES1    0.0000
      2 N1         2.9328    2.8785    4.4994 N.3       1 RES1    0.0000
      3 O2        -0.6181    3.7517    1.4901 O.2       1 RES1    0.0000
      4 C1         3.7135    1.9690    3.6849 C.3       1 RES1    0.0000
      5 O3         4.8068    1.4996    0.3782 O.2       1 RES1    0.0000
      6 C2         2.0150    1.9931    1.7810 C.3       1 RES1    0.0000
      7 O4         4.6387    0.1648    1.9922 O.2       1 RES1    0.0000
      8 C3         1.5103    0.5965    2.1355 C.3       1 RES1    0.0000
      9 O5         4.9714    6.2333    3.9844 O.3       1 RES1    0.0000
     10 C4         1.7903    2.1649    0.2866 C.3       1 RES1    0.0000
     11 O6         4.6839    4.4052    6.1371 O.3       1 RES1    0.0000
     12 N2        -0.1746    3.0702    2.3962 N.pl3     1 RES1    0.0000
     13 C5         3.4965    2.2214    2.1980 C.3       1 RES1    0.0000
     14 N3         4.3929    1.2173    1.4599 N.pl3     1 RES1    0.0000
     15 C6         3.9875    3.6129    1.7562 C.3       1 RES1    0.0000
     16 C7         3.6802    5.9768    2.0159 C.3       1 RES1    0.0000
     17 N4         3.2176    4.6516    2.4102 N.3       1 RES1    0.0000
     18 C8         1.7967    4.4999    2.2045 C.3       1 RES1    0.0000
     19 C9         1.3418    3.1066    2.6473 C.3       1 RES1    0.0000
     20 C10        1.5179    2.8565    4.1288 C.3       1 RES1    0.0000
     21 C11        4.9966    6.2979    2.5945 C.3       1 RES1    0.0000
     22 C12        3.1052    2.6478    5.9259 C.3       1 RES1    0.0000
     23 C13        4.4272    3.0654    6.4043 C.3       1 RES1    0.0000
@<TRIPOS>BOND
     1    1   12 2
     2    2    4 1
     3    3   12 2
     4    4   13 1
     5    5   14 2
     6    6    8 1
     7    7   14 2
     8    9   21 1
     9   10    6 1
    10   11   23 1
    11   12   19 1
    12   13    6 1
    13   14   13 1
    14   15   13 1
    15   16   17 1
    16   17   15 1
    17   18   17 1
    18   19    6 1
    19   20    2 1
    20   21   16 1
    21   22    2 1
    22   23   22 1
    23   18   19 1
    24   19   20 1
@<TRIPOS>SUBSTRUCTURE
     1 RES1 1

@<TRIPOS>CRYSIN
   8.0540    9.5690   11.1240  80.7500  77.3800  78.2800   2 1

