# MOL2 file generated by ConQuest
# Please check atom types

@<TRIPOS>MOLECULE
QEVREP
    64    64     2
SMALL
NO_CHARGES
****
Generated from CSD

@<TRIPOS>ATOM
      1 C1         9.4355    5.6294   10.3557 C.ar      1 RES1    0.0000
      2 H1         9.3762    6.4542   10.8238 H         1 RES1    0.0000
      3 C2        10.1003    5.5868    9.1521 C.ar      1 RES1    0.0000
      4 H2        10.4859    6.3686    8.7741 H         1 RES1    0.0000
      5 C3        10.1878    4.3587    8.5096 C.ar      1 RES1    0.0000
      6 C4         9.6025    3.2056    9.0009 C.ar      1 RES1    0.0000
      7 H3         9.6702    2.3833    8.5314 H         1 RES1    0.0000
      8 C5         8.9153    3.2882   10.2016 C.ar      1 RES1    0.0000
      9 H4         8.4860    2.5153   10.5490 H         1 RES1    0.0000
     10 C6         8.8458    4.4903   10.9081 C.ar      1 RES1    0.0000
     11 C7         8.0242    4.4989   12.1684 C.2       1 RES1    0.0000
     12 C8         8.4300    5.3544   13.3211 C.2       1 RES1    0.0000
     13 C9         9.6938    5.7532   13.4447 C.2       1 RES1    0.0000
     14 H5        10.2824    5.5086   12.7411 H         1 RES1    0.0000
     15 C10       10.2977    6.5476   14.5698 C.3       1 RES1    0.0000
     16 H6        10.7582    7.3430   14.2020 H         1 RES1    0.0000
     17 H7         9.5803    6.8612   15.1760 H         1 RES1    0.0000
     18 C11       11.2798    5.7149   15.3446 C.3       1 RES1    0.0000
     19 H8        10.8113    4.9610   15.7603 H         1 RES1    0.0000
     20 H9        11.6964    6.2642   16.0409 H         1 RES1    0.0000
     21 H10       11.9708    5.3764   14.7384 H         1 RES1    0.0000
     22 C12        7.3425    5.6415   14.3343 C.3       1 RES1    0.0000
     23 H11        6.7018    4.8866   14.3445 H         1 RES1    0.0000
     24 H12        7.7479    5.7077   15.2341 H         1 RES1    0.0000
     25 C13        6.6034    6.9036   14.0378 C.3       1 RES1    0.0000
     26 H13        7.2297    7.6570   14.0407 H         1 RES1    0.0000
     27 H14        5.9155    7.0473   14.7210 H         1 RES1    0.0000
     28 H15        6.1793    6.8354   13.1569 H         1 RES1    0.0000
     29 C14        6.0018    3.4626    7.8118 C.ar      2 RES2    0.0000
     30 H16        6.0407    2.7023    7.2449 H         2 RES2    0.0000
     31 C15        5.3112    3.3858    9.0009 C.ar      2 RES2    0.0000
     32 H17        4.8855    2.5790    9.2684 H         2 RES2    0.0000
     33 C16        5.2556    4.5222    9.7946 C.ar      2 RES2    0.0000
     34 C17        5.8983    5.7027    9.4603 C.ar      2 RES2    0.0000
     35 H18        5.8561    6.4607   10.0301 H         2 RES2    0.0000
     36 C18        6.6014    5.7447    8.2755 C.ar      2 RES2    0.0000
     37 H19        7.0622    6.5391    8.0328 H         2 RES2    0.0000
     38 C19        6.6486    4.6436    7.4266 C.ar      2 RES2    0.0000
     39 C20        7.4323    4.7222    6.1460 C.2       2 RES2    0.0000
     40 C21        6.9074    4.1219    4.8958 C.2       2 RES2    0.0000
     41 C22        5.5881    3.9881    4.7200 C.2       2 RES2    0.0000
     42 H20        5.0419    4.1780    5.4729 H         2 RES2    0.0000
     43 C23        4.8768    3.5738    3.4771 C.3       2 RES2    0.0000
     44 H21        4.5799    2.6335    3.5658 H         2 RES2    0.0000
     45 H22        5.4997    3.6260    2.7096 H         2 RES2    0.0000
     46 C24        3.6688    4.4585    3.2067 C.3       2 RES2    0.0000
     47 H23        3.0646    4.4330    3.9771 H         2 RES2    0.0000
     48 H24        3.1966    4.1331    2.4116 H         2 RES2    0.0000
     49 H25        3.9657    5.3801    3.0541 H         2 RES2    0.0000
     50 C25        7.9440    3.8508    3.8187 C.3       2 RES2    0.0000
     51 H26        7.6463    3.0832    3.2692 H         2 RES2    0.0000
     52 H27        8.8004    3.6018    4.2504 H         2 RES2    0.0000
     53 C26        8.1739    5.0589    2.9116 C.3       2 RES2    0.0000
     54 H28        7.3447    5.2721    2.4348 H         2 RES2    0.0000
     55 H29        8.8788    4.8507    2.2633 H         2 RES2    0.0000
     56 H30        8.4468    5.8276    3.4538 H         2 RES2    0.0000
     57 N1        10.9075    4.2955    7.2385 N.pl3     1 RES1    0.0000
     58 N2         4.4870    4.4518   11.0534 N.pl3     2 RES2    0.0000
     59 O1        10.9113    3.2293    6.6175 O.2       1 RES1    0.0000
     60 O2        11.4889    5.2968    6.8363 O.2       1 RES1    0.0000
     61 O3         7.0415    3.7838   12.2318 O.2       1 RES1    0.0000
     62 O4         4.4440    5.4590   11.7532 O.2       2 RES2    0.0000
     63 O5         3.9291    3.4057   11.3385 O.2       2 RES2    0.0000
     64 O6         8.5137    5.3017    6.1540 O.2       2 RES2    0.0000
@<TRIPOS>BOND
     1    1    2 1
     2    3    1 ar
     3    4    3 1
     4    5    3 ar
     5    6    5 ar
     6    7    6 1
     7    8    6 ar
     8    9    8 1
     9   10    1 ar
    10   11   10 1
    11   12   11 1
    12   13   12 2
    13   14   13 1
    14   15   13 1
    15   16   15 1
    16   17   15 1
    17   18   15 1
    18   19   18 1
    19   20   18 1
    20   21   18 1
    21   22   12 1
    22   23   22 1
    23   24   22 1
    24   25   22 1
    25   26   25 1
    26   27   25 1
    27   28   25 1
    28   29   30 1
    29   31   29 ar
    30   32   31 1
    31   33   31 ar
    32   34   33 ar
    33   35   34 1
    34   36   34 ar
    35   37   36 1
    36   38   29 ar
    37   39   38 1
    38   40   39 1
    39   41   40 2
    40   42   41 1
    41   43   41 1
    42   44   43 1
    43   45   43 1
    44   46   43 1
    45   47   46 1
    46   48   46 1
    47   49   46 1
    48   50   40 1
    49   51   50 1
    50   52   50 1
    51   53   50 1
    52   54   53 1
    53   55   53 1
    54   56   53 1
    55   57    5 1
    56   58   33 1
    57   59   57 2
    58   60   57 2
    59   61   11 2
    60   62   58 2
    61   63   58 2
    62   64   39 2
    63    8   10 ar
    64   36   38 ar
@<TRIPOS>SUBSTRUCTURE
     1 RES1 1
     2 RES2 29

@<TRIPOS>CRYSIN
   8.2761   10.0420   15.1890  74.4400  81.7000  82.4700   2 1

