# MOL2 file generated by ConQuest
# Please check atom types

@<TRIPOS>MOLECULE
QEVREO
    35    37     1
SMALL
NO_CHARGES
****
Generated from CSD

@<TRIPOS>ATOM
      1 N1        14.6116   12.5204    0.7830 N.pl3     1 RES1    0.0000
      2 C1        15.9759   12.3735    0.2440 C.3       1 RES1    0.0000
      3 C2        16.9738   12.6302    1.3882 C.3       1 RES1    0.0000
      4 C3        16.6558   11.7778    2.5996 C.2       1 RES1    0.0000
      5 C4        15.3498   11.0077    2.6005 C.3       1 RES1    0.0000
      6 C5        14.1805   11.8409    2.0294 C.3       1 RES1    0.0000
      7 C6        12.9221   11.0008    1.8686 C.ar      1 RES1    0.0000
      8 C7        12.9169    9.8121    1.1386 C.ar      1 RES1    0.0000
      9 C8        11.7938    8.9898    1.1527 C.ar      1 RES1    0.0000
     10 C9        10.6708    9.3522    1.9055 C.ar      1 RES1    0.0000
     11 C10       10.6657   10.5574    2.6015 C.ar      1 RES1    0.0000
     12 C11       11.7924   11.3742    2.5882 C.ar      1 RES1    0.0000
     13 C12       16.1332   11.0722   -0.5419 C.ar      1 RES1    0.0000
     14 C13       17.2588   10.2692   -0.4199 C.ar      1 RES1    0.0000
     15 C14       17.3877    9.1339   -1.2208 C.ar      1 RES1    0.0000
     16 C15       16.3936    8.7990   -2.1362 C.ar      1 RES1    0.0000
     17 C16       15.2637    9.6089   -2.2554 C.ar      1 RES1    0.0000
     18 C17       15.1363   10.7469   -1.4639 C.ar      1 RES1    0.0000
     19 N2        13.9531   13.5815    0.3234 N.2       1 RES1    0.0000
     20 O1        12.9094   13.8437    0.9334 O.2       1 RES1    0.0000
     21 C18       16.9849   14.1114    1.7986 C.3       1 RES1    0.0000
     22 O2        17.4307   11.7256    3.5377 O.2       1 RES1    0.0000
     23 C19       14.9875   10.4517    3.9774 C.3       1 RES1    0.0000
     24 O3        11.6787    7.7969    0.4880 O.3       1 RES1    0.0000
     25 C20       12.6584    7.4167   -0.4123 C.3       1 RES1    0.0000
     26 O4         9.5806    8.5052    1.9821 O.3       1 RES1    0.0000
     27 C21        8.5943    8.7276    0.9901 C.3       1 RES1    0.0000
     28 O5         9.5172   10.8361    3.2927 O.3       1 RES1    0.0000
     29 C22        9.4004   12.1113    3.9121 C.3       1 RES1    0.0000
     30 O6        18.4524    8.2815   -1.1802 O.3       1 RES1    0.0000
     31 C23       19.5830    8.6645   -0.4038 C.3       1 RES1    0.0000
     32 O7        16.5529    7.7283   -2.9854 O.3       1 RES1    0.0000
     33 C24       16.2689    6.4695   -2.4067 C.3       1 RES1    0.0000
     34 O8        14.3473    9.1971   -3.1745 O.3       1 RES1    0.0000
     35 C25       13.2333   10.0372   -3.4242 C.3       1 RES1    0.0000
@<TRIPOS>BOND
     1    1    2 1
     2    2    3 1
     3    3    4 1
     4    4    5 1
     5    5    6 1
     6    6    1 1
     7    7    6 1
     8    8    7 ar
     9    9    8 ar
    10   10    9 ar
    11   11   10 ar
    12   12    7 ar
    13   13    2 1
    14   14   13 ar
    15   15   14 ar
    16   16   15 ar
    17   17   16 ar
    18   18   13 ar
    19   19    1 1
    20   20   19 2
    21   21    3 1
    22   22    4 2
    23   23    5 1
    24   24    9 1
    25   25   24 1
    26   26   10 1
    27   27   26 1
    28   28   11 1
    29   29   28 1
    30   30   15 1
    31   31   30 1
    32   32   16 1
    33   33   32 1
    34   34   17 1
    35   35   34 1
    36   11   12 ar
    37   17   18 ar
@<TRIPOS>SUBSTRUCTURE
     1 RES1 1

@<TRIPOS>CRYSIN
  38.5200   13.7270    9.5640  90.0000  98.6000  90.0000  15 1

