# MOL2 file generated by ConQuest
# Please check atom types

@<TRIPOS>MOLECULE
QEVRIV
    36    37     1
SMALL
NO_CHARGES
****
Generated from CSD

@<TRIPOS>ATOM
      1 O1        -1.0187    4.8626    0.6686 O.2       1 RES1    0.0000
      2 C1        -0.9730    4.7625    1.8683 C.2       1 RES1    0.0000
      3 O2        -1.9536    5.1188    2.6957 O.3       1 RES1    0.0000
      4 C2        -3.1794    5.6137    2.0773 C.3       1 RES1    0.0000
      5 C3         0.1962    4.1331    2.6381 C.3       1 RES1    0.0000
      6 C4        -0.0765    2.6088    2.6764 C.3       1 RES1    0.0000
      7 C5        -1.0635    2.2590    3.7710 C.3       1 RES1    0.0000
      8 C6        -0.4676    2.6797    5.0845 C.3       1 RES1    0.0000
      9 O3        -0.1129    4.1044    5.1159 O.3       1 RES1    0.0000
     10 C7         0.2290    4.7846    4.0230 C.2       1 RES1    0.0000
     11 O4         0.5333    5.9486    4.1501 O.2       1 RES1    0.0000
     12 C8         1.5359    4.3860    1.8825 C.3       1 RES1    0.0000
     13 C9         1.8019    5.8601    1.5601 C.3       1 RES1    0.0000
     14 N1         2.8514    5.9297    0.4907 N.pl3     1 RES1    0.0000
     15 O5         3.8703    6.5611    0.7226 O.2       1 RES1    0.0000
     16 O6         2.6319    5.3646   -0.5696 O.2       1 RES1    0.0000
     17 C10        2.7196    3.7858    2.6011 C.2       1 RES1    0.0000
     18 C11        3.2024    4.0368    3.9350 C.2       1 RES1    0.0000
     19 C12        4.2855    3.2565    4.0938 C.2       1 RES1    0.0000
     20 O7         4.5408    2.5412    2.9723 O.3       1 RES1    0.0000
     21 C13        3.5687    2.8826    2.0755 C.2       1 RES1    0.0000
     22 H1        -3.7704    5.8562    2.7901 H         1 RES1    0.0000
     23 H2        -2.9756    6.3966    1.5468 H         1 RES1    0.0000
     24 H3        -3.5751    4.8991    1.5267 H         1 RES1    0.0000
     25 H4         0.7791    2.1543    2.8439 H         1 RES1    0.0000
     26 H5        -0.4292    2.3396    1.8123 H         1 RES1    0.0000
     27 H6        -1.9311    2.7142    3.6224 H         1 RES1    0.0000
     28 H7        -1.1858    1.2758    3.7949 H         1 RES1    0.0000
     29 H8        -1.0922    2.5237    5.8099 H         1 RES1    0.0000
     30 H9         0.3787    2.1732    5.2711 H         1 RES1    0.0000
     31 H10        1.4389    3.9107    1.0092 H         1 RES1    0.0000
     32 H11        2.1541    6.3218    2.3421 H         1 RES1    0.0000
     33 H12        1.0007    6.2802    1.1963 H         1 RES1    0.0000
     34 H13        2.8234    4.6422    4.5700 H         1 RES1    0.0000
     35 H14        4.8538    3.1895    4.8701 H         1 RES1    0.0000
     36 H15        3.5568    2.5009    1.2231 H         1 RES1    0.0000
@<TRIPOS>BOND
     1    1    2 2
     2    2    3 1
     3    3    4 1
     4    4   22 1
     5    5    2 1
     6    6    5 1
     7    7    6 1
     8    8    7 1
     9    9    8 1
    10   10    5 1
    11   11   10 2
    12   12    5 1
    13   13   12 1
    14   14   13 1
    15   15   14 2
    16   16   14 2
    17   17   12 1
    18   18   17 1
    19   19   18 2
    20   20   19 1
    21   21   17 2
    22   23    4 1
    23   24    4 1
    24   25    6 1
    25   26    6 1
    26   27    7 1
    27   28    7 1
    28   29    8 1
    29   30    8 1
    30   31   12 1
    31   32   13 1
    32   33   13 1
    33   34   18 1
    34   35   19 1
    35   36   21 1
    36    9   10 1
    37   20   21 1
@<TRIPOS>SUBSTRUCTURE
     1 RES1 1

@<TRIPOS>CRYSIN
   9.4573    6.5026   11.6625  90.0000 106.1747  90.0000   4 1

