# MOL2 file generated by ConQuest
# Please check atom types

@<TRIPOS>MOLECULE
QEVTUH
    80    82     2
SMALL
NO_CHARGES
****
Generated from CSD

@<TRIPOS>ATOM
      1 C1        -1.8407    4.3419   13.0831 C.ar      1 RES1    0.0000
      2 H1        -1.0536    4.7903   13.3700 H         1 RES1    0.0000
      3 C2        -2.9017    4.2289   13.9524 C.ar      1 RES1    0.0000
      4 H2        -2.8553    4.5944   14.8267 H         1 RES1    0.0000
      5 C3        -4.0316    3.5737   13.5210 C.ar      1 RES1    0.0000
      6 C4        -4.1283    3.0122   12.2542 C.ar      1 RES1    0.0000
      7 H3        -4.9145    2.5535   11.9823 H         1 RES1    0.0000
      8 C5        -3.0566    3.1372   11.4015 C.ar      1 RES1    0.0000
      9 H4        -3.1060    2.7577   10.5319 H         1 RES1    0.0000
     10 C6        -1.8929    3.8138   11.7903 C.ar      1 RES1    0.0000
     11 C7        -0.7185    3.9698   10.9372 C.2       1 RES1    0.0000
     12 H5        -0.0377    4.5472   11.2618 H         1 RES1    0.0000
     13 C8        -0.4887    3.3973    9.7559 C.2       1 RES1    0.0000
     14 H6        -1.1716    2.8565    9.3759 H         1 RES1    0.0000
     15 C9         0.7431    3.5561    9.0241 C.2       1 RES1    0.0000
     16 H7         1.3874    4.1648    9.3665 H         1 RES1    0.0000
     17 C10        1.0377    2.9005    7.8923 C.2       1 RES1    0.0000
     18 H8         0.3783    2.3140    7.5402 H         1 RES1    0.0000
     19 C11        2.2780    3.0175    7.1706 C.2       1 RES1    0.0000
     20 H9         2.9570    3.5737    7.5340 H         1 RES1    0.0000
     21 C12        2.5289    2.3897    6.0200 C.2       1 RES1    0.0000
     22 H10        1.8416    1.8243    5.6888 H         1 RES1    0.0000
     23 C13        3.7431    2.4785    5.2177 C.ar      1 RES1    0.0000
     24 C14        3.7346    1.9918    3.9073 C.ar      1 RES1    0.0000
     25 H11        2.9441    1.5891    3.5681 H         1 RES1    0.0000
     26 C15        4.8509    2.0829    3.0900 C.ar      1 RES1    0.0000
     27 H12        4.8179    1.7573    2.1991 H         1 RES1    0.0000
     28 C16        6.0044    2.6460    3.5765 C.ar      1 RES1    0.0000
     29 C17        6.0380    3.1316    4.8822 C.ar      1 RES1    0.0000
     30 H13        6.8356    3.5214    5.2189 H         1 RES1    0.0000
     31 C18        4.9282    3.0514    5.6848 C.ar      1 RES1    0.0000
     32 H14        4.9670    3.3902    6.5722 H         1 RES1    0.0000
     33 C19        7.1515    2.4733    1.4961 C.3       1 RES1    0.0000
     34 H15        6.9637    1.5205    1.3658 H         1 RES1    0.0000
     35 H16        8.0187    2.6932    1.0964 H         1 RES1    0.0000
     36 H17        6.4495    3.0065    1.0682 H         1 RES1    0.0000
     37 C20        7.5187    6.4029    3.4619 C.ar      2 RES2    0.0000
     38 H18        6.6171    6.6992    3.4302 H         2 RES2    0.0000
     39 C21        8.2229    6.2667    2.2937 C.ar      2 RES2    0.0000
     40 H19        7.8105    6.4427    1.4567 H         2 RES2    0.0000
     41 C22        9.5466    5.8674    2.3604 C.ar      2 RES2    0.0000
     42 C23       10.1620    5.5815    3.5430 C.ar      2 RES2    0.0000
     43 H20       11.0713    5.3075    3.5649 H         2 RES2    0.0000
     44 C24        9.4331    5.7010    4.7011 C.ar      2 RES2    0.0000
     45 H21        9.8482    5.4960    5.5291 H         2 RES2    0.0000
     46 C25        8.0966    6.1168    4.6955 C.ar      2 RES2    0.0000
     47 C26        7.3923    6.1730    5.9695 C.2       2 RES2    0.0000
     48 H22        7.8735    5.8562    6.7257 H         2 RES2    0.0000
     49 C27        6.1458    6.6177    6.2104 C.2       2 RES2    0.0000
     50 H23        5.6606    7.0232    5.5009 H         2 RES2    0.0000
     51 C28        5.5199    6.5027    7.4998 C.2       2 RES2    0.0000
     52 H24        6.0276    6.0976    8.1918 H         2 RES2    0.0000
     53 C29        4.2790    6.9186    7.8109 C.2       2 RES2    0.0000
     54 H25        3.7776    7.3505    7.1298 H         2 RES2    0.0000
     55 C30        3.6539    6.7609    9.0918 C.2       2 RES2    0.0000
     56 H26        4.1543    6.3547    9.7894 H         2 RES2    0.0000
     57 C31        2.3968    7.1565    9.3562 C.2       2 RES2    0.0000
     58 H27        1.9192    7.5247    8.6210 H         2 RES2    0.0000
     59 C32        1.6713    7.0976   10.6130 C.ar      2 RES2    0.0000
     60 C33        0.3481    7.5465   10.6681 C.ar      2 RES2    0.0000
     61 H28       -0.0693    7.8323    9.8646 H         2 RES2    0.0000
     62 C34       -0.3809    7.5905   11.8460 C.ar      2 RES2    0.0000
     63 H29       -1.2790    7.9020   11.8476 H         2 RES2    0.0000
     64 C35        0.2197    7.1737   13.0239 C.ar      2 RES2    0.0000
     65 C36        1.5369    6.7052   12.9941 C.ar      2 RES2    0.0000
     66 H30        1.9498    6.4114   13.7992 H         2 RES2    0.0000
     67 C37        2.2394    6.6663   11.8163 C.ar      2 RES2    0.0000
     68 H31        3.1313    6.3395   11.8163 H         2 RES2    0.0000
     69 C38       -1.7035    7.7071   14.3484 C.3       2 RES2    0.0000
     70 H32       -1.6786    8.6555   14.1031 H         2 RES2    0.0000
     71 H33       -2.0243    7.6169   15.2684 H         2 RES2    0.0000
     72 H34       -2.3078    7.2285   13.7428 H         2 RES2    0.0000
     73 N1        -5.1814    3.5050   14.4188 N.pl3     1 RES1    0.0000
     74 N2        10.3221    5.7427    1.1205 N.pl3     2 RES2    0.0000
     75 O1        -6.1850    2.9118   14.0473 O.2       1 RES1    0.0000
     76 O2        -5.0941    4.0711   15.5168 O.2       1 RES1    0.0000
     77 O3         7.1848    2.7632    2.8867 O.3       1 RES1    0.0000
     78 O4         9.7151    5.6917    0.0564 O.2       2 RES2    0.0000
     79 O5        11.5408    5.7096    1.2017 O.2       2 RES2    0.0000
     80 O6        -0.3813    7.1502   14.2443 O.3       2 RES2    0.0000
@<TRIPOS>BOND
     1    1    2 1
     2    3    1 ar
     3    4    3 1
     4    5    3 ar
     5    6    5 ar
     6    7    6 1
     7    8    6 ar
     8    9    8 1
     9   10    1 ar
    10   11   10 1
    11   12   11 1
    12   13   11 2
    13   14   13 1
    14   15   13 1
    15   16   15 1
    16   17   15 2
    17   18   17 1
    18   19   17 1
    19   20   19 1
    20   21   19 2
    21   22   21 1
    22   23   21 1
    23   24   23 ar
    24   25   24 1
    25   26   24 ar
    26   27   26 1
    27   28   26 ar
    28   29   28 ar
    29   30   29 1
    30   31   23 ar
    31   32   31 1
    32   33   34 1
    33   35   33 1
    34   36   33 1
    35   37   38 1
    36   39   37 ar
    37   40   39 1
    38   41   39 ar
    39   42   41 ar
    40   43   42 1
    41   44   42 ar
    42   45   44 1
    43   46   37 ar
    44   47   46 1
    45   48   47 1
    46   49   47 2
    47   50   49 1
    48   51   49 1
    49   52   51 1
    50   53   51 2
    51   54   53 1
    52   55   53 1
    53   56   55 1
    54   57   55 2
    55   58   57 1
    56   59   57 1
    57   60   59 ar
    58   61   60 1
    59   62   60 ar
    60   63   62 1
    61   64   62 ar
    62   65   64 ar
    63   66   65 1
    64   67   59 ar
    65   68   67 1
    66   69   70 1
    67   71   69 1
    68   72   69 1
    69   73    5 1
    70   74   41 1
    71   75   73 2
    72   76   73 2
    73   77   28 1
    74   78   74 2
    75   79   74 2
    76   80   64 1
    77    8   10 ar
    78   29   31 ar
    79   33   77 1
    80   44   46 ar
    81   65   67 ar
    82   69   80 1
@<TRIPOS>SUBSTRUCTURE
     1 RES1 1
     2 RES2 37

@<TRIPOS>CRYSIN
   6.8991    7.2227   31.4350  93.3220  93.2370  93.0070   2 1

