# MOL2 file generated by ConQuest
# Please check atom types

@<TRIPOS>MOLECULE
QEVVET
    92    94     2
SMALL
NO_CHARGES
****
Generated from CSD

@<TRIPOS>ATOM
      1 C1         8.3991    1.4729   13.2404 C.ar      1 RES1    0.0000
      2 H1         9.1416    1.0452   13.6509 H         1 RES1    0.0000
      3 C2         7.2550    1.6430   13.9426 C.ar      1 RES1    0.0000
      4 H2         7.2090    1.3423   14.8416 H         1 RES1    0.0000
      5 C3         6.1442    2.2539   13.3608 C.ar      1 RES1    0.0000
      6 C4         6.2446    2.7466   12.0446 C.ar      1 RES1    0.0000
      7 H3         5.5121    3.2013   11.6477 H         1 RES1    0.0000
      8 C5         7.4045    2.5663   11.3407 C.ar      1 RES1    0.0000
      9 H4         7.4567    2.8889   10.4502 H         1 RES1    0.0000
     10 C6         8.5059    1.9269   11.8902 C.ar      1 RES1    0.0000
     11 C7         9.7205    1.6598   11.1643 C.2       1 RES1    0.0000
     12 H5        10.3303    1.0438   11.5544 H         1 RES1    0.0000
     13 C8        10.0690    2.2006    9.9888 C.2       1 RES1    0.0000
     14 H6         9.4622    2.7984    9.5699 H         1 RES1    0.0000
     15 C9        11.3360    1.9160    9.3188 C.2       1 RES1    0.0000
     16 H7        11.9220    1.2846    9.7191 H         1 RES1    0.0000
     17 C10       11.7183    2.4941    8.1739 C.2       1 RES1    0.0000
     18 H8        11.1342    3.1415    7.7957 H         1 RES1    0.0000
     19 C11       12.9478    2.2145    7.4683 C.2       1 RES1    0.0000
     20 H9        13.5802    1.6328    7.8737 H         1 RES1    0.0000
     21 C12       13.2354    2.7306    6.2776 C.2       1 RES1    0.0000
     22 H10       12.5940    3.3320    5.9197 H         1 RES1    0.0000
     23 C13       14.4331    2.4846    5.4414 C.ar      1 RES1    0.0000
     24 C14       14.3614    2.8568    4.1014 C.ar      1 RES1    0.0000
     25 H11       13.5844    3.2977    3.7774 H         1 RES1    0.0000
     26 C15       15.4112    2.5911    3.2397 C.ar      1 RES1    0.0000
     27 H12       15.3647    2.8576    2.3289 H         1 RES1    0.0000
     28 C16       16.5432    1.9247    3.7265 C.ar      1 RES1    0.0000
     29 C17       16.6460    1.6029    5.0546 C.ar      1 RES1    0.0000
     30 H13       17.4361    1.1941    5.3888 H         1 RES1    0.0000
     31 C18       15.5991    1.8751    5.9010 C.ar      1 RES1    0.0000
     32 H14       15.6718    1.6430    6.8187 H         1 RES1    0.0000
     33 C19       17.5535    1.8233    1.5435 C.3       1 RES1    0.0000
     34 H15       17.6029    2.7962    1.3671 H         1 RES1    0.0000
     35 H16       16.6984    1.4832    1.1788 H         1 RES1    0.0000
     36 C20       18.7131    1.1175    0.8837 C.3       1 RES1    0.0000
     37 H17       18.6224    0.1453    1.0465 H         1 RES1    0.0000
     38 H18       18.6521    1.2627   -0.0933 H         1 RES1    0.0000
     39 C21       20.0636    1.5496    1.3434 C.3       1 RES1    0.0000
     40 H19       20.1879    2.5006    1.1432 H         1 RES1    0.0000
     41 H20       20.7489    1.0255    0.8786 H         1 RES1    0.0000
     42 H21       20.1412    1.4058    2.3102 H         1 RES1    0.0000
     43 C22       13.7882    6.4954    4.3745 C.ar      2 RES2    0.0000
     44 H22       14.1998    6.8384    5.1581 H         2 RES2    0.0000
     45 C23       14.5107    6.4158    3.2329 C.ar      2 RES2    0.0000
     46 H23       15.4160    6.7056    3.2211 H         2 RES2    0.0000
     47 C24       13.9229    5.9085    2.0795 C.ar      2 RES2    0.0000
     48 C25       12.6067    5.5275    2.0846 C.ar      2 RES2    0.0000
     49 H24       12.2026    5.2166    1.2840 H         2 RES2    0.0000
     50 C26       11.8600    5.5947    3.2550 C.ar      2 RES2    0.0000
     51 H25       10.9539    5.3100    3.2601 H         2 RES2    0.0000
     52 C27       12.4550    6.0874    4.4338 C.ar      2 RES2    0.0000
     53 C28       11.7197    6.1640    5.6856 C.2       2 RES2    0.0000
     54 H26       12.1416    6.6516    6.3827 H         2 RES2    0.0000
     55 C29       10.5306    5.6414    5.9858 C.2       2 RES2    0.0000
     56 H27       10.0970    5.1027    5.3328 H         2 RES2    0.0000
     57 C30        9.8815    5.8480    7.2274 C.2       2 RES2    0.0000
     58 H28       10.3378    6.3479    7.8940 H         2 RES2    0.0000
     59 C31        8.6526    5.3743    7.5141 C.2       2 RES2    0.0000
     60 H29        8.2463    4.8057    6.8712 H         2 RES2    0.0000
     61 C32        7.9067    5.6531    8.7031 C.2       2 RES2    0.0000
     62 H30        8.3436    6.1180    9.4070 H         2 RES2    0.0000
     63 C33        6.6221    5.2954    8.8829 C.2       2 RES2    0.0000
     64 H31        6.2270    4.7830    8.1875 H         2 RES2    0.0000
     65 C34        5.7726    5.6042   10.0177 C.ar      2 RES2    0.0000
     66 C35        6.2160    6.1990   11.1948 C.ar      2 RES2    0.0000
     67 H32        7.1241    6.4625   11.2796 H         2 RES2    0.0000
     68 C36        5.3280    6.4078   12.2481 C.ar      2 RES2    0.0000
     69 H33        5.6376    6.8501   13.0301 H         2 RES2    0.0000
     70 C37        4.0112    5.9917   12.1905 C.ar      2 RES2    0.0000
     71 C38        3.5631    5.3969   11.0455 C.ar      2 RES2    0.0000
     72 H34        2.6618    5.0991   10.9913 H         2 RES2    0.0000
     73 C39        4.4005    5.2246    9.9736 C.ar      2 RES2    0.0000
     74 H35        4.0556    4.8400    9.1763 H         2 RES2    0.0000
     75 C40        2.0042    5.5246   13.4287 C.3       2 RES2    0.0000
     76 H36        2.0991    4.5736   13.1692 H         2 RES2    0.0000
     77 H37        1.3391    5.9509   12.8316 H         2 RES2    0.0000
     78 C41        1.5705    5.6326   14.8518 C.3       2 RES2    0.0000
     79 H38        1.5366    6.5910   15.0977 H         2 RES2    0.0000
     80 H39        0.6502    5.2743   14.9264 H         2 RES2    0.0000
     81 C42        2.4339    4.9232   15.8373 C.3       2 RES2    0.0000
     82 H40        2.4822    3.9728   15.6032 H         2 RES2    0.0000
     83 H41        2.0546    5.0210   16.7345 H         2 RES2    0.0000
     84 H42        3.3343    5.3100   15.8186 H         2 RES2    0.0000
     85 N1         4.9192    2.3247   14.0766 N.pl3     1 RES1    0.0000
     86 N2        14.6750    5.8283    0.8718 N.pl3     2 RES2    0.0000
     87 O1        17.6214    1.5744    2.9480 O.3       1 RES1    0.0000
     88 O2         3.9357    2.7568   13.4847 O.2       1 RES1    0.0000
     89 O3         4.9039    1.9671   15.2148 O.2       1 RES1    0.0000
     90 O4        14.1582    5.4706   -0.1442 O.2       2 RES2    0.0000
     91 O5        15.8910    6.1158    0.9159 O.2       2 RES2    0.0000
     92 O6         3.2791    6.2027   13.3286 O.3       2 RES2    0.0000
@<TRIPOS>BOND
     1    1    2 1
     2    3    1 ar
     3    4    3 1
     4    5    3 ar
     5    6    5 ar
     6    7    6 1
     7    8    6 ar
     8    9    8 1
     9   10    1 ar
    10   11   10 1
    11   12   11 1
    12   13   11 2
    13   14   13 1
    14   15   13 1
    15   16   15 1
    16   17   15 2
    17   18   17 1
    18   19   17 1
    19   20   19 1
    20   21   19 2
    21   22   21 1
    22   23   21 1
    23   24   23 ar
    24   25   24 1
    25   26   24 ar
    26   27   26 1
    27   28   26 ar
    28   29   28 ar
    29   30   29 1
    30   31   23 ar
    31   32   31 1
    32   33   34 1
    33   35   33 1
    34   36   33 1
    35   37   36 1
    36   38   36 1
    37   39   36 1
    38   40   39 1
    39   41   39 1
    40   42   39 1
    41   43   44 1
    42   45   43 ar
    43   46   45 1
    44   47   45 ar
    45   48   47 ar
    46   49   48 1
    47   50   48 ar
    48   51   50 1
    49   52   43 ar
    50   53   52 1
    51   54   53 1
    52   55   53 2
    53   56   55 1
    54   57   55 1
    55   58   57 1
    56   59   57 2
    57   60   59 1
    58   61   59 1
    59   62   61 1
    60   63   61 2
    61   64   63 1
    62   65   63 1
    63   66   65 ar
    64   67   66 1
    65   68   66 ar
    66   69   68 1
    67   70   68 ar
    68   71   70 ar
    69   72   71 1
    70   73   65 ar
    71   74   73 1
    72   75   76 1
    73   77   75 1
    74   78   75 1
    75   79   78 1
    76   80   78 1
    77   81   78 1
    78   82   81 1
    79   83   81 1
    80   84   81 1
    81   85    5 1
    82   86   47 1
    83   87   28 1
    84   88   85 2
    85   89   85 2
    86   90   86 2
    87   91   86 2
    88   92   70 1
    89    8   10 ar
    90   29   31 ar
    91   33   87 1
    92   50   52 ar
    93   71   73 ar
    94   75   92 1
@<TRIPOS>SUBSTRUCTURE
     1 RES1 1
     2 RES2 43

@<TRIPOS>CRYSIN
  14.1930    7.2990   17.0520  90.0000  95.8950  90.0000   4 1

