# MOL2 file generated by ConQuest
# Please check atom types

@<TRIPOS>MOLECULE
QEVXIB
    60    64     1
SMALL
NO_CHARGES
****
Generated from CSD

@<TRIPOS>ATOM
      1 O1         9.0627    7.2790    7.0987 O.3       1 RES1    0.0000
      2 O2         7.2895    8.1813    4.6922 O.3       1 RES1    0.0000
      3 O3         6.9403    8.7606    7.8039 O.2       1 RES1    0.0000
      4 O4         5.5044    7.2773    6.8904 O.3       1 RES1    0.0000
      5 N1         9.9673    7.2621    6.0216 N.2       1 RES1    0.0000
      6 N2         6.3043    7.9847    3.6929 N.2       1 RES1    0.0000
      7 C1         9.4849    7.1134    2.4279 C.ar      1 RES1    0.0000
      8 H1         8.5510    7.2832    2.3894 H         1 RES1    0.0000
      9 C2        10.2253    7.0499    1.2516 C.ar      1 RES1    0.0000
     10 H2         9.7949    7.1868    0.4158 H         1 RES1    0.0000
     11 C3        11.5783    6.7897    1.2895 C.ar      1 RES1    0.0000
     12 H3        12.0767    6.7268    0.4832 H         1 RES1    0.0000
     13 C4        12.2069    6.6203    2.5161 C.ar      1 RES1    0.0000
     14 H4        13.1421    6.4561    2.5490 H         1 RES1    0.0000
     15 C5        11.4805    6.6894    3.6877 C.ar      1 RES1    0.0000
     16 H5        11.9207    6.5722    4.5212 H         1 RES1    0.0000
     17 C6        10.1045    6.9295    3.6606 C.ar      1 RES1    0.0000
     18 C7         9.3512    6.9979    4.9292 C.2       1 RES1    0.0000
     19 C8         7.8467    6.8859    5.1055 C.3       1 RES1    0.0000
     20 C9         7.0802    5.8544    4.2740 C.3       1 RES1    0.0000
     21 H6         7.6920    5.3180    3.7101 H         1 RES1    0.0000
     22 H7         6.5502    5.2478    4.8496 H         1 RES1    0.0000
     23 C10        6.1926    6.7327    3.4389 C.2       1 RES1    0.0000
     24 C11        5.2900    6.2599    2.3770 C.ar      1 RES1    0.0000
     25 C12        5.0342    4.9031    2.2150 C.ar      1 RES1    0.0000
     26 H8         5.4115    4.2728    2.8175 H         1 RES1    0.0000
     27 C13        4.2243    4.4684    1.1687 C.ar      1 RES1    0.0000
     28 H9         4.0408    3.5417    1.0673 H         1 RES1    0.0000
     29 C14        3.6870    5.3741    0.2791 C.ar      1 RES1    0.0000
     30 H10        3.1438    5.0708   -0.4389 H         1 RES1    0.0000
     31 C15        3.9411    6.7314    0.4343 C.ar      1 RES1    0.0000
     32 H11        3.5712    7.3561   -0.1784 H         1 RES1    0.0000
     33 C16        4.7275    7.1723    1.4737 C.ar      1 RES1    0.0000
     34 H12        4.8905    8.1022    1.5799 H         1 RES1    0.0000
     35 C17        7.7735    6.7954    6.6548 C.3       1 RES1    0.0000
     36 C18        7.5917    5.3621    7.1777 C.3       1 RES1    0.0000
     37 H13        6.6634    5.0701    6.9957 H         1 RES1    0.0000
     38 H14        8.1999    4.7599    6.6801 H         1 RES1    0.0000
     39 C19        7.8671    5.2217    8.6564 C.ar      1 RES1    0.0000
     40 C20        6.9426    5.6150    9.6163 C.ar      1 RES1    0.0000
     41 H15        6.1103    5.9836    9.3448 H         1 RES1    0.0000
     42 C21        7.2245    5.4738   10.9711 C.ar      1 RES1    0.0000
     43 H16        6.5820    5.7524   11.6131 H         1 RES1    0.0000
     44 C22        8.4273    4.9335   11.4010 C.ar      1 RES1    0.0000
     45 C23        9.3368    4.5231   10.4405 C.ar      1 RES1    0.0000
     46 H17       10.1596    4.1337   10.7121 H         1 RES1    0.0000
     47 C24        9.0660    4.6715    9.0909 C.ar      1 RES1    0.0000
     48 H18        9.7108    4.3924    8.4515 H         1 RES1    0.0000
     49 C25        8.7620    4.8179   12.8717 C.3       1 RES1    0.0000
     50 H19        9.1282    3.9275   13.0544 H         1 RES1    0.0000
     51 H20        7.9497    4.9525   13.4031 H         1 RES1    0.0000
     52 H21        9.4250    5.4991   13.1103 H         1 RES1    0.0000
     53 C26        6.7167    7.7542    7.1980 C.2       1 RES1    0.0000
     54 C27        4.3457    8.0999    7.2302 C.3       1 RES1    0.0000
     55 H22        4.6363    8.9103    7.7189 H         1 RES1    0.0000
     56 H23        3.7262    7.5903    7.8105 H         1 RES1    0.0000
     57 C28        3.6543    8.4878    5.9544 C.3       1 RES1    0.0000
     58 H24        4.2574    9.0356    5.4095 H         1 RES1    0.0000
     59 H25        2.8464    9.0017    6.1637 H         1 RES1    0.0000
     60 H26        3.4081    7.6801    5.4573 H         1 RES1    0.0000
@<TRIPOS>BOND
     1    1    5 1
     2    2    6 1
     3    3   53 2
     4    4   53 1
     5    5   18 2
     6    6   23 2
     7    7    8 1
     8    9    7 ar
     9   10    9 1
    10   11    9 ar
    11   12   11 1
    12   13   11 ar
    13   14   13 1
    14   15   13 ar
    15   16   15 1
    16   17    7 ar
    17   18   17 1
    18   19    2 1
    19   20   19 1
    20   21   20 1
    21   22   20 1
    22   23   20 1
    23   24   23 1
    24   25   24 ar
    25   26   25 1
    26   27   25 ar
    27   28   27 1
    28   29   27 ar
    29   30   29 1
    30   31   29 ar
    31   32   31 1
    32   33   24 ar
    33   34   33 1
    34   35    1 1
    35   36   35 1
    36   37   36 1
    37   38   36 1
    38   39   36 1
    39   40   39 ar
    40   41   40 1
    41   42   40 ar
    42   43   42 1
    43   44   42 ar
    44   45   44 ar
    45   46   45 1
    46   47   39 ar
    47   48   47 1
    48   49   44 1
    49   50   49 1
    50   51   49 1
    51   52   49 1
    52   53   35 1
    53   54    4 1
    54   55   54 1
    55   56   54 1
    56   57   54 1
    57   58   57 1
    58   59   57 1
    59   60   57 1
    60   15   17 ar
    61   18   19 1
    62   19   35 1
    63   31   33 ar
    64   45   47 ar
@<TRIPOS>SUBSTRUCTURE
     1 RES1 1

@<TRIPOS>CRYSIN
  11.2591   10.2596   19.9617  90.0000  91.9880  90.0000 231 1

