# MOL2 file generated by ConQuest
# Please check atom types

@<TRIPOS>MOLECULE
QEWHAD
    60    62     1
SMALL
NO_CHARGES
****
Generated from CSD

@<TRIPOS>ATOM
      1 O1        10.0538    1.4375    4.5265 O.2       1 RES1    0.0000
      2 O2         8.4402    2.7514    5.0676 O.2       1 RES1    0.0000
      3 O3        13.6150    2.9528    1.8944 O.2       1 RES1    0.0000
      4 O4        13.7388    4.9409    1.1347 O.2       1 RES1    0.0000
      5 N1        11.6493    6.5220    1.2330 N.pl3     1 RES1    0.0000
      6 H1        12.4565    6.4818    0.9397 H         1 RES1    0.0000
      7 N2        10.8285    7.5865    0.8888 N.2       1 RES1    0.0000
      8 N3         9.4700    2.5098    4.4628 N.pl3     1 RES1    0.0000
      9 N4        13.1401    4.0599    1.7417 N.pl3     1 RES1    0.0000
     10 C1         9.0613   10.7922   -5.8953 C.3       1 RES1    0.0000
     11 H2         9.9300   11.1414   -6.1039 H         1 RES1    0.0000
     12 H3         8.4070   11.4880   -5.9863 H         1 RES1    0.0000
     13 H4         8.8505   10.0742   -6.4968 H         1 RES1    0.0000
     14 C2         9.0533   10.2733   -4.4658 C.3       1 RES1    0.0000
     15 H5         8.1797    9.8596   -4.3070 H         1 RES1    0.0000
     16 C3         9.2142   11.3985   -3.4610 C.3       1 RES1    0.0000
     17 H6         8.4917   12.0333   -3.5813 H         1 RES1    0.0000
     18 H7        10.0480   11.8618   -3.6376 H         1 RES1    0.0000
     19 C4         9.2138   10.9105   -2.0044 C.3       1 RES1    0.0000
     20 C5        10.3608    9.8802   -1.8253 C.3       1 RES1    0.0000
     21 H8        11.1813   10.3395   -2.0997 H         1 RES1    0.0000
     22 C6        10.5109    9.6123   -0.3092 C.3       1 RES1    0.0000
     23 H9         9.6083    9.4500    0.0338 H         1 RES1    0.0000
     24 C7        11.3337    8.4423    0.1022 C.2       1 RES1    0.0000
     25 H10       12.2037    8.3409   -0.2127 H         1 RES1    0.0000
     26 C8        11.1648    5.5562    2.0306 C.ar      1 RES1    0.0000
     27 C9         9.9024    5.7107    2.6595 C.ar      1 RES1    0.0000
     28 H11        9.4296    6.5003    2.5289 H         1 RES1    0.0000
     29 C10        9.3639    4.7481    3.4420 C.ar      1 RES1    0.0000
     30 H12        8.5400    4.8841    3.8503 H         1 RES1    0.0000
     31 C11       10.0488    3.5556    3.6319 C.ar      1 RES1    0.0000
     32 C12       11.0189   10.8934    0.3869 C.3       1 RES1    0.0000
     33 H13       10.8846   10.7663    1.3489 H         1 RES1    0.0000
     34 C13       10.1947   12.0901   -0.0145 C.2       1 RES1    0.0000
     35 C14       10.3095   13.3014    0.8710 C.3       1 RES1    0.0000
     36 H14        9.6917   13.9739    0.5744 H         1 RES1    0.0000
     37 H15       11.2042   13.6470    0.8271 H         1 RES1    0.0000
     38 H16       10.1046   13.0560    1.7769 H         1 RES1    0.0000
     39 C15        9.4264   12.0688   -1.0848 C.2       1 RES1    0.0000
     40 H17        8.9712   12.8537   -1.2889 H         1 RES1    0.0000
     41 C16        7.8189   10.3222   -1.6778 C.3       1 RES1    0.0000
     42 H18        7.7974   10.0397   -0.7608 H         1 RES1    0.0000
     43 H19        7.6470    9.5697   -2.2486 H         1 RES1    0.0000
     44 H20        7.1467   10.9933   -1.8219 H         1 RES1    0.0000
     45 C17       10.1964    8.6960   -2.7894 C.3       1 RES1    0.0000
     46 H21        9.3589    8.2348   -2.5739 H         1 RES1    0.0000
     47 C18       10.1022    9.2242   -4.2184 C.3       1 RES1    0.0000
     48 H22       10.9660    9.5931   -4.4647 H         1 RES1    0.0000
     49 H23        9.9275    8.4754   -4.8088 H         1 RES1    0.0000
     50 C19       11.3304    7.6739   -2.7655 C.3       1 RES1    0.0000
     51 H24       11.2523    7.0912   -3.5249 H         1 RES1    0.0000
     52 H25       11.2789    7.1566   -1.9583 H         1 RES1    0.0000
     53 H26       12.1745    8.1312   -2.7992 H         1 RES1    0.0000
     54 C20       12.5109   11.1680    0.1813 C.3       1 RES1    0.0000
     55 H27       12.6846   11.3091   -0.7520 H         1 RES1    0.0000
     56 H28       13.0213   10.4160    0.4918 H         1 RES1    0.0000
     57 H29       12.7630   11.9519    0.6757 H         1 RES1    0.0000
     58 C21       11.8375    4.3423    2.2927 C.ar      1 RES1    0.0000
     59 C22       11.2767    3.3544    3.0758 C.ar      1 RES1    0.0000
     60 H30       11.7331    2.5574    3.2234 H         1 RES1    0.0000
@<TRIPOS>BOND
     1    1    8 2
     2    2    8 2
     3    3    9 2
     4    4    9 2
     5    5    6 1
     6    7    5 1
     7    8   31 1
     8    9   58 1
     9   10   11 1
    10   12   10 1
    11   13   10 1
    12   14   10 1
    13   15   14 1
    14   16   14 1
    15   17   16 1
    16   18   16 1
    17   19   16 1
    18   20   19 1
    19   21   20 1
    20   22   20 1
    21   23   22 1
    22   24    7 2
    23   25   24 1
    24   26    5 1
    25   27   26 ar
    26   28   27 1
    27   29   27 ar
    28   30   29 1
    29   31   29 ar
    30   32   22 1
    31   33   32 1
    32   34   32 1
    33   35   34 1
    34   36   35 1
    35   37   35 1
    36   38   35 1
    37   39   19 1
    38   40   39 1
    39   41   19 1
    40   42   41 1
    41   43   41 1
    42   44   41 1
    43   45   20 1
    44   46   45 1
    45   47   14 1
    46   48   47 1
    47   49   47 1
    48   50   45 1
    49   51   50 1
    50   52   50 1
    51   53   50 1
    52   54   32 1
    53   55   54 1
    54   56   54 1
    55   57   54 1
    56   58   26 ar
    57   59   31 ar
    58   60   59 1
    59   22   24 1
    60   34   39 2
    61   45   47 1
    62   58   59 ar
@<TRIPOS>SUBSTRUCTURE
     1 RES1 1

@<TRIPOS>CRYSIN
  14.0891   12.3368   14.0775  90.0000 117.2680  90.0000  14 1

