# MOL2 file generated by ConQuest
# Please check atom types

@<TRIPOS>MOLECULE
QEWQUG
    73    77     1
SMALL
NO_CHARGES
****
Generated from CSD

@<TRIPOS>ATOM
      1 O1        -7.5353   -0.7636   -3.3902 O.3       1 RES1    0.0000
      2 O2        -5.4744   -1.5009    0.2219 O.2       1 RES1    0.0000
      3 O3        -4.2496    0.1486   -0.4595 O.2       1 RES1    0.0000
      4 O4        -9.6522   -4.1521   -5.8970 O.3       1 RES1    0.0000
      5 H1        -8.8912   -3.9100   -5.9242 H         1 RES1    0.0000
      6 N1        -8.0338   -2.0853   -5.2393 N.3       1 RES1    0.0000
      7 N2        -5.0520   -0.7471   -0.6546 N.pl3     1 RES1    0.0000
      8 C1        -7.3556   -2.0832   -3.9677 C.3       1 RES1    0.0000
      9 H2        -7.7980   -2.7348   -3.3319 H         1 RES1    0.0000
     10 C2        -5.8583   -2.4243   -4.0183 C.3       1 RES1    0.0000
     11 H3        -5.4114   -1.7093   -4.5186 H         1 RES1    0.0000
     12 C3        -5.3059   -2.3424   -2.5602 C.3       1 RES1    0.0000
     13 H4        -5.8641   -2.9841   -1.9783 H         1 RES1    0.0000
     14 C4        -5.5830   -0.9287   -2.0471 C.3       1 RES1    0.0000
     15 H5        -5.1254   -0.2564   -2.5632 H         1 RES1    0.0000
     16 C5        -7.0849   -0.6752   -2.0458 C.3       1 RES1    0.0000
     17 H6        -7.3046    0.2421   -1.7104 H         1 RES1    0.0000
     18 H7        -7.5655   -1.3176   -1.4363 H         1 RES1    0.0000
     19 C6        -9.5073   -1.8766   -5.1523 C.3       1 RES1    0.0000
     20 H8        -9.7740   -1.3745   -4.3976 H         1 RES1    0.0000
     21 C7        -9.8387   -1.1758   -6.4739 C.3       1 RES1    0.0000
     22 H9       -10.6567   -0.7478   -6.2795 H         1 RES1    0.0000
     23 H10       -9.8960   -1.8019   -7.1890 H         1 RES1    0.0000
     24 C8        -8.6472   -0.2913   -6.7206 C.3       1 RES1    0.0000
     25 H11       -8.6303    0.5555   -6.1294 H         1 RES1    0.0000
     26 H12       -8.6156   -0.0142   -7.7111 H         1 RES1    0.0000
     27 C9        -7.4755   -1.1331   -6.2525 C.3       1 RES1    0.0000
     28 H13       -6.7813   -0.5484   -5.8630 H         1 RES1    0.0000
     29 H14       -7.1228   -1.6452   -7.0144 H         1 RES1    0.0000
     30 C10       -5.4953   -3.7910   -4.6524 C.3       1 RES1    0.0000
     31 H15       -4.5273   -3.9313   -4.3884 H         1 RES1    0.0000
     32 C11       -6.3006   -4.9427   -4.0882 C.3       1 RES1    0.0000
     33 H16       -5.9567   -5.8116   -4.4558 H         1 RES1    0.0000
     34 H17       -6.2762   -4.9569   -3.0502 H         1 RES1    0.0000
     35 H18       -7.2206   -4.9284   -4.3425 H         1 RES1    0.0000
     36 C12       -5.5201   -3.8096   -6.1773 C.3       1 RES1    0.0000
     37 H19       -4.9002   -3.0482   -6.4755 H         1 RES1    0.0000
     38 H20       -5.1914   -4.6151   -6.5750 H         1 RES1    0.0000
     39 H21       -6.4832   -3.8103   -6.5612 H         1 RES1    0.0000
     40 C13       -3.8473   -2.7220   -2.4187 C.ar      1 RES1    0.0000
     41 C14       -3.5102   -3.8886   -1.7442 C.ar      1 RES1    0.0000
     42 H22       -4.1820   -4.4655   -1.3980 H         1 RES1    0.0000
     43 C15       -2.1776   -4.2554   -1.5934 C.ar      1 RES1    0.0000
     44 H23       -2.0007   -5.0637   -1.1499 H         1 RES1    0.0000
     45 C16       -1.1733   -3.4463   -2.0899 C.ar      1 RES1    0.0000
     46 H24       -0.2396   -3.6750   -1.9416 H         1 RES1    0.0000
     47 C17       -1.4923   -2.2911   -2.7591 C.ar      1 RES1    0.0000
     48 H25       -0.7712   -1.6879   -3.1298 H         1 RES1    0.0000
     49 C18       -2.8220   -1.9272   -2.9301 C.ar      1 RES1    0.0000
     50 H26       -3.0677   -1.1395   -3.4207 H         1 RES1    0.0000
     51 C19      -10.2472   -3.2384   -4.9861 C.3       1 RES1    0.0000
     52 C20      -11.7338   -3.1401   -5.3303 C.ar      1 RES1    0.0000
     53 C21      -12.3595   -4.1436   -6.0585 C.ar      1 RES1    0.0000
     54 H27      -11.8206   -4.8430   -6.4356 H         1 RES1    0.0000
     55 C22      -13.7306   -4.0987   -6.2906 C.ar      1 RES1    0.0000
     56 H28      -14.1241   -4.6863   -6.7740 H         1 RES1    0.0000
     57 C23      -14.4921   -3.0617   -5.8063 C.ar      1 RES1    0.0000
     58 H29      -15.4447   -3.0625   -5.9365 H         1 RES1    0.0000
     59 C24      -13.8731   -2.0454   -5.0943 C.ar      1 RES1    0.0000
     60 H30      -14.3697   -1.3104   -4.7483 H         1 RES1    0.0000
     61 C25      -12.5083   -2.0924   -4.8567 C.ar      1 RES1    0.0000
     62 H31      -12.1139   -1.3674   -4.3655 H         1 RES1    0.0000
     63 C26      -10.1723   -3.8117   -3.5545 C.ar      1 RES1    0.0000
     64 C27       -9.8786   -5.1521   -3.3506 C.ar      1 RES1    0.0000
     65 H32       -9.6654   -5.6620   -4.1312 H         1 RES1    0.0000
     66 C28       -9.8840   -5.7026   -2.0775 C.ar      1 RES1    0.0000
     67 H33       -9.6276   -6.6519   -1.9538 H         1 RES1    0.0000
     68 C29      -10.2007   -4.9270   -0.9867 C.ar      1 RES1    0.0000
     69 H34      -10.2458   -5.3059   -0.0735 H         1 RES1    0.0000
     70 C30      -10.5102   -3.6016   -1.1749 C.ar      1 RES1    0.0000
     71 H35      -10.7519   -3.0411   -0.5221 H         1 RES1    0.0000
     72 C31      -10.4938   -3.0311   -2.4412 C.ar      1 RES1    0.0000
     73 H36      -10.7241   -2.0298   -2.5939 H         1 RES1    0.0000
@<TRIPOS>BOND
     1    1    8 1
     2    2    7 2
     3    3    7 2
     4    4    5 1
     5    6    8 1
     6    7   14 1
     7    8    9 1
     8   10    8 1
     9   11   10 1
    10   12   10 1
    11   13   12 1
    12   14   12 1
    13   15   14 1
    14   16    1 1
    15   17   16 1
    16   18   16 1
    17   19    6 1
    18   20   19 1
    19   21   19 1
    20   22   21 1
    21   23   21 1
    22   24   21 1
    23   25   24 1
    24   26   24 1
    25   27    6 1
    26   28   27 1
    27   29   27 1
    28   30   10 1
    29   31   30 1
    30   32   30 1
    31   33   32 1
    32   34   32 1
    33   35   32 1
    34   36   30 1
    35   37   36 1
    36   38   36 1
    37   39   36 1
    38   40   12 1
    39   41   40 ar
    40   42   41 1
    41   43   41 ar
    42   44   43 1
    43   45   43 ar
    44   46   45 1
    45   47   45 ar
    46   48   47 1
    47   49   40 ar
    48   50   49 1
    49   51    4 1
    50   52   51 1
    51   53   52 ar
    52   54   53 1
    53   55   53 ar
    54   56   55 1
    55   57   55 ar
    56   58   57 1
    57   59   57 ar
    58   60   59 1
    59   61   52 ar
    60   62   61 1
    61   63   51 1
    62   64   63 ar
    63   65   64 1
    64   66   64 ar
    65   67   66 1
    66   68   66 ar
    67   69   68 1
    68   70   68 ar
    69   71   70 1
    70   72   63 ar
    71   73   72 1
    72   14   16 1
    73   19   51 1
    74   24   27 1
    75   47   49 ar
    76   59   61 ar
    77   70   72 ar
@<TRIPOS>SUBSTRUCTURE
     1 RES1 1

@<TRIPOS>CRYSIN
  23.9400    7.1220   15.3957  90.0000  95.9760  90.0000   5 1

