# MOL2 file generated by ConQuest
# Please check atom types

@<TRIPOS>MOLECULE
QEXZIF
    39    41     1
SMALL
NO_CHARGES
****
Generated from CSD

@<TRIPOS>ATOM
      1 O1         5.4359   18.8318    1.2176 O.2       1 RES1    0.0000
      2 O2         3.2950   18.6592    1.3924 O.2       1 RES1    0.0000
      3 N1         5.1620    8.3584    2.7040 N.2       1 RES1    0.0000
      4 N2         4.5292    9.3174    2.2107 N.2       1 RES1    0.0000
      5 N3         6.0072   12.3421    3.5800 N.2       1 RES1    0.0000
      6 N4         4.9663   12.7570    2.7722 N.pl3     1 RES1    0.0000
      7 N5         4.4202   18.1938    1.4806 N.pl3     1 RES1    0.0000
      8 C1         4.7960    7.0954    2.1377 C.ar      1 RES1    0.0000
      9 C2         5.1447    5.9808    2.8714 C.ar      1 RES1    0.0000
     10 C3         4.8824    4.7109    2.3790 C.ar      1 RES1    0.0000
     11 C4         4.2946    4.5556    1.1590 C.ar      1 RES1    0.0000
     12 C5         3.9533    5.6593    0.4111 C.ar      1 RES1    0.0000
     13 C6         4.1990    6.9336    0.8951 C.ar      1 RES1    0.0000
     14 C7         6.9278   10.2233    4.3446 C.3       1 RES1    0.0000
     15 C8         5.9743   11.0210    3.5282 C.2       1 RES1    0.0000
     16 C9         4.9263   10.5827    2.6704 C.2       1 RES1    0.0000
     17 C10        4.3035   11.7151    2.2028 C.2       1 RES1    0.0000
     18 C11        3.2015   11.8442    1.2081 C.3       1 RES1    0.0000
     19 C12        4.8236   14.1498    2.5173 C.ar      1 RES1    0.0000
     20 C13        5.9589   14.9153    2.3037 C.ar      1 RES1    0.0000
     21 C14        5.8344   16.2508    1.9865 C.ar      1 RES1    0.0000
     22 C15        4.5645   16.7957    1.8952 C.ar      1 RES1    0.0000
     23 C16        3.4337   16.0582    2.1558 C.ar      1 RES1    0.0000
     24 C17        3.5655   14.7234    2.4818 C.ar      1 RES1    0.0000
     25 H1         5.5562    6.0818    3.6997 H         1 RES1    0.0000
     26 H2         5.1090    3.9621    2.8833 H         1 RES1    0.0000
     27 H3         4.1229    3.7024    0.8319 H         1 RES1    0.0000
     28 H4         3.5564    5.5483   -0.4220 H         1 RES1    0.0000
     29 H5         3.9645    7.6787    0.3893 H         1 RES1    0.0000
     30 H6         7.5432   10.8138    4.7866 H         1 RES1    0.0000
     31 H7         7.4137    9.6224    3.7738 H         1 RES1    0.0000
     32 H8         6.4419    9.7184    5.0002 H         1 RES1    0.0000
     33 H9         2.3978   12.1209    1.6552 H         1 RES1    0.0000
     34 H10        3.0548   10.9970    0.7820 H         1 RES1    0.0000
     35 H11        3.4421   12.4979    0.5477 H         1 RES1    0.0000
     36 H12        6.8017   14.5287    2.3735 H         1 RES1    0.0000
     37 H13        6.5875   16.7747    1.8378 H         1 RES1    0.0000
     38 H14        2.5928   16.4528    2.1134 H         1 RES1    0.0000
     39 H15        2.8129   14.2122    2.6766 H         1 RES1    0.0000
@<TRIPOS>BOND
     1    1    7 2
     2    2    7 2
     3    3    4 2
     4    4   16 1
     5    5    6 1
     6    6   17 1
     7    7   22 1
     8    8    3 1
     9    9    8 ar
    10   10    9 ar
    11   11   10 ar
    12   12   11 ar
    13   13    8 ar
    14   14   15 1
    15   15    5 2
    16   16   15 1
    17   17   16 2
    18   18   17 1
    19   19    6 1
    20   20   19 ar
    21   21   20 ar
    22   22   21 ar
    23   23   22 ar
    24   24   19 ar
    25   25    9 1
    26   26   10 1
    27   27   11 1
    28   28   12 1
    29   29   13 1
    30   30   14 1
    31   31   14 1
    32   32   14 1
    33   33   18 1
    34   34   18 1
    35   35   18 1
    36   36   20 1
    37   37   21 1
    38   38   23 1
    39   39   24 1
    40   12   13 ar
    41   23   24 ar
@<TRIPOS>SUBSTRUCTURE
     1 RES1 1

@<TRIPOS>CRYSIN
  10.3120   17.7830   17.6800  90.0000 103.0400  90.0000  15 1

