# MOL2 file generated by ConQuest
# Please check atom types

@<TRIPOS>MOLECULE
QEYGOS
    39    41     1
SMALL
NO_CHARGES
****
Generated from CSD

@<TRIPOS>ATOM
      1 O1         3.5933    1.5733    5.2705 O.3       1 RES1    0.0000
      2 H1         2.7868    1.4798    5.1564 H         1 RES1    0.0000
      3 N1         9.6446    2.1183    6.7500 N.2       1 RES1    0.0000
      4 O2         1.4980    1.3423    3.7052 O.2       1 RES1    0.0000
      5 N2         2.1831    1.0177    2.7560 N.pl3     1 RES1    0.0000
      6 O3         1.6960    0.6244    1.7178 O.2       1 RES1    0.0000
      7 C1         8.3520    2.2682    6.7611 C.2       1 RES1    0.0000
      8 C2         4.2329    1.4040    4.1041 C.ar      1 RES1    0.0000
      9 C3         7.5967    1.7973    5.6230 C.2       1 RES1    0.0000
     10 H2         8.0904    1.3669    4.9635 H         1 RES1    0.0000
     11 C4         6.3541    1.2805    2.9721 C.ar      1 RES1    0.0000
     12 H3         7.2815    1.3387    2.9953 H         1 RES1    0.0000
     13 C5         7.8170    2.9949    7.9992 C.3       1 RES1    0.0000
     14 C6         5.6384    1.5063    4.1415 C.ar      1 RES1    0.0000
     15 C7         6.2904    1.8978    5.3927 C.2       1 RES1    0.0000
     16 H4         5.7545    2.2383    6.0724 H         1 RES1    0.0000
     17 C8        10.1430    2.7004    7.9417 C.ar      1 RES1    0.0000
     18 C9         5.7337    0.9754    1.7733 C.ar      1 RES1    0.0000
     19 H5         6.2400    0.8237    1.0079 H         1 RES1    0.0000
     20 C10        3.6286    1.1094    2.8741 C.ar      1 RES1    0.0000
     21 C11        9.4261    3.8680    9.9008 C.ar      1 RES1    0.0000
     22 H6         8.7506    4.2225   10.4330 H         1 RES1    0.0000
     23 C12       11.7588    3.4306    9.5070 C.ar      1 RES1    0.0000
     24 H7        12.6431    3.5100    9.7847 H         1 RES1    0.0000
     25 C13        9.1275    3.2348    8.7132 C.ar      1 RES1    0.0000
     26 C14        4.3683    0.8978    1.7249 C.ar      1 RES1    0.0000
     27 H8         3.9398    0.7020    0.9230 H         1 RES1    0.0000
     28 C15       11.4722    2.7797    8.3274 C.ar      1 RES1    0.0000
     29 H9        12.1467    2.4058    7.8074 H         1 RES1    0.0000
     30 C16        6.8793    2.1007    8.8314 C.3       1 RES1    0.0000
     31 H10        6.0570    1.9666    8.3547 H         1 RES1    0.0000
     32 H11        6.6954    2.5258    9.6726 H         1 RES1    0.0000
     33 H12        7.3011    1.2523    8.9869 H         1 RES1    0.0000
     34 C17        7.1348    4.3266    7.6559 C.3       1 RES1    0.0000
     35 H13        6.3056    4.1537    7.2034 H         1 RES1    0.0000
     36 H14        7.7088    4.8416    7.0853 H         1 RES1    0.0000
     37 H15        6.9633    4.8152    8.4638 H         1 RES1    0.0000
     38 C18       10.7536    3.9668   10.2826 C.ar      1 RES1    0.0000
     39 H16       10.9707    4.4042   11.0743 H         1 RES1    0.0000
@<TRIPOS>BOND
     1    1    2 1
     2    3    7 2
     3    4    5 2
     4    5    6 2
     5    7    9 1
     6    8    1 1
     7    9   10 1
     8   11   12 1
     9   13    7 1
    10   14    8 ar
    11   15    9 2
    12   16   15 1
    13   17    3 1
    14   18   11 ar
    15   19   18 1
    16   20    5 1
    17   21   22 1
    18   23   24 1
    19   25   13 1
    20   26   18 ar
    21   27   26 1
    22   28   17 ar
    23   29   28 1
    24   30   13 1
    25   31   30 1
    26   32   30 1
    27   33   30 1
    28   34   13 1
    29   35   34 1
    30   36   34 1
    31   37   34 1
    32   38   21 ar
    33   39   38 1
    34    8   20 ar
    35   11   14 ar
    36   14   15 1
    37   17   25 ar
    38   20   26 ar
    39   21   25 ar
    40   23   28 ar
    41   23   38 ar
@<TRIPOS>SUBSTRUCTURE
     1 RES1 1

@<TRIPOS>CRYSIN
   8.5780   17.6380   10.3330  90.0000 102.2230  90.0000  14 1

