# MOL2 file generated by ConQuest
# Please check atom types

@<TRIPOS>MOLECULE
QEYLAI
    29    30     1
SMALL
NO_CHARGES
****
Generated from CSD

@<TRIPOS>ATOM
      1 O1         1.9782    7.2275    7.1776 O.3       1 RES1    0.0000
      2 C1         1.3431    7.6112    5.9263 C.3       1 RES1    0.0000
      3 H1         1.4449    8.5976    5.7972 H         1 RES1    0.0000
      4 C2         2.0988    6.8817    4.8164 C.3       1 RES1    0.0000
      5 H2         1.4873    6.5915    4.0799 H         1 RES1    0.0000
      6 C3         2.7208    5.6884    5.5405 C.3       1 RES1    0.0000
      7 H3         2.0653    4.9357    5.5989 H         1 RES1    0.0000
      8 C4         2.9903    6.2756    6.9345 C.3       1 RES1    0.0000
      9 H4         3.8830    6.7261    6.9415 H         1 RES1    0.0000
     10 N1         2.9448    5.2618    7.9785 N.pl3     1 RES1    0.0000
     11 C5         4.0370    4.7914    8.6261 C.2       1 RES1    0.0000
     12 H5         4.9346    5.0841    8.5211 H         1 RES1    0.0000
     13 C6         3.5797    3.7984    9.4708 C.2       1 RES1    0.0000
     14 C7         2.1708    3.6564    9.3313 C.2       1 RES1    0.0000
     15 H6         1.6051    3.0483    9.7914 H         1 RES1    0.0000
     16 C8         1.8032    4.5841    8.3898 C.2       1 RES1    0.0000
     17 H7         0.9204    4.7368    8.0741 H         1 RES1    0.0000
     18 C9        -0.1293    7.2725    6.0019 C.3       1 RES1    0.0000
     19 H8        -0.5384    7.7178    6.7853 H         1 RES1    0.0000
     20 H9        -0.5913    7.5911    5.1856 H         1 RES1    0.0000
     21 O2        -0.2681    5.8596    6.1188 O.3       1 RES1    0.0000
     22 H10       -1.0416    5.6433    5.7266 H         1 RES1    0.0000
     23 O3         3.1373    7.7399    4.3346 O.3       1 RES1    0.0000
     24 H11        3.5877    7.2783    3.7153 H         1 RES1    0.0000
     25 O4         3.9263    5.2484    4.9483 O.3       1 RES1    0.0000
     26 H12        3.8075    4.4596    4.6630 H         1 RES1    0.0000
     27 N2         4.4080    3.0727   10.3583 N.pl3     1 RES1    0.0000
     28 O5         5.6234    3.3451   10.3950 O.2       1 RES1    0.0000
     29 O6         3.9012    2.1967   11.0646 O.2       1 RES1    0.0000
@<TRIPOS>BOND
     1    1    2 1
     2    2    3 1
     3    4    2 1
     4    5    4 1
     5    6    4 1
     6    7    6 1
     7    8    1 1
     8    9    8 1
     9   10    8 1
    10   11   10 1
    11   12   11 1
    12   13   11 2
    13   14   13 1
    14   15   14 1
    15   16   10 1
    16   17   16 1
    17   18    2 1
    18   19   18 1
    19   20   18 1
    20   21   18 1
    21   22   21 1
    22   23    4 1
    23   24   23 1
    24   25    6 1
    25   26   25 1
    26   27   13 1
    27   28   27 2
    28   29   27 2
    29    6    8 1
    30   14   16 2
@<TRIPOS>SUBSTRUCTURE
     1 RES1 1

@<TRIPOS>CRYSIN
   6.6218    9.8971   16.8035  90.0000  90.0000  90.0000  19 1

