# MOL2 file generated by ConQuest
# Please check atom types

@<TRIPOS>MOLECULE
QEYWOG
    70    74     1
SMALL
NO_CHARGES
****
Generated from CSD

@<TRIPOS>ATOM
      1 C1         0.6830    1.3058   12.4290 C.3       1 RES1    0.0000
      2 H1         1.1658    2.1591   12.4214 H         1 RES1    0.0000
      3 C2        -0.2175    1.2262   13.6654 C.3       1 RES1    0.0000
      4 H2         0.3237    1.3939   14.4660 H         1 RES1    0.0000
      5 O1        -0.8421   -0.0387   13.7892 O.3       1 RES1    0.0000
      6 C3        -1.2946    2.2762   13.5746 C.3       1 RES1    0.0000
      7 H3        -0.8855    3.1650   13.6245 H         1 RES1    0.0000
      8 O2        -2.1918    2.0989   14.6869 O.3       1 RES1    0.0000
      9 O3        -2.1809    4.2967   15.1545 O.2       1 RES1    0.0000
     10 C4        -2.5580    3.1876   15.4057 C.2       1 RES1    0.0000
     11 C5        -3.4142    2.8050   16.5438 C.ar      1 RES1    0.0000
     12 C6        -3.7646    3.7980   17.4533 C.ar      1 RES1    0.0000
     13 H4        -3.4955    4.6771   17.3095 H         1 RES1    0.0000
     14 C7        -4.5040    3.4831   18.5610 C.ar      1 RES1    0.0000
     15 H5        -4.7621    4.1430   19.1649 H         1 RES1    0.0000
     16 C8        -4.8542    2.1827   18.7608 C.ar      1 RES1    0.0000
     17 C9        -4.5339    1.1854   17.8800 C.ar      1 RES1    0.0000
     18 H6        -4.7932    0.3063   18.0404 H         1 RES1    0.0000
     19 C10       -3.8273    1.5132   16.7632 C.ar      1 RES1    0.0000
     20 H7        -3.6205    0.8533   16.1412 H         1 RES1    0.0000
     21 N1        -5.5972    1.8259   19.9760 N.pl3     1 RES1    0.0000
     22 O4        -6.1864    2.6964   20.5723 O.2       1 RES1    0.0000
     23 O5        -5.6168    0.6728   20.3104 O.2       1 RES1    0.0000
     24 C11       -2.0449    2.1494   12.2837 C.3       1 RES1    0.0000
     25 H8        -2.5000    1.2810   12.2610 H         1 RES1    0.0000
     26 O6        -3.0055    3.1790   12.1566 O.3       1 RES1    0.0000
     27 C12       -4.3414    2.7072   12.2414 C.3       1 RES1    0.0000
     28 H9        -4.5153    2.3665   13.1327 H         1 RES1    0.0000
     29 H10       -4.4783    1.9850   11.6073 H         1 RES1    0.0000
     30 C13       -5.2798    3.8474   11.9326 C.ar      1 RES1    0.0000
     31 C14       -5.8571    4.5363   12.9390 C.ar      1 RES1    0.0000
     32 H11       -5.6482    4.3074   13.8152 H         1 RES1    0.0000
     33 C15       -6.7118    5.5293   12.7241 C.ar      1 RES1    0.0000
     34 H12       -7.0534    6.0043   13.4475 H         1 RES1    0.0000
     35 C16       -7.0768    5.8464   11.5180 C.ar      1 RES1    0.0000
     36 H13       -7.6941    6.5299   11.3833 H         1 RES1    0.0000
     37 C17       -6.5484    5.1704   10.4375 C.ar      1 RES1    0.0000
     38 H14       -6.8100    5.3832    9.5703 H         1 RES1    0.0000
     39 C18       -5.6063    4.1526   10.6735 C.ar      1 RES1    0.0000
     40 H15       -5.2155    3.6980    9.9623 H         1 RES1    0.0000
     41 C19       -1.0527    2.2268   11.1215 C.3       1 RES1    0.0000
     42 H16       -0.5809    3.0833   11.1775 H         1 RES1    0.0000
     43 C20       -1.6969    2.1322    9.7701 C.3       1 RES1    0.0000
     44 H17       -2.1544    2.9629    9.5688 H         1 RES1    0.0000
     45 H18       -1.0157    1.9903    9.0936 H         1 RES1    0.0000
     46 C21       -3.2036    0.9146    8.4747 C.3       1 RES1    0.0000
     47 H19       -2.5223    0.6674    7.8300 H         1 RES1    0.0000
     48 H20       -3.5930    1.7571    8.1932 H         1 RES1    0.0000
     49 C22       -4.2612   -0.1386    8.5125 C.ar      1 RES1    0.0000
     50 C23       -5.5532    0.2042    8.8242 C.ar      1 RES1    0.0000
     51 H21       -5.7625    1.0940    8.9937 H         1 RES1    0.0000
     52 C24       -6.5556   -0.7641    8.8893 C.ar      1 RES1    0.0000
     53 H22       -7.4287   -0.5234    9.0997 H         1 RES1    0.0000
     54 C25       -6.2477   -2.0333    8.6442 C.ar      1 RES1    0.0000
     55 H23       -6.9153   -2.6803    8.6729 H         1 RES1    0.0000
     56 C26       -4.9800   -2.3955    8.3551 C.ar      1 RES1    0.0000
     57 H24       -4.7734   -3.2907    8.2113 H         1 RES1    0.0000
     58 C27       -3.9851   -1.4326    8.2719 C.ar      1 RES1    0.0000
     59 H25       -3.1187   -1.6841    8.0464 H         1 RES1    0.0000
     60 O7        -0.0953    1.1800   11.2474 O.3       1 RES1    0.0000
     61 O8        -2.6200    1.0629    9.7433 O.3       1 RES1    0.0000
     62 C28        1.6658    0.1558   12.4351 C.3       1 RES1    0.0000
     63 H26        2.1518    0.1408   11.5952 H         1 RES1    0.0000
     64 H27        2.3070    0.2826   13.1509 H         1 RES1    0.0000
     65 C29        0.9490   -1.1618   12.6257 C.3       1 RES1    0.0000
     66 H28        0.3977   -1.3477   11.8494 H         1 RES1    0.0000
     67 H29        1.5993   -1.8764   12.7120 H         1 RES1    0.0000
     68 C30        0.0908   -1.1145   13.8500 C.3       1 RES1    0.0000
     69 H30       -0.3903   -1.9527   13.9393 H         1 RES1    0.0000
     70 H31        0.6531   -1.0081   14.6339 H         1 RES1    0.0000
@<TRIPOS>BOND
     1    1    2 1
     2    3    1 1
     3    4    3 1
     4    5    3 1
     5    6    3 1
     6    7    6 1
     7    8    6 1
     8    9   10 2
     9   10    8 1
    10   11   10 1
    11   12   11 ar
    12   13   12 1
    13   14   12 ar
    14   15   14 1
    15   16   14 ar
    16   17   16 ar
    17   18   17 1
    18   19   11 ar
    19   20   19 1
    20   21   16 1
    21   22   21 2
    22   23   21 2
    23   24    6 1
    24   25   24 1
    25   26   24 1
    26   27   26 1
    27   28   27 1
    28   29   27 1
    29   30   27 1
    30   31   30 ar
    31   32   31 1
    32   33   31 ar
    33   34   33 1
    34   35   33 ar
    35   36   35 1
    36   37   35 ar
    37   38   37 1
    38   39   30 ar
    39   40   39 1
    40   41   24 1
    41   42   41 1
    42   43   41 1
    43   44   43 1
    44   45   43 1
    45   46   47 1
    46   48   46 1
    47   49   46 1
    48   50   49 ar
    49   51   50 1
    50   52   50 ar
    51   53   52 1
    52   54   52 ar
    53   55   54 1
    54   56   54 ar
    55   57   56 1
    56   58   49 ar
    57   59   58 1
    58   60    1 1
    59   61   43 1
    60   62    1 1
    61   63   62 1
    62   64   62 1
    63   65   62 1
    64   66   65 1
    65   67   65 1
    66   68    5 1
    67   69   68 1
    68   70   68 1
    69   17   19 ar
    70   37   39 ar
    71   41   60 1
    72   46   61 1
    73   56   58 ar
    74   65   68 1
@<TRIPOS>SUBSTRUCTURE
     1 RES1 1

@<TRIPOS>CRYSIN
   8.5590   10.7470   15.5640  90.0000 103.5100  90.0000   4 1

