# MOL2 file generated by ConQuest
# Please check atom types

@<TRIPOS>MOLECULE
QEYZID
    43    47     1
SMALL
NO_CHARGES
****
Generated from CSD

@<TRIPOS>ATOM
      1 N1         1.1968    8.0107   19.5604 N.3       1 RES1    0.0000
      2 O1         1.1841    6.5682   19.6663 O.3       1 RES1    0.0000
      3 C1        -0.1635    6.1784   19.9762 C.3       1 RES1    0.0000
      4 H1        -0.0995    5.3127   20.4441 H         1 RES1    0.0000
      5 H2        -0.7238    6.1257   19.1190 H         1 RES1    0.0000
      6 C2        -0.7293    7.2585   20.8830 C.3       1 RES1    0.0000
      7 H3        -1.5913    7.4932   20.6010 H         1 RES1    0.0000
      8 C3        -0.6884    6.9314   22.3813 C.3       1 RES1    0.0000
      9 H4        -1.4863    7.0866   22.8608 H         1 RES1    0.0000
     10 H5        -0.4862    5.9779   22.5856 H         1 RES1    0.0000
     11 N2         0.3928    7.7583   22.8858 N.pl3     1 RES1    0.0000
     12 C4         1.0194    7.9026   24.0945 C.ar      1 RES1    0.0000
     13 C5         0.7437    7.3372   25.3409 C.ar      1 RES1    0.0000
     14 H6        -0.0055    6.8104   25.4119 H         1 RES1    0.0000
     15 C6         1.5603    7.6918   26.3866 C.ar      1 RES1    0.0000
     16 H7         1.3426    7.3268   27.3325 H         1 RES1    0.0000
     17 C7         2.6256    8.5732   26.2099 C.ar      1 RES1    0.0000
     18 H8         3.1880    8.8421   27.0252 H         1 RES1    0.0000
     19 C8         2.8952    9.1322   24.9897 C.ar      1 RES1    0.0000
     20 H9         3.6190    9.6552   24.8422 H         1 RES1    0.0000
     21 C9         2.0802    8.8197   23.8982 C.ar      1 RES1    0.0000
     22 C10        2.0305    9.2227   22.5260 C.2       1 RES1    0.0000
     23 H10        2.6300    9.8307   22.0542 H         1 RES1    0.0000
     24 C11        0.9923    8.5515   21.9515 C.2       1 RES1    0.0000
     25 C12        0.2868    8.4211   20.6471 C.3       1 RES1    0.0000
     26 H11       -0.1492    9.2320   20.2969 H         1 RES1    0.0000
     27 C13        0.7045    8.3940   18.2150 C.3       1 RES1    0.0000
     28 H12       -0.2210    8.0660   18.0787 H         1 RES1    0.0000
     29 C14        1.6167    7.7657   17.1597 C.3       1 RES1    0.0000
     30 H13        1.5636    6.8279   17.1952 H         1 RES1    0.0000
     31 H14        2.5416    8.0383   17.2625 H         1 RES1    0.0000
     32 H15        1.2432    8.0568   16.3374 H         1 RES1    0.0000
     33 C15        0.7078    9.9065   18.1004 C.ar      1 RES1    0.0000
     34 C16        1.7515   10.6632   18.5950 C.ar      1 RES1    0.0000
     35 H16        2.5305   10.2373   19.1158 H         1 RES1    0.0000
     36 C17        1.7360   12.0482   18.4221 C.ar      1 RES1    0.0000
     37 H17        2.4421   12.5471   18.7701 H         1 RES1    0.0000
     38 C18        0.7011   12.6571   17.7685 C.ar      1 RES1    0.0000
     39 H18        0.7128   13.6096   17.5921 H         1 RES1    0.0000
     40 C19       -0.3171   11.9161   17.2535 C.ar      1 RES1    0.0000
     41 H19       -1.0553   12.3623   16.6895 H         1 RES1    0.0000
     42 C20       -0.3194   10.5394   17.4391 C.ar      1 RES1    0.0000
     43 H20       -1.0332   10.0155   17.1088 H         1 RES1    0.0000
@<TRIPOS>BOND
     1    1    2 1
     2    2    3 1
     3    3    4 1
     4    5    3 1
     5    6    3 1
     6    7    6 1
     7    8    6 1
     8    9    8 1
     9   10    8 1
    10   11    8 1
    11   12   11 1
    12   13   12 ar
    13   14   13 1
    14   15   13 ar
    15   16   15 1
    16   17   15 ar
    17   18   17 1
    18   19   17 ar
    19   20   19 1
    20   21   12 ar
    21   22   21 1
    22   23   22 1
    23   24   11 1
    24   25    1 1
    25   26   25 1
    26   27    1 1
    27   28   27 1
    28   29   27 1
    29   30   29 1
    30   31   29 1
    31   32   29 1
    32   33   27 1
    33   34   33 ar
    34   35   34 1
    35   36   34 ar
    36   37   36 1
    37   38   36 ar
    38   39   38 1
    39   40   38 ar
    40   41   40 1
    41   42   33 ar
    42   43   42 1
    43    6   25 1
    44   19   21 ar
    45   22   24 2
    46   24   25 1
    47   40   42 ar
@<TRIPOS>SUBSTRUCTURE
     1 RES1 1

@<TRIPOS>CRYSIN
   5.5252    9.2394   32.0090  90.0000  90.0000  90.0000  19 1

