# MOL2 file generated by ConQuest
# Please check atom types

@<TRIPOS>MOLECULE
QEZDOO
    55    58     1
SMALL
NO_CHARGES
****
Generated from CSD

@<TRIPOS>ATOM
      1 N1         1.9272    4.4454    4.3391 N.2       1 RES1    0.0000
      2 O1         0.9487    3.7451    5.1322 O.3       1 RES1    0.0000
      3 N2         3.7109    5.6961    2.8299 N.3       1 RES1    0.0000
      4 O2         6.0274    4.5846    1.5510 O.3       1 RES1    0.0000
      5 C1        -0.4912    6.1756    3.0261 C.3       1 RES1    0.0000
      6 H1        -0.5356    6.8797    3.7054 H         1 RES1    0.0000
      7 C2         0.7387    6.4565    2.1407 C.3       1 RES1    0.0000
      8 H2         1.1330    5.6088    1.8836 H         1 RES1    0.0000
      9 H3         0.4403    6.8981    1.3300 H         1 RES1    0.0000
     10 C3         1.8215    7.3213    2.7961 C.3       1 RES1    0.0000
     11 H4         1.3876    7.9913    3.3462 H         1 RES1    0.0000
     12 H5         2.3052    7.7882    2.0960 H         1 RES1    0.0000
     13 C4         2.8496    6.5571    3.6741 C.3       1 RES1    0.0000
     14 C5         1.9885    5.6929    4.5894 C.2       1 RES1    0.0000
     15 C6         1.2202    6.3844    5.6861 C.3       1 RES1    0.0000
     16 H6         1.0301    7.2947    5.4101 H         1 RES1    0.0000
     17 H7         1.7757    6.4268    6.4800 H         1 RES1    0.0000
     18 C7        -0.1024    5.6866    6.0409 C.3       1 RES1    0.0000
     19 H8        -0.0881    5.4184    6.9731 H         1 RES1    0.0000
     20 H9        -0.8392    6.3047    5.9173 H         1 RES1    0.0000
     21 C8        -0.3112    4.4676    5.1663 C.3       1 RES1    0.0000
     22 C9        -0.7601    4.8174    3.7352 C.3       1 RES1    0.0000
     23 H10       -0.4684    4.0968    3.1376 H         1 RES1    0.0000
     24 C10       -2.2640    5.0711    3.4891 C.3       1 RES1    0.0000
     25 H11       -2.7455    4.2879    3.1788 H         1 RES1    0.0000
     26 H12       -2.7186    5.4817    4.2423 H         1 RES1    0.0000
     27 C11       -1.9053    6.0643    2.3645 C.3       1 RES1    0.0000
     28 C12        3.6559    7.5649    4.5064 C.3       1 RES1    0.0000
     29 H13        4.2891    7.0942    5.0547 H         1 RES1    0.0000
     30 H14        3.0604    8.0678    5.0663 H         1 RES1    0.0000
     31 H15        4.1253    8.1627    3.9191 H         1 RES1    0.0000
     32 C13       -1.2491    3.4642    5.8105 C.3       1 RES1    0.0000
     33 H16       -0.9457    3.2675    6.7001 H         1 RES1    0.0000
     34 H17       -1.2603    2.6576    5.2903 H         1 RES1    0.0000
     35 H18       -2.1343    3.8330    5.8491 H         1 RES1    0.0000
     36 C14       -1.8949    5.3792    0.9965 C.3       1 RES1    0.0000
     37 H19       -2.7900    5.3399    0.6515 H         1 RES1    0.0000
     38 H20       -1.5470    4.4884    1.0866 H         1 RES1    0.0000
     39 H21       -1.3412    5.8789    0.3927 H         1 RES1    0.0000
     40 C15       -2.7024    7.3542    2.3059 C.3       1 RES1    0.0000
     41 H22       -3.5525    7.1866    1.8913 H         1 RES1    0.0000
     42 H23       -2.2201    8.0064    1.7948 H         1 RES1    0.0000
     43 H24       -2.8419    7.6851    3.1969 H         1 RES1    0.0000
     44 C16        4.3155    6.3085    1.6477 C.3       1 RES1    0.0000
     45 H25        4.9479    6.9911    1.9209 H         1 RES1    0.0000
     46 H26        3.6258    6.7317    1.1124 H         1 RES1    0.0000
     47 C17        5.0198    5.2685    0.8304 C.3       1 RES1    0.0000
     48 H27        4.3693    4.6238    0.5111 H         1 RES1    0.0000
     49 H28        5.4198    5.6936    0.0566 H         1 RES1    0.0000
     50 C18        5.4433    3.9811    2.6793 C.3       1 RES1    0.0000
     51 H29        6.1289    3.5193    3.1878 H         1 RES1    0.0000
     52 H30        4.7907    3.3238    2.3909 H         1 RES1    0.0000
     53 C19        4.7653    5.0040    3.5679 C.3       1 RES1    0.0000
     54 H31        4.3825    4.5612    4.3414 H         1 RES1    0.0000
     55 H32        5.4191    5.6480    3.8818 H         1 RES1    0.0000
@<TRIPOS>BOND
     1    1    2 1
     2    2   21 1
     3    3   13 1
     4    4   47 1
     5    5    6 1
     6    7    5 1
     7    8    7 1
     8    9    7 1
     9   10    7 1
    10   11   10 1
    11   12   10 1
    12   13   10 1
    13   14    1 2
    14   15   14 1
    15   16   15 1
    16   17   15 1
    17   18   15 1
    18   19   18 1
    19   20   18 1
    20   21   18 1
    21   22    5 1
    22   23   22 1
    23   24   22 1
    24   25   24 1
    25   26   24 1
    26   27    5 1
    27   28   13 1
    28   29   28 1
    29   30   28 1
    30   31   28 1
    31   32   21 1
    32   33   32 1
    33   34   32 1
    34   35   32 1
    35   36   27 1
    36   37   36 1
    37   38   36 1
    38   39   36 1
    39   40   27 1
    40   41   40 1
    41   42   40 1
    42   43   40 1
    43   44    3 1
    44   45   44 1
    45   46   44 1
    46   47   44 1
    47   48   47 1
    48   49   47 1
    49   50    4 1
    50   51   50 1
    51   52   50 1
    52   53    3 1
    53   54   53 1
    54   55   53 1
    55   13   14 1
    56   21   22 1
    57   24   27 1
    58   50   53 1
@<TRIPOS>SUBSTRUCTURE
     1 RES1 1

@<TRIPOS>CRYSIN
  11.4290    6.3262   13.8680  90.0000 111.8140  90.0000   4 1

