# MOL2 file generated by ConQuest
# Please check atom types

@<TRIPOS>MOLECULE
QEZLOY
    71    73     1
SMALL
NO_CHARGES
****
Generated from CSD

@<TRIPOS>ATOM
      1 O1         6.6223   13.3358    1.6980 O.2       1 RES1    0.0000
      2 N1         5.0736   11.7210    1.8593 N.am      1 RES1    0.0000
      3 H1         4.6124   11.0360    1.4438 H         1 RES1    0.0000
      4 C1        10.1808   11.7048   -5.8702 C.3       1 RES1    0.0000
      5 H2        10.9869   11.5795   -6.3939 H         1 RES1    0.0000
      6 H3         9.9926   12.6536   -5.7873 H         1 RES1    0.0000
      7 H4         9.4369   11.2644   -6.3090 H         1 RES1    0.0000
      8 N2         2.2720   10.7228    5.2621 N.3       1 RES1    0.0000
      9 O2         1.1100   10.6728    5.7517 O.2       1 RES1    0.0000
     10 C2        11.5905   11.7121   -3.8096 C.3       1 RES1    0.0000
     11 H5        11.7130   11.3087   -2.9361 H         1 RES1    0.0000
     12 H6        11.4584   12.6665   -3.7085 H         1 RES1    0.0000
     13 H7        12.3768   11.5482   -4.3536 H         1 RES1    0.0000
     14 O3        10.3840    7.7143   -1.0521 O.3       1 RES1    0.0000
     15 N3         9.6757    9.5261   -2.0666 N.am      1 RES1    0.0000
     16 H8         9.4780    8.9117   -2.7116 H         1 RES1    0.0000
     17 C3        10.3785   11.1023   -4.4794 C.3       1 RES1    0.0000
     18 H9        10.5366   10.1314   -4.5821 H         1 RES1    0.0000
     19 O4        10.3724    9.6860    0.0817 O.2       1 RES1    0.0000
     20 C4         9.1098   11.2958   -3.6655 C.3       1 RES1    0.0000
     21 H10        8.3926   10.7817   -4.0927 H         1 RES1    0.0000
     22 H11        8.8580   12.2409   -3.7126 H         1 RES1    0.0000
     23 C5         9.1707   10.8921   -2.1946 C.3       1 RES1    0.0000
     24 H12        9.7900   11.5039   -1.7228 H         1 RES1    0.0000
     25 C6         7.8130   11.0216   -1.5829 C.2       1 RES1    0.0000
     26 H13        7.1903   10.3451   -1.7774 H         1 RES1    0.0000
     27 C7         7.4099   11.9975   -0.7943 C.2       1 RES1    0.0000
     28 H14        8.0484   12.6315   -0.5237 H         1 RES1    0.0000
     29 C8         6.0091   12.1672   -0.3005 C.3       1 RES1    0.0000
     30 H15        5.5034   11.3473   -0.4833 H         1 RES1    0.0000
     31 H16        5.5828   12.9005   -0.7927 H         1 RES1    0.0000
     32 C9         5.9489   12.4644    1.1759 C.2       1 RES1    0.0000
     33 C10        4.7718   11.9332    3.2829 C.3       1 RES1    0.0000
     34 H17        5.4541   12.5523    3.6479 H         1 RES1    0.0000
     35 C11        3.4182   12.5836    3.4618 C.3       1 RES1    0.0000
     36 H18        3.3614   13.4071    2.9159 H         1 RES1    0.0000
     37 C12        3.2027   12.9171    4.9400 C.3       1 RES1    0.0000
     38 H19        3.8911   13.5472    5.2372 H         1 RES1    0.0000
     39 H20        2.3281   13.3427    5.0573 H         1 RES1    0.0000
     40 C13        3.2697   11.6679    5.7755 C.3       1 RES1    0.0000
     41 C14        4.8252   10.6675    4.0887 C.3       1 RES1    0.0000
     42 H21        5.7121   10.2437    3.9714 H         1 RES1    0.0000
     43 C15        4.6144   10.9954    5.5668 C.3       1 RES1    0.0000
     44 H22        4.6548   10.1719    6.0946 H         1 RES1    0.0000
     45 H23        5.3289   11.5905    5.8762 H         1 RES1    0.0000
     46 C16        3.7885    9.7371    3.6560 C.3       1 RES1    0.0000
     47 H24        3.8596    8.9043    4.1675 H         1 RES1    0.0000
     48 H25        3.9123    9.5234    2.7076 H         1 RES1    0.0000
     49 C17        2.4595   10.3267    3.8582 C.3       1 RES1    0.0000
     50 H26        1.7587    9.6818    3.5912 H         1 RES1    0.0000
     51 C18        2.3301   11.5998    3.0412 C.3       1 RES1    0.0000
     52 H27        2.4205   11.3916    2.0868 H         1 RES1    0.0000
     53 H28        1.4467   11.9977    3.1868 H         1 RES1    0.0000
     54 C19        2.9707   11.9259    7.2533 C.3       1 RES1    0.0000
     55 H29        2.1036   12.3533    7.3362 H         1 RES1    0.0000
     56 H30        3.6543   12.5044    7.6253 H         1 RES1    0.0000
     57 H31        2.9631   11.0839    7.7325 H         1 RES1    0.0000
     58 C20       10.1589    9.0379   -0.9227 C.2       1 RES1    0.0000
     59 C21       10.7166    6.8806    0.0876 C.3       1 RES1    0.0000
     60 C22       12.0647    7.2720    0.6471 C.3       1 RES1    0.0000
     61 H32       12.7333    7.2204   -0.0546 H         1 RES1    0.0000
     62 H33       12.3036    6.6695    1.3669 H         1 RES1    0.0000
     63 H34       12.0230    8.1803    0.9848 H         1 RES1    0.0000
     64 C23        9.6183    6.9514    1.1324 C.3       1 RES1    0.0000
     65 H35        9.5943    7.8431    1.5166 H         1 RES1    0.0000
     66 H36        9.7941    6.3029    1.8320 H         1 RES1    0.0000
     67 H37        8.7635    6.7561    0.7178 H         1 RES1    0.0000
     68 C24       10.7789    5.4940   -0.5379 C.3       1 RES1    0.0000
     69 H38       11.4796    5.4738   -1.2072 H         1 RES1    0.0000
     70 H39        9.9269    5.2895   -0.9544 H         1 RES1    0.0000
     71 H40       10.9691    4.8381    0.1517 H         1 RES1    0.0000
@<TRIPOS>BOND
     1    1   32 2
     2    2    3 1
     3    4    5 1
     4    6    4 1
     5    7    4 1
     6    8    9 1
     7   10   11 1
     8   12   10 1
     9   13   10 1
    10   14   58 1
    11   15   16 1
    12   17    4 1
    13   18   17 1
    14   19   58 2
    15   20   17 1
    16   21   20 1
    17   22   20 1
    18   23   15 1
    19   24   23 1
    20   25   23 1
    21   26   25 1
    22   27   25 2
    23   28   27 1
    24   29   27 1
    25   30   29 1
    26   31   29 1
    27   32    2 1
    28   33    2 1
    29   34   33 1
    30   35   33 1
    31   36   35 1
    32   37   35 1
    33   38   37 1
    34   39   37 1
    35   40    8 1
    36   41   33 1
    37   42   41 1
    38   43   40 1
    39   44   43 1
    40   45   43 1
    41   46   41 1
    42   47   46 1
    43   48   46 1
    44   49    8 1
    45   50   49 1
    46   51   35 1
    47   52   51 1
    48   53   51 1
    49   54   40 1
    50   55   54 1
    51   56   54 1
    52   57   54 1
    53   58   15 1
    54   59   14 1
    55   60   59 1
    56   61   60 1
    57   62   60 1
    58   63   60 1
    59   64   59 1
    60   65   64 1
    61   66   64 1
    62   67   64 1
    63   68   59 1
    64   69   68 1
    65   70   68 1
    66   71   68 1
    67   10   17 1
    68   20   23 1
    69   29   32 1
    70   37   40 1
    71   41   43 1
    72   46   49 1
    73   49   51 1
@<TRIPOS>SUBSTRUCTURE
     1 RES1 1

@<TRIPOS>CRYSIN
   6.8433   18.4240   20.2210  90.0000  90.0000  90.0000  19 1

