# MOL2 file generated by ConQuest
# Please check atom types

@<TRIPOS>MOLECULE
QIBFUE
   214   216     3
SMALL
USER_CHARGES
****
Generated from CSD

@<TRIPOS>ATOM
      1 C1        12.9014    0.8907    7.1573 C.3       1 RES1    0.0000
      2 H1        12.0344    0.4694    7.3292 H         1 RES1    0.0000
      3 H2        13.4809    0.2614    6.6762 H         1 RES1    0.0000
      4 H3        12.7712    1.6947    6.6124 H         1 RES1    0.0000
      5 O1        13.5116    1.2504    8.3950 O.3       1 RES1    0.0000
      6 C2        12.8841    2.1976    9.1605 C.ar      1 RES1    0.0000
      7 C3        11.7142    2.7767    8.8682 C.ar      1 RES1    0.0000
      8 H4        11.2532    2.5488    8.0685 H         1 RES1    0.0000
      9 C4        11.1793    3.7145    9.7445 C.ar      1 RES1    0.0000
     10 H5        10.3399    4.1055    9.5283 H         1 RES1    0.0000
     11 C5        11.7951    4.1076   10.9044 C.ar      1 RES1    0.0000
     12 C6        12.9858    3.5002   11.1457 C.ar      1 RES1    0.0000
     13 H6        13.4613    3.7312   11.9376 H         1 RES1    0.0000
     14 C7        13.5377    2.5572   10.2901 C.ar      1 RES1    0.0000
     15 H7        14.3766    2.1620   10.5003 H         1 RES1    0.0000
     16 C8        11.1975    5.1050   11.8374 C.ar      1 RES1    0.0000
     17 C9        11.1578    6.4432   11.5537 C.ar      1 RES1    0.0000
     18 O2        11.6332    6.8833   10.3164 O.3       1 RES1    0.0000
     19 C10       12.8775    7.5074   10.3126 C.2       1 RES1    0.0000
     20 C11       13.1962    7.9225    8.9072 C.3       1 RES1    0.0000
     21 H8        13.5663    8.8300    8.9128 H         1 RES1    0.0000
     22 H9        12.3779    7.9068    8.3687 H         1 RES1    0.0000
     23 H10       13.8518    7.3036    8.5226 H         1 RES1    0.0000
     24 O3        13.5127    7.6789   11.3067 O.2       1 RES1    0.0000
     25 C12       10.5735    7.3538   12.4168 C.ar      1 RES1    0.0000
     26 O4        10.6579    8.7244   12.0738 O.3       1 RES1    0.0000
     27 C13        9.6908    9.1750   11.2118 C.2       1 RES1    0.0000
     28 O5         8.7074    8.5059   10.9784 O.2       1 RES1    0.0000
     29 C14        9.9868   10.5372   10.6932 C.3       1 RES1    0.0000
     30 H11       10.3363   10.4703    9.7797 H         1 RES1    0.0000
     31 H12       10.6539   10.9679   11.2658 H         1 RES1    0.0000
     32 H13        9.1647   11.0704   10.6879 H         1 RES1    0.0000
     33 C15       10.6241    4.7234   13.0308 C.ar      1 RES1    0.0000
     34 O6        10.6897    3.3779   13.4590 O.3       1 RES1    0.0000
     35 C16        9.6168    2.5969   13.1906 C.2       1 RES1    0.0000
     36 O7         8.7495    2.9482   12.4303 O.2       1 RES1    0.0000
     37 C17        9.6907    1.2922   13.9539 C.3       1 RES1    0.0000
     38 H14        9.0939    0.6356   13.5363 H         1 RES1    0.0000
     39 H15        9.4135    1.4417   14.8835 H         1 RES1    0.0000
     40 H16       10.6099    0.9556   13.9378 H         1 RES1    0.0000
     41 C18       10.0061    5.6256   13.8601 C.ar      1 RES1    0.0000
     42 O8         9.3115    5.1165   14.9965 O.3       1 RES1    0.0000
     43 C19       10.0775    4.7558   16.0356 C.2       1 RES1    0.0000
     44 O9        11.2488    4.9827   16.1084 O.2       1 RES1    0.0000
     45 C20        9.2228    3.9926   17.0492 C.3       1 RES1    0.0000
     46 H17        9.7508    3.8201   17.8557 H         1 RES1    0.0000
     47 H18        8.9349    3.1406   16.6586 H         1 RES1    0.0000
     48 H19        8.4354    4.5279   17.2815 H         1 RES1    0.0000
     49 C21        9.9760    6.9690   13.5967 C.ar      1 RES1    0.0000
     50 C22        9.2884    7.9037   14.5338 C.ar      1 RES1    0.0000
     51 C23        9.9831    8.6825   15.4592 C.ar      1 RES1    0.0000
     52 H20       10.9326    8.6679   15.4577 H         1 RES1    0.0000
     53 C24        9.3146    9.4834   16.3842 C.ar      1 RES1    0.0000
     54 H21        9.7989    9.9946   17.0226 H         1 RES1    0.0000
     55 C25        7.9394    9.5189   16.3542 C.ar      1 RES1    0.0000
     56 C26        7.2466    8.7474   15.4517 C.ar      1 RES1    0.0000
     57 C27        7.8931    7.9465   14.5476 C.ar      1 RES1    0.0000
     58 H22        7.3937    7.4217   13.9341 H         1 RES1    0.0000
     59 O10        7.3116   10.2894   17.2950 O.3       1 RES1    0.0000
     60 N1         5.9407   10.4943   17.0920 N.4       1 RES1    1.0000
     61 O11        5.3928   11.0076   18.2730 O.3       1 RES1    0.0000
     62 C28        6.0314   12.1671   18.8243 C.3       1 RES1    0.0000
     63 H23        6.9826   11.9789   18.9665 H         1 RES1    0.0000
     64 H24        5.6104   12.3960   19.6796 H         1 RES1    0.0000
     65 H25        5.9374   12.9187   18.2010 H         1 RES1    0.0000
     66 C29        5.2259    9.2095   16.6616 C.3       1 RES1    0.0000
     67 C30        5.3395    8.1201   17.7942 C.3       1 RES1    0.0000
     68 H26        6.2596    8.2027   18.1784 H         1 RES1    0.0000
     69 C31        4.3657    8.3616   18.9455 C.3       1 RES1    0.0000
     70 H27        3.4465    8.3428   18.6063 H         1 RES1    0.0000
     71 H28        4.5478    9.2366   19.3493 H         1 RES1    0.0000
     72 H29        4.4786    7.6611   19.6233 H         1 RES1    0.0000
     73 C32        5.2146    6.6732   17.2598 C.3       1 RES1    0.0000
     74 H30        4.2600    6.4609   17.1089 H         1 RES1    0.0000
     75 H31        5.6853    6.6031   16.3921 H         1 RES1    0.0000
     76 C33        5.8059    5.6664   18.2385 C.3       1 RES1    0.0000
     77 H32        6.7482    5.8807   18.3961 H         1 RES1    0.0000
     78 H33        5.7354    4.7652   17.8595 H         1 RES1    0.0000
     79 H34        5.3143    5.7051   19.0829 H         1 RES1    0.0000
     80 O12        5.8587    8.7798   15.4333 O.3       1 RES1    0.0000
     81 C34        5.7578   11.5534   16.0195 C.2       1 RES1    0.0000
     82 O13        6.7477   12.3584   15.8540 O.2       1 RES1   -1.0000
     83 C35        4.6470   11.6757   15.3954 C.2       1 RES1    0.0000
     84 C36        4.3618   12.7766   14.3960 C.3       1 RES1    0.0000
     85 H35        3.4852   12.5821   13.9566 H         1 RES1    0.0000
     86 C37        4.2577   14.1806   15.1012 C.3       1 RES1    0.0000
     87 H36        3.6334   14.1231   15.8555 H         1 RES1    0.0000
     88 H37        3.9332   14.8466   14.4594 H         1 RES1    0.0000
     89 H38        5.1422   14.4483   15.4277 H         1 RES1    0.0000
     90 C38        5.4417   12.8571   13.3040 C.3       1 RES1    0.0000
     91 H39        5.1345   13.4749   12.5943 H         1 RES1    0.0000
     92 H40        6.2669   13.2355   13.6976 H         1 RES1    0.0000
     93 C39        5.7684   11.5157   12.6769 C.3       1 RES1    0.0000
     94 H41        6.2749   10.9711   13.3148 H         1 RES1    0.0000
     95 H42        6.3039   11.6548   11.8700 H         1 RES1    0.0000
     96 H43        4.9363   11.0536   12.4405 H         1 RES1    0.0000
     97 N2         3.5497   10.6543   15.6438 N.pl3     1 RES1    1.0000
     98 O14        2.4055   10.8550   15.1759 O.2       1 RES1   -1.0000
     99 C40        3.8847    9.5388   16.3396 C.2       1 RES1    0.0000
    100 O15        2.9696    8.4567   16.2165 O.3       1 RES1    0.0000
    101 C41        2.9528    7.8263   14.8828 C.3       1 RES1    0.0000
    102 H44        2.7002    8.4923   14.2080 H         1 RES1    0.0000
    103 H45        2.3030    7.0934   14.8760 H         1 RES1    0.0000
    104 H46        3.8432    7.4750   14.6771 H         1 RES1    0.0000
    105 C42        5.9655   16.5339   11.4452 C.3       2 RES2    0.0000
    106 H47        5.9472   15.7101   11.9751 H         2 RES2    0.0000
    107 H48        5.4315   17.2229   11.8925 H         2 RES2    0.0000
    108 H49        6.8909   16.8445   11.3559 H         2 RES2    0.0000
    109 O16        5.4215   16.2757   10.1464 O.3       2 RES2    0.0000
    110 C43        5.9910   15.2606    9.4120 C.ar      2 RES2    0.0000
    111 C44        7.0203   14.4514    9.8454 C.ar      2 RES2    0.0000
    112 H50        7.3756   14.5423   10.7217 H         2 RES2    0.0000
    113 C45        7.5211   13.5053    8.9729 C.ar      2 RES2    0.0000
    114 H51        8.2565   12.9752    9.2581 H         2 RES2    0.0000
    115 C46        7.0131   13.2888    7.7157 C.ar      2 RES2    0.0000
    116 C47        5.9561   14.0897    7.3067 C.ar      2 RES2    0.0000
    117 H52        5.5625   13.9579    6.4548 H         2 RES2    0.0000
    118 C48        5.4754   15.0787    8.1473 C.ar      2 RES2    0.0000
    119 H53        4.7730   15.6432    7.8471 H         2 RES2    0.0000
    120 C49        7.6156   12.2852    6.8068 C.ar      2 RES2    0.0000
    121 C50        7.7033   10.9481    7.1614 C.ar      2 RES2    0.0000
    122 O17        7.2459   10.5215    8.4197 O.3       2 RES2    0.0000
    123 C51        6.0379    9.8535    8.4625 C.2       2 RES2    0.0000
    124 O18        5.3927    9.6946    7.4519 O.2       2 RES2    0.0000
    125 C52        5.7111    9.3997    9.8210 C.3       2 RES2    0.0000
    126 H54        5.0662   10.0166   10.2263 H         2 RES2    0.0000
    127 H55        6.5268    9.3778   10.3652 H         2 RES2    0.0000
    128 H56        5.3213    8.5006    9.7797 H         2 RES2    0.0000
    129 C53        8.3058   10.0281    6.3174 C.ar      2 RES2    0.0000
    130 O19        8.2819    8.6637    6.7220 O.3       2 RES2    0.0000
    131 C54        9.2847    8.2612    7.5754 C.2       2 RES2    0.0000
    132 O20       10.2115    8.9784    7.8155 O.2       2 RES2    0.0000
    133 C55        9.0306    6.8645    8.0647 C.3       2 RES2    0.0000
    134 H57        9.6553    6.2477    7.6294 H         2 RES2    0.0000
    135 H58        8.1111    6.6042    7.8471 H         2 RES2    0.0000
    136 H59        9.1604    6.8289    9.0329 H         2 RES2    0.0000
    137 C56        8.1519   12.6187    5.5620 C.ar      2 RES2    0.0000
    138 O21        8.0404   13.9266    5.0636 O.3       2 RES2    0.0000
    139 C57        8.7945   14.8424    5.5241 C.2       2 RES2    0.0000
    140 O22        9.4707   14.6009    6.4022 O.2       2 RES2    0.0000
    141 C58        8.4600   16.1022    4.7585 C.3       2 RES2    0.0000
    142 H60        7.6505   16.5078    5.1300 H         2 RES2    0.0000
    143 H61        8.3086   15.8805    3.8166 H         2 RES2    0.0000
    144 H62        9.2053   16.7347    4.8261 H         2 RES2    0.0000
    145 C59        8.7670   11.6872    4.7398 C.ar      2 RES2    0.0000
    146 O23        9.2537   12.1085    3.5058 O.3       2 RES2    0.0000
    147 C60       10.5534   12.5967    3.4976 C.2       2 RES2    0.0000
    148 O24       11.2331   12.6103    4.4793 O.2       2 RES2    0.0000
    149 C61       10.9511   13.0139    2.1263 C.3       2 RES2    0.0000
    150 H63       10.3971   13.7698    1.8426 H         2 RES2    0.0000
    151 H64       10.8238   12.2643    1.5086 H         2 RES2    0.0000
    152 H65       11.8940   13.2805    2.1278 H         2 RES2    0.0000
    153 C62        8.8548   10.3720    5.0929 C.ar      2 RES2    0.0000
    154 C63        9.5368    9.3652    4.2249 C.ar      2 RES2    0.0000
    155 C64        8.8299    8.7035    3.2188 C.ar      2 RES2    0.0000
    156 H66        7.9014    8.8665    3.1035 H         2 RES2    0.0000
    157 C65        9.4859    7.8064    2.3890 C.ar      2 RES2    0.0000
    158 H67        9.0093    7.3349    1.7150 H         2 RES2    0.0000
    159 C66       10.8288    7.6099    2.5538 C.ar      2 RES2    0.0000
    160 C67       11.5371    8.2727    3.5133 C.ar      2 RES2    0.0000
    161 C68       10.9138    9.1697    4.3754 C.ar      2 RES2    0.0000
    162 H68       11.4068    9.6339    5.0437 H         2 RES2    0.0000
    163 O25       11.4764    6.6878    1.7345 O.3       2 RES2    0.0000
    164 N3        12.8671    6.8185    1.6280 N.4       2 RES2    1.0000
    165 O26       13.3983    5.7197    1.0042 O.3       2 RES2    0.0000
    166 C69       12.8460    5.4291   -0.3066 C.3       2 RES2    0.0000
    167 H69       11.8816    5.2775   -0.2289 H         2 RES2    0.0000
    168 H70       13.2747    4.6251   -0.6717 H         2 RES2    0.0000
    169 H71       13.0114    6.1860   -0.9044 H         2 RES2    0.0000
    170 C70       13.4709    6.9460    3.0915 C.3       2 RES2    0.0000
    171 C71       13.1880    5.7113    3.9505 C.3       2 RES2    0.0000
    172 H72       12.2582    5.4165    3.7303 H         2 RES2    0.0000
    173 C72       14.0998    4.5227    3.6665 C.3       2 RES2    0.0000
    174 H73       14.1432    4.3669    2.6982 H         2 RES2    0.0000
    175 H74       13.7437    3.7239    4.1093 H         2 RES2    0.0000
    176 H75       14.9987    4.7119    4.0080 H         2 RES2    0.0000
    177 C73       13.1955    6.0501    5.4761 C.3       2 RES2    0.0000
    178 H76       14.1257    6.2372    5.7568 H         2 RES2    0.0000
    179 H77       12.6658    6.8739    5.6217 H         2 RES2    0.0000
    180 C74       12.6422    4.9649    6.3347 C.3       2 RES2    0.0000
    181 H78       11.7030    4.8102    6.1020 H         2 RES2    0.0000
    182 H79       12.7059    5.2283    7.2766 H         2 RES2    0.0000
    183 H80       13.1536    4.1411    6.1921 H         2 RES2    0.0000
    184 O27       12.9141    8.1567    3.6533 O.3       2 RES2    0.0000
    185 C75       13.1626    8.1096    0.8887 C.2       2 RES2    0.0000
    186 O28       12.2220    8.5926    0.1978 O.2       2 RES2   -1.0000
    187 C76       14.3568    8.5665    0.9010 C.2       2 RES2    0.0000
    188 C77       14.7766    9.7625    0.0563 C.3       2 RES2    0.0000
    189 H81       15.7671    9.8618    0.1539 H         2 RES2    0.0000
    190 C78       14.4837    9.5764   -1.4336 C.3       2 RES2    0.0000
    191 H82       14.8297    8.7076   -1.7300 H         2 RES2    0.0000
    192 H83       14.9193   10.2905   -1.9439 H         2 RES2    0.0000
    193 H84       13.5164    9.6109   -1.5837 H         2 RES2    0.0000
    194 C79       14.1337   11.0672    0.5704 C.3       2 RES2    0.0000
    195 H85       13.1492   11.0097    0.4766 H         2 RES2    0.0000
    196 H86       14.4484   11.8294    0.0225 H         2 RES2    0.0000
    197 C80       14.5138   11.3119    2.0865 C.3       2 RES2    0.0000
    198 H87       14.0582   10.6501    2.6495 H         2 RES2    0.0000
    199 H88       14.2363   12.2131    2.3530 H         2 RES2    0.0000
    200 H89       15.4838   11.2230    2.1991 H         2 RES2    0.0000
    201 N4        15.3403    8.0082    1.9289 N.pl3     2 RES2    1.0000
    202 O29       16.5551    8.3490    1.7965 O.2       2 RES2   -1.0000
    203 C81       14.8769    7.2189    2.8938 C.2       2 RES2    0.0000
    204 O30       15.7401    7.0203    3.9532 O.3       2 RES2    0.0000
    205 C82       15.8699    8.2142    4.7927 C.3       2 RES2    0.0000
    206 H90       16.0921    8.9857    4.2294 H         2 RES2    0.0000
    207 H91       16.5812    8.0741    5.4528 H         2 RES2    0.0000
    208 H92       15.0227    8.3804    5.2576 H         2 RES2    0.0000
    209 C83        7.0889   14.5099    4.3645 Du        3 SUP3    0.0000
    210 O31        6.2325   13.8942    3.9779 Du        3 SUP3    0.0000
    211 C84        7.6389   15.9171    4.2594 Du        3 SUP3    0.0000
    212 H93        7.0671   16.4472    3.6627 Du        3 SUP3    0.0000
    213 H94        8.5476   15.8879    3.8991 Du        3 SUP3    0.0000
    214 H95        7.6518   16.3280    5.1488 Du        3 SUP3    0.0000
@<TRIPOS>BOND
     1    1    2 1
     2    3    1 1
     3    4    1 1
     4    5    1 1
     5    6    5 1
     6    7    6 ar
     7    8    7 1
     8    9    7 ar
     9   10    9 1
    10   11    9 ar
    11   12   11 ar
    12   13   12 1
    13   14    6 ar
    14   15   14 1
    15   16   11 1
    16   17   16 ar
    17   18   17 1
    18   19   18 1
    19   20   19 1
    20   21   20 1
    21   22   20 1
    22   23   20 1
    23   24   19 2
    24   25   17 ar
    25   26   25 1
    26   27   26 1
    27   28   27 2
    28   29   27 1
    29   30   29 1
    30   31   29 1
    31   32   29 1
    32   33   16 ar
    33   34   33 1
    34   35   34 1
    35   36   35 2
    36   37   35 1
    37   38   37 1
    38   39   37 1
    39   40   37 1
    40   41   33 ar
    41   42   41 1
    42   43   42 1
    43   44   43 2
    44   45   43 1
    45   46   45 1
    46   47   45 1
    47   48   45 1
    48   49   25 ar
    49   50   49 1
    50   51   50 ar
    51   52   51 1
    52   53   51 ar
    53   54   53 1
    54   55   53 ar
    55   56   55 ar
    56   57   50 ar
    57   58   57 1
    58   59   55 1
    59   60   59 1
    60   61   60 1
    61   62   61 1
    62   63   62 1
    63   64   62 1
    64   65   62 1
    65   66   60 1
    66   67   66 1
    67   68   67 1
    68   69   67 1
    69   70   69 1
    70   71   69 1
    71   72   69 1
    72   73   67 1
    73   74   73 1
    74   75   73 1
    75   76   73 1
    76   77   76 1
    77   78   76 1
    78   79   76 1
    79   80   56 1
    80   81   60 1
    81   82   81 1
    82   83   81 2
    83   84   83 1
    84   85   84 1
    85   86   84 1
    86   87   86 1
    87   88   86 1
    88   89   86 1
    89   90   84 1
    90   91   90 1
    91   92   90 1
    92   93   90 1
    93   94   93 1
    94   95   93 1
    95   96   93 1
    96   97   83 1
    97   98   97 1
    98   99   66 1
    99  100   99 1
   100  101  100 1
   101  102  101 1
   102  103  101 1
   103  104  101 1
   104  105  106 1
   105  107  105 1
   106  108  105 1
   107  109  105 1
   108  110  109 1
   109  111  110 ar
   110  112  111 1
   111  113  111 ar
   112  114  113 1
   113  115  113 ar
   114  116  115 ar
   115  117  116 1
   116  118  110 ar
   117  119  118 1
   118  120  115 1
   119  121  120 ar
   120  122  121 1
   121  123  122 1
   122  124  123 2
   123  125  123 1
   124  126  125 1
   125  127  125 1
   126  128  125 1
   127  129  121 ar
   128  130  129 1
   129  131  130 1
   130  132  131 2
   131  133  131 1
   132  134  133 1
   133  135  133 1
   134  136  133 1
   135  137  120 ar
   136  138  137 1
   137  139  138 1
   138  140  139 2
   139  141  139 1
   140  142  141 1
   141  143  141 1
   142  144  141 1
   143  145  137 ar
   144  146  145 1
   145  147  146 1
   146  148  147 2
   147  149  147 1
   148  150  149 1
   149  151  149 1
   150  152  149 1
   151  153  129 ar
   152  154  153 1
   153  155  154 ar
   154  156  155 1
   155  157  155 ar
   156  158  157 1
   157  159  157 ar
   158  160  159 ar
   159  161  154 ar
   160  162  161 1
   161  163  159 1
   162  164  163 1
   163  165  164 1
   164  166  165 1
   165  167  166 1
   166  168  166 1
   167  169  166 1
   168  170  164 1
   169  171  170 1
   170  172  171 1
   171  173  171 1
   172  174  173 1
   173  175  173 1
   174  176  173 1
   175  177  171 1
   176  178  177 1
   177  179  177 1
   178  180  177 1
   179  181  180 1
   180  182  180 1
   181  183  180 1
   182  184  160 1
   183  185  164 1
   184  186  185 1
   185  187  185 2
   186  188  187 1
   187  189  188 1
   188  190  188 1
   189  191  190 1
   190  192  190 1
   191  193  190 1
   192  194  188 1
   193  195  194 1
   194  196  194 1
   195  197  194 1
   196  198  197 1
   197  199  197 1
   198  200  197 1
   199  201  187 1
   200  202  201 1
   201  203  170 1
   202  204  203 1
   203  205  204 1
   204  206  205 1
   205  207  205 1
   206  208  205 1
   207   12   14 ar
   208   41   49 ar
   209   56   57 ar
   210   66   80 1
   211   97   99 2
   212  116  118 ar
   213  145  153 ar
   214  160  161 ar
   215  170  184 1
   216  201  203 2
@<TRIPOS>SUBSTRUCTURE
     1 RES1 1
     2 RES2 105
     3 SUP3 209

@<TRIPOS>CRYSIN
  10.5602   10.4546   37.7085  90.0000  95.6120  90.0000   4 1

