# MOL2 file generated by ConQuest
# Please check atom types

@<TRIPOS>MOLECULE
QIBNAR
    61    68     1
SMALL
NO_CHARGES
****
Generated from CSD

@<TRIPOS>ATOM
      1 O1         2.1829   11.5951    1.0594 O.3       1 RES1    0.0000
      2 O2        -0.3452   13.8054   -0.4263 O.3       1 RES1    0.0000
      3 N1         1.8326   11.1265   -0.2289 N.2       1 RES1    0.0000
      4 N2         0.9354   14.3929   -0.3902 N.2       1 RES1    0.0000
      5 C1        -3.6731   12.8459    1.5479 C.3       1 RES1    0.0000
      6 H1        -3.3491   13.7294    1.2738 H         1 RES1    0.0000
      7 C2        -2.5870   11.8142    1.3409 C.2       1 RES1    0.0000
      8 C3        -3.0898   10.4283    1.6921 C.3       1 RES1    0.0000
      9 H2        -2.3921    9.7639    1.5149 H         1 RES1    0.0000
     10 C4        -3.4271   10.4478    3.1894 C.3       1 RES1    0.0000
     11 H3        -3.7337    9.5702    3.4679 H         1 RES1    0.0000
     12 H4        -2.6331   10.6686    3.7013 H         1 RES1    0.0000
     13 C5        -4.5178   11.4833    3.4569 C.3       1 RES1    0.0000
     14 H5        -4.7312   11.4928    4.4136 H         1 RES1    0.0000
     15 C6        -5.7728   11.1301    2.6598 C.3       1 RES1    0.0000
     16 H6        -6.4662   11.7850    2.8305 H         1 RES1    0.0000
     17 H7        -6.1017   10.2586    2.9351 H         1 RES1    0.0000
     18 C7        -5.4375   11.1075    1.1692 C.3       1 RES1    0.0000
     19 H8        -6.2414   10.8824    0.6551 H         1 RES1    0.0000
     20 C8        -4.9280   12.4805    0.7464 C.3       1 RES1    0.0000
     21 H9        -5.6168   13.1456    0.8984 H         1 RES1    0.0000
     22 H10       -4.7179   12.4730   -0.2015 H         1 RES1    0.0000
     23 C9        -4.0187   12.8586    3.0353 C.3       1 RES1    0.0000
     24 H11       -3.2334   13.0945    3.5527 H         1 RES1    0.0000
     25 H12       -4.7044   13.5229    3.2070 H         1 RES1    0.0000
     26 C10       -4.3549   10.0851    0.8940 C.3       1 RES1    0.0000
     27 H13       -4.1494   10.0750   -0.0539 H         1 RES1    0.0000
     28 H14       -4.6694    9.2022    1.1450 H         1 RES1    0.0000
     29 C11       -1.3256   12.0980    1.0334 C.2       1 RES1    0.0000
     30 C12       -0.1429   11.1514    1.0349 C.3       1 RES1    0.0000
     31 H15       -0.3621   10.3102    1.4862 H         1 RES1    0.0000
     32 C13        0.9692   11.8963    1.7637 C.3       1 RES1    0.0000
     33 H16        1.0285   11.6019    2.6962 H         1 RES1    0.0000
     34 C14        0.5927   13.4087    1.6861 C.3       1 RES1    0.0000
     35 H17        0.5358   13.8149    2.5762 H         1 RES1    0.0000
     36 C15       -0.7354   13.4740    0.9523 C.3       1 RES1    0.0000
     37 H18       -1.3318   14.1506    1.3354 H         1 RES1    0.0000
     38 C16        0.5735   10.8989   -0.2741 C.2       1 RES1    0.0000
     39 C17       -0.0266   10.3678   -1.5094 C.ar      1 RES1    0.0000
     40 C18       -1.3439    9.9609   -1.5523 C.ar      1 RES1    0.0000
     41 H19       -1.8738   10.0364   -0.7916 H         1 RES1    0.0000
     42 C19       -1.8870    9.4409   -2.7171 C.ar      1 RES1    0.0000
     43 H20       -2.7699    9.1497   -2.7303 H         1 RES1    0.0000
     44 C20       -1.1164    9.3562   -3.8554 C.ar      1 RES1    0.0000
     45 H21       -1.4840    9.0386   -4.6481 H         1 RES1    0.0000
     46 C21        0.1947    9.7436   -3.8081 C.ar      1 RES1    0.0000
     47 H22        0.7204    9.6719   -4.5721 H         1 RES1    0.0000
     48 C22        0.7432   10.2339   -2.6587 C.ar      1 RES1    0.0000
     49 H23        1.6394   10.4805   -2.6433 H         1 RES1    0.0000
     50 C23        1.4609   14.2112    0.7636 C.2       1 RES1    0.0000
     51 C24        2.7707   14.7867    1.0921 C.ar      1 RES1    0.0000
     52 C25        3.5380   15.4252    0.1343 C.ar      1 RES1    0.0000
     53 H24        3.2504   15.4368   -0.7497 H         1 RES1    0.0000
     54 C26        4.7200   16.0427    0.4701 C.ar      1 RES1    0.0000
     55 H25        5.2250   16.4677   -0.1850 H         1 RES1    0.0000
     56 C27        5.1503   16.0316    1.7692 C.ar      1 RES1    0.0000
     57 H26        5.9500   16.4492    1.9960 H         1 RES1    0.0000
     58 C28        4.4093   15.4087    2.7292 C.ar      1 RES1    0.0000
     59 H27        4.7041   15.4074    3.6110 H         1 RES1    0.0000
     60 C29        3.2267   14.7806    2.3989 C.ar      1 RES1    0.0000
     61 H28        2.7323   14.3503    3.0595 H         1 RES1    0.0000
@<TRIPOS>BOND
     1    1    3 1
     2    2    4 1
     3    3   38 2
     4    4   50 2
     5    5    6 1
     6    7    5 1
     7    8    7 1
     8    9    8 1
     9   10    8 1
    10   11   10 1
    11   12   10 1
    12   13   10 1
    13   14   13 1
    14   15   13 1
    15   16   15 1
    16   17   15 1
    17   18   15 1
    18   19   18 1
    19   20    5 1
    20   21   20 1
    21   22   20 1
    22   23    5 1
    23   24   23 1
    24   25   23 1
    25   26    8 1
    26   27   26 1
    27   28   26 1
    28   29    7 2
    29   30   29 1
    30   31   30 1
    31   32    1 1
    32   33   32 1
    33   34   32 1
    34   35   34 1
    35   36    2 1
    36   37   36 1
    37   38   30 1
    38   39   38 1
    39   40   39 ar
    40   41   40 1
    41   42   40 ar
    42   43   42 1
    43   44   42 ar
    44   45   44 1
    45   46   44 ar
    46   47   46 1
    47   48   39 ar
    48   49   48 1
    49   50   34 1
    50   51   50 1
    51   52   51 ar
    52   53   52 1
    53   54   52 ar
    54   55   54 1
    55   56   54 ar
    56   57   56 1
    57   58   56 ar
    58   59   58 1
    59   60   51 ar
    60   61   60 1
    61   13   23 1
    62   18   20 1
    63   18   26 1
    64   29   36 1
    65   30   32 1
    66   34   36 1
    67   46   48 ar
    68   58   60 ar
@<TRIPOS>SUBSTRUCTURE
     1 RES1 1

@<TRIPOS>CRYSIN
  11.3840   17.8940   11.0990  90.0000  97.2910  90.0000  14 1

