# MOL2 file generated by ConQuest
# Please check atom types

@<TRIPOS>MOLECULE
QIBVEF
    40    42     1
SMALL
NO_CHARGES
****
Generated from CSD

@<TRIPOS>ATOM
      1 O1         1.0629    4.9969    6.2620 O.2       1 RES1    0.0000
      2 O2        -0.0254    5.6508    3.7558 O.3       1 RES1    0.0000
      3 N1        -0.3667    6.2343    4.9812 N.am      1 RES1    0.0000
      4 C1        -0.6369    9.0814    3.9984 C.ar      1 RES1    0.0000
      5 H1         0.0735    9.0314    4.5970 H         1 RES1    0.0000
      6 C2        -0.6728   10.0946    3.0754 C.ar      1 RES1    0.0000
      7 H2         0.0119   10.7225    3.0518 H         1 RES1    0.0000
      8 C3        -1.7141   10.1874    2.1840 C.ar      1 RES1    0.0000
      9 H3        -1.7353   10.8744    1.5561 H         1 RES1    0.0000
     10 C4        -2.7165    9.2659    2.2260 C.ar      1 RES1    0.0000
     11 H4        -3.4264    9.3301    1.6302 H         1 RES1    0.0000
     12 C5        -2.6876    8.2343    3.1484 C.ar      1 RES1    0.0000
     13 H5        -3.3730    7.6064    3.1616 H         1 RES1    0.0000
     14 C6        -1.6391    8.1324    4.0530 C.ar      1 RES1    0.0000
     15 C7        -1.6107    7.0141    5.0602 C.3       1 RES1    0.0000
     16 H6        -2.3848    6.4270    4.9318 H         1 RES1    0.0000
     17 C8        -1.5268    7.4637    6.5343 C.3       1 RES1    0.0000
     18 H7        -1.0715    8.3169    6.6087 H         1 RES1    0.0000
     19 H8        -2.4131    7.5483    6.9188 H         1 RES1    0.0000
     20 C9        -0.7343    6.3658    7.2404 C.3       1 RES1    0.0000
     21 H9        -1.3725    5.6757    7.5171 H         1 RES1    0.0000
     22 C10        0.1248    5.7736    6.1429 C.2       1 RES1    0.0000
     23 C11        0.0394    6.7777    8.4584 C.3       1 RES1    0.0000
     24 H10        0.5963    6.0498    8.7439 H         1 RES1    0.0000
     25 H11       -0.5712    7.0091    9.1610 H         1 RES1    0.0000
     26 H12        0.5879    7.5371    8.2471 H         1 RES1    0.0000
     27 C12       -0.6715    4.3567    3.6260 C.3       1 RES1    0.0000
     28 H13       -1.6251    4.4433    3.7791 H         1 RES1    0.0000
     29 H14       -0.3099    3.7359    4.2786 H         1 RES1    0.0000
     30 C13       -0.4189    3.8552    2.2466 C.ar      1 RES1    0.0000
     31 C14        0.6954    3.0988    1.9659 C.ar      1 RES1    0.0000
     32 H15        1.3071    2.9092    2.6402 H         1 RES1    0.0000
     33 C15        0.9086    2.6238    0.6976 C.ar      1 RES1    0.0000
     34 H16        1.6616    2.1050    0.5242 H         1 RES1    0.0000
     35 C16        0.0439    2.8950   -0.3079 C.ar      1 RES1    0.0000
     36 H17        0.2024    2.5728   -1.1664 H         1 RES1    0.0000
     37 C17       -1.0529    3.6411   -0.0502 C.ar      1 RES1    0.0000
     38 H18       -1.6522    3.8328   -0.7355 H         1 RES1    0.0000
     39 C18       -1.2897    4.1212    1.2262 C.ar      1 RES1    0.0000
     40 H19       -2.0495    4.6309    1.3914 H         1 RES1    0.0000
@<TRIPOS>BOND
     1    1   22 2
     2    2    3 1
     3    3   15 1
     4    4    5 1
     5    6    4 ar
     6    7    6 1
     7    8    6 ar
     8    9    8 1
     9   10    8 ar
    10   11   10 1
    11   12   10 ar
    12   13   12 1
    13   14    4 ar
    14   15   14 1
    15   16   15 1
    16   17   15 1
    17   18   17 1
    18   19   17 1
    19   20   17 1
    20   21   20 1
    21   22    3 1
    22   23   20 1
    23   24   23 1
    24   25   23 1
    25   26   23 1
    26   27    2 1
    27   28   27 1
    28   29   27 1
    29   30   27 1
    30   31   30 ar
    31   32   31 1
    32   33   31 ar
    33   34   33 1
    34   35   33 ar
    35   36   35 1
    36   37   35 ar
    37   38   37 1
    38   39   30 ar
    39   40   39 1
    40   12   14 ar
    41   20   22 1
    42   37   39 ar
@<TRIPOS>SUBSTRUCTURE
     1 RES1 1

@<TRIPOS>CRYSIN
   5.4408   10.1935   27.4580  90.0000  91.7890  90.0000 231 1

