# MOL2 file generated by ConQuest
# Please check atom types

@<TRIPOS>MOLECULE
QICMUK
    84    90     2
SMALL
NO_CHARGES
****
Generated from CSD

@<TRIPOS>ATOM
      1 O1         2.0310    3.5563   12.7089 O.3       1 RES1    0.0000
      2 O2         1.1734    1.4203   12.4141 O.3       1 RES1    0.0000
      3 O3         0.6557    1.6311   14.6364 O.3       1 RES1    0.0000
      4 O4         0.2558    5.2378   14.2337 O.3       1 RES1    0.0000
      5 O5         4.3697    5.0034   13.4793 O.3       1 RES1    0.0000
      6 O6         1.2798    4.0974   18.2471 O.3       1 RES1    0.0000
      7 N1         1.8284    4.2091   16.9220 N.2       1 RES1    0.0000
      8 N2        -0.3790    3.7042   16.8364 N.2       1 RES1    0.0000
      9 C1         0.8509    2.7809   12.6202 C.3       1 RES1    0.0000
     10 C2         0.1898    2.8186   14.0055 C.3       1 RES1    0.0000
     11 C3         0.8583    4.0313   14.6776 C.3       1 RES1    0.0000
     12 C4         2.2828    3.9385   14.0943 C.3       1 RES1    0.0000
     13 C5         3.0637    5.2330   14.0721 C.3       1 RES1    0.0000
     14 C6         0.7944    3.9716   16.1739 C.2       1 RES1    0.0000
     15 C7        -0.0182    3.8143   18.0854 C.2       1 RES1    0.0000
     16 C8        -0.8247    3.6224   19.2964 C.ar      1 RES1    0.0000
     17 C9        -0.2801    3.8914   20.5486 C.ar      1 RES1    0.0000
     18 C10       -1.1202    3.7262   21.6771 C.ar      1 RES1    0.0000
     19 C11       -2.3959    3.2512   21.5377 C.ar      1 RES1    0.0000
     20 C12       -2.9244    3.0074   20.2855 C.ar      1 RES1    0.0000
     21 C13       -2.1394    3.1930   19.1506 C.ar      1 RES1    0.0000
     22 C14        0.8577    0.6370   13.6029 C.3       1 RES1    0.0000
     23 C15        2.0358   -0.2139   13.9706 C.3       1 RES1    0.0000
     24 C16       -0.4268   -0.1368   13.3683 C.3       1 RES1    0.0000
     25 O7        -5.3641    6.0714   26.3974 O.3       2 RES2    0.0000
     26 O8        -4.5347    3.9071   26.6288 O.3       2 RES2    0.0000
     27 O9        -3.7558    4.2311   24.5112 O.3       2 RES2    0.0000
     28 O10       -3.4926    7.8173   25.0343 O.3       2 RES2    0.0000
     29 O11       -7.5782    7.5971   25.6334 O.3       2 RES2    0.0000
     30 O12       -4.3267    6.3891   20.9544 O.3       2 RES2    0.0000
     31 N3        -4.9197    6.2995   22.2636 N.2       2 RES2    0.0000
     32 N4        -2.7224    6.8122   22.4158 N.2       2 RES2    0.0000
     33 C17       -4.1961    5.2834   26.5464 C.3       2 RES2    0.0000
     34 C18       -3.4111    5.4202   25.2372 C.3       2 RES2    0.0000
     35 C19       -4.0513    6.6235   24.5366 C.3       2 RES2    0.0000
     36 C20       -5.5149    6.5008   25.0153 C.3       2 RES2    0.0000
     37 C21       -6.2709    7.8047   25.0501 C.3       2 RES2    0.0000
     38 C22       -3.9073    6.5763   23.0403 C.2       2 RES2    0.0000
     39 C23       -3.0200    6.6833   21.1572 C.2       2 RES2    0.0000
     40 C24       -2.1987    6.8799   19.9780 C.ar      2 RES2    0.0000
     41 C25       -0.8711    7.3061   20.1460 C.ar      2 RES2    0.0000
     42 C26       -0.0841    7.5137   19.0333 C.ar      2 RES2    0.0000
     43 C27       -0.5702    7.2967   17.7494 C.ar      2 RES2    0.0000
     44 C28       -1.8715    6.8657   17.5909 C.ar      2 RES2    0.0000
     45 C29       -2.7177    6.6534   18.6909 C.ar      2 RES2    0.0000
     46 C30       -4.1025    3.1914   25.4305 C.3       2 RES2    0.0000
     47 C31       -2.9008    2.3279   25.7824 C.3       2 RES2    0.0000
     48 C32       -5.2584    2.4113   24.8694 C.3       2 RES2    0.0000
     49 H1         0.1683    3.1615   11.8562 H         1 RES1    0.0000
     50 H2        -0.9156    2.9099   13.9801 H         1 RES1    0.0000
     51 H3         2.8678    3.1773   14.6142 H         1 RES1    0.0000
     52 H4         3.1640    5.6467   15.0580 H         1 RES1    0.0000
     53 H5         2.5110    5.9613   13.4412 H         1 RES1    0.0000
     54 H6         0.7742    4.2154   20.6374 H         1 RES1    0.0000
     55 H7        -0.7203    3.9480   22.6979 H         1 RES1    0.0000
     56 H8        -3.0361    3.1143   22.4443 H         1 RES1    0.0000
     57 H9        -3.9786    2.6267   20.2252 H         1 RES1    0.0000
     58 H10       -2.5716    3.0357   18.1330 H         1 RES1    0.0000
     59 H11        2.2485   -1.0381   13.2827 H         1 RES1    0.0000
     60 H12        2.0465   -0.5977   14.9946 H         1 RES1    0.0000
     61 H13        2.7870    0.3775   13.9167 H         1 RES1    0.0000
     62 H14       -0.9694   -0.2989   14.2972 H         1 RES1    0.0000
     63 H15       -0.2222   -1.1325   12.9340 H         1 RES1    0.0000
     64 H16       -1.0502    0.4247   12.6487 H         1 RES1    0.0000
     65 H17       -0.6193    4.7659   13.9801 H         1 RES1    0.0000
     66 H18        4.1940    4.5929   12.6487 H         1 RES1    0.0000
     67 H19       -3.5949    5.6153   27.3897 H         2 RES2    0.0000
     68 H20       -2.3360    5.5523   25.3925 H         2 RES2    0.0000
     69 H21       -6.0588    5.7725   24.4098 H         2 RES2    0.0000
     70 H22       -6.3685    8.1948   24.0294 H         2 RES2    0.0000
     71 H23       -5.6953    8.5251   25.6461 H         2 RES2    0.0000
     72 H24       -0.4376    7.4398   21.1446 H         2 RES2    0.0000
     73 H25        0.9425    7.8488   19.1474 H         2 RES2    0.0000
     74 H26        0.0741    7.5027   16.8966 H         2 RES2    0.0000
     75 H27       -2.1744    6.6534   16.5479 H         2 RES2    0.0000
     76 H28       -3.7632    6.2759   18.5451 H         2 RES2    0.0000
     77 H29       -2.0802    2.9571   26.1533 H         2 RES2    0.0000
     78 H30       -2.5312    1.8088   24.8853 H         2 RES2    0.0000
     79 H31       -3.2246    1.6830   26.4703 H         2 RES2    0.0000
     80 H32       -5.5943    1.5886   25.4876 H         2 RES2    0.0000
     81 H33       -5.0894    2.0290   23.8392 H         2 RES2    0.0000
     82 H34       -6.0655    3.1458   24.7902 H         2 RES2    0.0000
     83 H35       -2.5851    7.8016   25.3291 H         2 RES2    0.0000
     84 H36       -7.3715    7.3926   26.5654 H         2 RES2    0.0000
@<TRIPOS>BOND
     1    1    9 1
     2    2    9 1
     3    3   10 1
     4    4   11 1
     5    5   13 1
     6    6    7 1
     7    7   14 2
     8    8   14 1
     9    9   10 1
    10   10   11 1
    11   11   12 1
    12   12    1 1
    13   13   12 1
    14   14   11 1
    15   15    6 1
    16   16   15 1
    17   17   16 ar
    18   18   17 ar
    19   19   18 ar
    20   20   19 ar
    21   21   16 ar
    22   22    2 1
    23   23   22 1
    24   24   22 1
    25   25   33 1
    26   26   33 1
    27   27   34 1
    28   28   35 1
    29   29   37 1
    30   30   31 1
    31   31   38 2
    32   32   38 1
    33   33   34 1
    34   34   35 1
    35   35   36 1
    36   36   25 1
    37   37   36 1
    38   38   35 1
    39   39   30 1
    40   40   39 1
    41   41   40 ar
    42   42   41 ar
    43   43   42 ar
    44   44   43 ar
    45   45   40 ar
    46   46   26 1
    47   47   46 1
    48   48   46 1
    49   49    9 1
    50   50   10 1
    51   51   12 1
    52   52   13 1
    53   53   13 1
    54   54   17 1
    55   55   18 1
    56   56   19 1
    57   57   20 1
    58   58   21 1
    59   59   23 1
    60   60   23 1
    61   61   23 1
    62   62   24 1
    63   63   24 1
    64   64   24 1
    65   65    4 1
    66   66    5 1
    67   67   33 1
    68   68   34 1
    69   69   36 1
    70   70   37 1
    71   71   37 1
    72   72   41 1
    73   73   42 1
    74   74   43 1
    75   75   44 1
    76   76   45 1
    77   77   47 1
    78   78   47 1
    79   79   47 1
    80   80   48 1
    81   81   48 1
    82   82   48 1
    83   83   28 1
    84   84   29 1
    85    3   22 1
    86    8   15 2
    87   20   21 ar
    88   27   46 1
    89   32   39 2
    90   44   45 ar
@<TRIPOS>SUBSTRUCTURE
     1 RES1 1
     2 RES2 25

@<TRIPOS>CRYSIN
   6.7320   15.7290   31.7010  90.0000  90.0000  90.0000  18 2

