# MOL2 file generated by ConQuest
# Please check atom types

@<TRIPOS>MOLECULE
QICMOE
    54    58     1
SMALL
NO_CHARGES
****
Generated from CSD

@<TRIPOS>ATOM
      1 O1         2.5428    8.8954    7.8926 O.3       1 RES1    0.0000
      2 O2         3.5704    7.8765    6.0570 O.3       1 RES1    0.0000
      3 O3         1.8611    6.3925    6.4141 O.3       1 RES1    0.0000
      4 O4        -0.2352    9.2175    7.2548 O.3       1 RES1    0.0000
      5 O5         2.3087    9.0144   10.6680 O.3       1 RES1    0.0000
      6 O6        -1.8123    5.5478    8.9525 O.3       1 RES1    0.0000
      7 O7         1.4524   10.7711   11.7781 O.2       1 RES1    0.0000
      8 N1        -0.8129    6.5427    9.1018 N.2       1 RES1    0.0000
      9 N2        -1.3278    6.2603    6.9124 N.2       1 RES1    0.0000
     10 C1         2.4615    8.6107    6.4871 C.3       1 RES1    0.0000
     11 C2         1.2638    7.6878    6.3183 C.3       1 RES1    0.0000
     12 C3         0.4151    7.9798    7.5534 C.3       1 RES1    0.0000
     13 C4         1.5099    8.1817    8.6116 C.3       1 RES1    0.0000
     14 C5         1.1327    9.0096    9.8192 C.3       1 RES1    0.0000
     15 C6         3.2604    6.4742    6.0522 C.3       1 RES1    0.0000
     16 C7        -0.5766    6.9080    7.8732 C.2       1 RES1    0.0000
     17 C8        -2.0475    5.4420    7.6249 C.2       1 RES1    0.0000
     18 C9        -2.9894    4.4195    7.1818 C.ar      1 RES1    0.0000
     19 C10       -3.3753    4.4063    5.8412 C.ar      1 RES1    0.0000
     20 C11       -4.2175    3.3945    5.3770 C.ar      1 RES1    0.0000
     21 C12       -4.6738    2.4200    6.2502 C.ar      1 RES1    0.0000
     22 C13       -4.2944    2.4368    7.5697 C.ar      1 RES1    0.0000
     23 C14       -3.4544    3.4366    8.0485 C.ar      1 RES1    0.0000
     24 C15        2.3488    9.9829   11.5980 C.2       1 RES1    0.0000
     25 C16        3.6235    9.9781   12.3624 C.ar      1 RES1    0.0000
     26 C17        4.0028   11.1520   13.0002 C.ar      1 RES1    0.0000
     27 C18        5.2060   11.1881   13.7208 C.ar      1 RES1    0.0000
     28 C19        5.9918   10.0466   13.8134 C.ar      1 RES1    0.0000
     29 C20        5.6048    8.8786   13.1999 C.ar      1 RES1    0.0000
     30 C21        4.4223    8.8426   12.4517 C.ar      1 RES1    0.0000
     31 C22        4.0581    5.7713    7.1152 C.3       1 RES1    0.0000
     32 C23        3.5053    5.9539    4.6791 C.3       1 RES1    0.0000
     33 H1         2.3195    9.5167    5.9077 H         1 RES1    0.0000
     34 H2         0.7371    7.8585    5.3884 H         1 RES1    0.0000
     35 H3         1.8751    7.2096    8.9427 H         1 RES1    0.0000
     36 H4         0.2927    8.5554   10.3547 H         1 RES1    0.0000
     37 H5         0.8671   10.0093    9.5270 H         1 RES1    0.0000
     38 H6        -3.0241    5.1909    5.1611 H         1 RES1    0.0000
     39 H7        -4.5199    3.3645    4.3334 H         1 RES1    0.0000
     40 H8        -5.3111    1.6101    5.8915 H         1 RES1    0.0000
     41 H9        -4.6499    1.6702    8.2448 H         1 RES1    0.0000
     42 H10       -3.1758    3.4486    9.0888 H         1 RES1    0.0000
     43 H11        3.3818   12.0280   12.9515 H         1 RES1    0.0000
     44 H12        5.5496   12.1121   14.1688 H         1 RES1    0.0000
     45 H13        6.9370   10.0694   14.3798 H         1 RES1    0.0000
     46 H14        6.2216    7.9786   13.2761 H         1 RES1    0.0000
     47 H15        4.1297    7.9185   11.9453 H         1 RES1    0.0000
     48 H16        5.1160    5.9840    7.0438 H         1 RES1    0.0000
     49 H17        3.9129    4.6983    7.0925 H         1 RES1    0.0000
     50 H18        3.6744    6.1642    8.0501 H         1 RES1    0.0000
     51 H19        4.5090    6.1642    4.3334 H         1 RES1    0.0000
     52 H20        2.8073    6.3805    3.9601 H         1 RES1    0.0000
     53 H21        3.3384    4.8905    4.7392 H         1 RES1    0.0000
     54 H22       -1.1706    9.2283    7.7093 H         1 RES1    0.0000
@<TRIPOS>BOND
     1    1   10 1
     2    2   10 1
     3    3   11 1
     4    4   12 1
     5    5   14 1
     6    6    8 1
     7    7   24 2
     8    8   16 2
     9    9   16 1
    10   10   11 1
    11   11   12 1
    12   12   13 1
    13   13    1 1
    14   14   13 1
    15   15    2 1
    16   16   12 1
    17   17    6 1
    18   18   17 1
    19   19   18 ar
    20   20   19 ar
    21   21   20 ar
    22   22   21 ar
    23   23   18 ar
    24   24    5 1
    25   25   24 1
    26   26   25 ar
    27   27   26 ar
    28   28   27 ar
    29   29   28 ar
    30   30   25 ar
    31   31   15 1
    32   32   15 1
    33   33   10 1
    34   34   11 1
    35   35   13 1
    36   36   14 1
    37   37   14 1
    38   38   19 1
    39   39   20 1
    40   40   21 1
    41   41   22 1
    42   42   23 1
    43   43   26 1
    44   44   27 1
    45   45   28 1
    46   46   29 1
    47   47   30 1
    48   48   31 1
    49   49   31 1
    50   50   31 1
    51   51   32 1
    52   52   32 1
    53   53   32 1
    54   54    4 1
    55    3   15 1
    56    9   17 2
    57   22   23 ar
    58   29   30 ar
@<TRIPOS>SUBSTRUCTURE
     1 RES1 1

@<TRIPOS>CRYSIN
  10.8390   12.0160   16.2300  90.0000  90.0000  90.0000  19 1

