# MOL2 file generated by ConQuest
# Please check atom types

@<TRIPOS>MOLECULE
QICVAZ01
    22    20     2
SMALL
NO_CHARGES
****
Generated from CSD

@<TRIPOS>ATOM
      1 C1         2.8763    0.9855   14.6925 C.2       1 RES1    0.0000
      2 C2         3.1843    0.3484   15.9448 C.1       1 RES1    0.0000
      3 C3         2.2064    2.3162   14.7005 C.2       1 RES1    0.0000
      4 N1         3.1259    0.4626   13.5564 N.2       1 RES1    0.0000
      5 N2         3.4251   -0.1593   16.9261 N.1       1 RES1    0.0000
      6 N3         2.0185    2.8823   13.5289 N.am      1 RES1    0.0000
      7 H1         2.2745    2.4983   12.6975 H         1 RES1    0.0000
      8 H2         1.5230    3.7523   13.5586 H         1 RES1    0.0000
      9 O1         3.6963   -0.7634   13.6359 O.3       1 RES1    0.0000
     10 H3         3.8900   -1.0413   12.7082 H         1 RES1    0.0000
     11 O2         1.8452    2.8213   15.7603 O.2       1 RES1    0.0000
     12 C4         3.7477    6.0501    9.2725 C.2       2 RES2    0.0000
     13 C5         3.1515    7.0819   10.0729 C.1       2 RES2    0.0000
     14 C6         4.3527    4.8615    9.9349 C.2       2 RES2    0.0000
     15 N4         3.8262    6.1294    7.9985 N.2       2 RES2    0.0000
     16 N5         2.6703    7.9272   10.6635 N.1       2 RES2    0.0000
     17 N6         4.8413    3.9363    9.1459 N.am      2 RES2    0.0000
     18 H4         4.7539    3.9972    8.1851 H         2 RES2    0.0000
     19 H5         5.2632    3.2046    9.4790 H         2 RES2    0.0000
     20 O3         3.3001    7.2596    7.4856 O.3       2 RES2    0.0000
     21 H6         3.4415    7.1428    6.4521 H         2 RES2    0.0000
     22 O4         4.3799    4.7974   11.1698 O.2       2 RES2    0.0000
@<TRIPOS>BOND
     1    1    2 1
     2    2    5 3
     3    3    1 1
     4    4    1 2
     5    6    3 1
     6    7    6 1
     7    8    6 1
     8    9    4 1
     9   10    9 1
    10   11    3 2
    11   12   13 1
    12   13   16 3
    13   14   12 1
    14   15   12 2
    15   17   14 1
    16   18   17 1
    17   19   17 1
    18   20   15 1
    19   21   20 1
    20   22   14 2
@<TRIPOS>SUBSTRUCTURE
     1 RES1 1
     2 RES2 12

@<TRIPOS>CRYSIN
   7.0010    6.3458   21.8040  90.0000  99.1190  90.0000  14 1

