# MOL2 file generated by ConQuest
# Please check atom types

@<TRIPOS>MOLECULE
QICVAZ
    22    20     2
SMALL
NO_CHARGES
****
Generated from CSD

@<TRIPOS>ATOM
      1 O1        -0.1505    5.5999    7.9219 O.3       1 RES1    0.0000
      2 N1         0.4221    6.8291    8.0040 N.2       1 RES1    0.0000
      3 C1         0.6763    7.3517    6.8609 C.2       1 RES1    0.0000
      4 C2         0.3628    6.7044    5.6011 C.1       1 RES1    0.0000
      5 N2         0.1127    6.2046    4.6200 N.1       1 RES1    0.0000
      6 C3         1.3492    8.6873    6.8436 C.2       1 RES1    0.0000
      7 O2         1.7034    9.1991    5.7912 O.2       1 RES1    0.0000
      8 N3         1.5330    9.2557    8.0321 N.am      1 RES1    0.0000
      9 O3         1.9753    8.6306    3.2889 O.3       2 RES2    0.0000
     10 N4         1.4523    9.7663    2.7746 N.2       2 RES2    0.0000
     11 C4         1.5261    9.8414    1.4997 C.2       2 RES2    0.0000
     12 C5         2.1312    8.8038    0.6872 C.1       2 RES2    0.0000
     13 N5         2.6167    7.9597    0.0994 N.1       2 RES2    0.0000
     14 C6         0.9304   11.0413    0.8255 C.2       2 RES2    0.0000
     15 O4         0.8947   11.0980   -0.4106 O.2       2 RES2    0.0000
     16 N6         0.4405   11.9656    1.6250 N.am      2 RES2    0.0000
     17 H1        -0.2804    5.3504    8.7495 H         1 RES1    0.0000
     18 H2         1.9781   10.0667    8.0731 H         1 RES1    0.0000
     19 H3         1.2800    8.8566    8.7733 H         1 RES1    0.0000
     20 H4         1.8842    8.7547    4.1641 H         2 RES2    0.0000
     21 H5         0.0471   12.6124    1.3138 H         2 RES2    0.0000
     22 H6         0.4701   11.9051    2.5045 H         2 RES2    0.0000
@<TRIPOS>BOND
     1    1    2 1
     2    2    3 2
     3    3    4 1
     4    4    5 3
     5    6    3 1
     6    7    6 2
     7    8    6 1
     8    9   10 1
     9   10   11 2
    10   11   12 1
    11   12   13 3
    12   14   11 1
    13   15   14 2
    14   16   14 1
    15   17    1 1
    16   18    8 1
    17   19    8 1
    18   20    9 1
    19   21   16 1
    20   22   16 1
@<TRIPOS>SUBSTRUCTURE
     1 RES1 1
     2 RES2 9

@<TRIPOS>CRYSIN
   7.0240    6.3657   21.8850  90.0000  99.1090  90.0000  14 1

