# MOL2 file generated by ConQuest
# Please check atom types

@<TRIPOS>MOLECULE
QIFCOX
    30    31     1
SMALL
NO_CHARGES
****
Generated from CSD

@<TRIPOS>ATOM
      1 C1         0.3411    1.9102    1.6729 C.2       1 RES1    0.0000
      2 C2         1.1614    1.2829    2.4848 C.2       1 RES1    0.0000
      3 C3         1.4894   -0.1707    2.3643 C.3       1 RES1    0.0000
      4 C4         0.9566   -0.6872    1.0275 C.3       1 RES1    0.0000
      5 C5        -0.4495   -0.1865    0.7072 C.3       1 RES1    0.0000
      6 C6        -0.4387    1.3338    0.5455 C.3       1 RES1    0.0000
      7 C7         1.6496    2.2176    3.5425 C.3       1 RES1    0.0000
      8 C8         3.1640    2.3962    3.5726 C.3       1 RES1    0.0000
      9 C9         1.0739    1.8899    4.9236 C.3       1 RES1    0.0000
     10 C10       -1.0376   -0.8579   -0.5201 C.3       1 RES1    0.0000
     11 O1        -0.4733    4.1810    1.5239 O.2       1 RES1    0.0000
     12 O2         1.1501    4.6241    3.6614 O.2       1 RES1    0.0000
     13 N1         0.2441    3.2880    2.0551 N.pl3     1 RES1    0.0000
     14 N2         1.0227    3.4994    3.1096 N.pl3     1 RES1    0.0000
     15 H1         1.0834   -0.6635    3.0937 H         1 RES1    0.0000
     16 H2         2.4503   -0.2973    2.4071 H         1 RES1    0.0000
     17 H3         1.5591   -0.4092    0.3203 H         1 RES1    0.0000
     18 H4         0.9489   -1.6570    1.0466 H         1 RES1    0.0000
     19 H5        -1.0245   -0.4024    1.4699 H         1 RES1    0.0000
     20 H6        -0.0316    1.5768   -0.2997 H         1 RES1    0.0000
     21 H7        -1.3460    1.6762    0.5598 H         1 RES1    0.0000
     22 H8         3.5807    1.5576    3.7851 H         1 RES1    0.0000
     23 H9         3.3962    3.0462    4.2402 H         1 RES1    0.0000
     24 H10        3.4682    2.6969    2.7131 H         1 RES1    0.0000
     25 H11        1.4180    1.0444    5.2217 H         1 RES1    0.0000
     26 H12        0.1167    1.8435    4.8697 H         1 RES1    0.0000
     27 H13        1.3257    2.5760    5.5468 H         1 RES1    0.0000
     28 H14       -1.9258   -0.5267   -0.6723 H         1 RES1    0.0000
     29 H15       -1.0698   -1.8073   -0.3806 H         1 RES1    0.0000
     30 H16       -0.4893   -0.6657   -1.2844 H         1 RES1    0.0000
@<TRIPOS>BOND
     1    1    2 2
     2    2    3 1
     3    3    4 1
     4    4    5 1
     5    5    6 1
     6    6    1 1
     7    7    2 1
     8    8    7 1
     9    9    7 1
    10   10    5 1
    11   11   13 1
    12   12   14 1
    13   13    1 1
    14   14    7 1
    15   15    3 1
    16   16    3 1
    17   17    4 1
    18   18    4 1
    19   19    5 1
    20   20    6 1
    21   21    6 1
    22   22    8 1
    23   23    8 1
    24   24    8 1
    25   25    9 1
    26   26    9 1
    27   27    9 1
    28   28   10 1
    29   29   10 1
    30   30   10 1
    31   13   14 2
@<TRIPOS>SUBSTRUCTURE
     1 RES1 1

@<TRIPOS>CRYSIN
   5.9530   11.3030   15.8570  90.0000  90.0000  90.0000  19 1

