# MOL2 file generated by ConQuest
# Please check atom types

@<TRIPOS>MOLECULE
QIFNOL
   116   103     2
SMALL
NO_CHARGES
****
Generated from CSD

@<TRIPOS>ATOM
      1 N1        12.8279    3.0463   16.6217 N.pl3     1 RES1    0.0000
      2 O1        13.6359    2.1916   16.9585 O.2       1 RES1    0.0000
      3 O2        13.0629    4.2817   16.7564 O.2       1 RES1    0.0000
      4 O3        12.5268    7.0615    8.8692 O.2       1 RES1    0.0000
      5 O4         5.7887    0.2919   15.0670 O.2       1 RES1    0.0000
      6 O5        16.0628    5.6195   11.3618 O.2       1 RES1    0.0000
      7 N2         7.2989    0.3681   16.7486 N.am      1 RES1    0.0000
      8 O6         8.8999    0.2886   18.3551 O.2       1 RES1    0.0000
      9 N3        14.3016    6.3329   10.1025 N.am      1 RES1    0.0000
     10 O7         7.6151    5.4258   11.7867 O.2       1 RES1    0.0000
     11 N4         8.4370    5.0078   10.9136 N.pl3     1 RES1    0.0000
     12 O8         8.1050    4.7217    9.8098 O.2       1 RES1    0.0000
     13 C1         7.7843    1.5485   14.6732 C.ar      1 RES1    0.0000
     14 C2         7.3960    1.8887   13.4036 C.ar      1 RES1    0.0000
     15 H1         6.5918    1.5748   13.0564 H         1 RES1    0.0000
     16 C3         8.2228    2.7112   12.6392 C.ar      1 RES1    0.0000
     17 H2         7.9572    2.9557   11.7841 H         1 RES1    0.0000
     18 C4         9.4471    3.1774   13.1367 C.ar      1 RES1    0.0000
     19 C5         9.8950    2.7442   14.3648 C.ar      1 RES1    0.0000
     20 C6         9.0361    1.9369   15.1707 C.ar      1 RES1    0.0000
     21 C7         9.4472    1.5934   16.4766 C.ar      1 RES1    0.0000
     22 C8        10.6011    2.0012   16.9404 C.ar      1 RES1    0.0000
     23 H3        10.8356    1.7812   17.8110 H         1 RES1    0.0000
     24 C9        11.4918    2.7484   16.1812 C.ar      1 RES1    0.0000
     25 C10       11.1986    3.0590   14.8597 C.ar      1 RES1    0.0000
     26 C11       10.2735    4.1193   12.3386 C.ar      1 RES1    0.0000
     27 C12        9.8539    4.8495   11.2426 C.ar      1 RES1    0.0000
     28 C13       10.6988    5.5569   10.3642 C.ar      1 RES1    0.0000
     29 H4        10.3680    5.9538    9.5895 H         1 RES1    0.0000
     30 C14       12.0298    5.6365   10.6907 C.ar      1 RES1    0.0000
     31 C15       12.5592    4.9781   11.8463 C.ar      1 RES1    0.0000
     32 C16       11.6598    4.2690   12.7402 C.ar      1 RES1    0.0000
     33 C17       12.1686    3.6843   13.9347 C.ar      1 RES1    0.0000
     34 C18       13.5053    3.7410   14.1291 C.ar      1 RES1    0.0000
     35 C19       14.3754    4.3968   13.2688 C.ar      1 RES1    0.0000
     36 H5        15.2842    4.4230   13.4683 H         1 RES1    0.0000
     37 C20       13.9167    5.0061   12.1288 C.ar      1 RES1    0.0000
     38 C21        6.8856    0.7032   15.4894 C.2       1 RES1    0.0000
     39 C22        8.5677    0.7074   17.2694 C.2       1 RES1    0.0000
     40 C23       12.9419    6.3879    9.8201 C.2       1 RES1    0.0000
     41 C24       14.8564    5.6390   11.2115 C.2       1 RES1    0.0000
     42 C25        6.4052   -0.4789   17.5570 C.ar      1 RES1    0.0000
     43 C26        5.4606    0.0770   18.3888 C.ar      1 RES1    0.0000
     44 C27        4.6229   -0.7641   19.1246 C.ar      1 RES1    0.0000
     45 H6         3.9871   -0.4121   19.7076 H         1 RES1    0.0000
     46 C28        4.7630   -2.1662   18.9666 C.ar      1 RES1    0.0000
     47 H7         4.2221   -2.7476   19.4459 H         1 RES1    0.0000
     48 C29        5.6885   -2.6537   18.1115 C.ar      1 RES1    0.0000
     49 H8         5.7455   -3.5768   18.0131 H         1 RES1    0.0000
     50 C30        6.5611   -1.8633   17.3731 C.ar      1 RES1    0.0000
     51 C31        5.3259    1.6408   18.5261 C.3       1 RES1    0.0000
     52 C32        3.8764    2.0419   18.6012 C.3       1 RES1    0.0000
     53 H9         3.4246    1.7694   17.7980 H         1 RES1    0.0000
     54 H10        3.8119    2.9955   18.6971 H         1 RES1    0.0000
     55 H11        3.4657    1.6171   19.3578 H         1 RES1    0.0000
     56 C33        6.0938    2.0816   19.7776 C.3       1 RES1    0.0000
     57 H12        7.0152    1.8202   19.6972 H         1 RES1    0.0000
     58 H13        5.7082    1.6645   20.5523 H         1 RES1    0.0000
     59 H14        6.0405    3.0353   19.8657 H         1 RES1    0.0000
     60 C34        7.5779   -2.4624   16.4999 C.3       1 RES1    0.0000
     61 C35        6.9351   -3.1309   15.2717 C.3       1 RES1    0.0000
     62 H15        7.6180   -3.5168   14.7224 H         1 RES1    0.0000
     63 H16        6.4491   -2.4734   14.7665 H         1 RES1    0.0000
     64 H17        6.3315   -3.8197   15.5619 H         1 RES1    0.0000
     65 C36        8.4487   -3.5252   17.2176 C.3       1 RES1    0.0000
     66 H18        9.0947   -3.8781   16.6009 H         1 RES1    0.0000
     67 H19        7.8899   -4.2360   17.5363 H         1 RES1    0.0000
     68 H20        8.9042   -3.1182   17.9586 H         1 RES1    0.0000
     69 C37       15.2309    6.8998    9.0972 C.ar      1 RES1    0.0000
     70 C38       15.4890    6.2229    7.9442 C.ar      1 RES1    0.0000
     71 C39       16.3319    6.7890    6.9959 C.ar      1 RES1    0.0000
     72 H21       16.5481    6.3117    6.2263 H         1 RES1    0.0000
     73 C40       16.8608    8.0803    7.1850 C.ar      1 RES1    0.0000
     74 H22       17.3539    8.4932    6.5165 H         1 RES1    0.0000
     75 C41       16.6271    8.7217    8.3873 C.ar      1 RES1    0.0000
     76 H23       17.0456    9.5366    8.5479 H         1 RES1    0.0000
     77 C42       15.8062    8.2038    9.3511 C.ar      1 RES1    0.0000
     78 C43       14.8989    4.8377    7.6903 C.3       1 RES1    0.0000
     79 C44       16.0090    3.8569    7.1902 C.3       1 RES1    0.0000
     80 H24       15.6219    2.9955    7.0192 H         1 RES1    0.0000
     81 H25       16.6902    3.7740    7.8639 H         1 RES1    0.0000
     82 H26       16.3983    4.1988    6.3818 H         1 RES1    0.0000
     83 C45       13.8081    4.9130    6.5632 C.3       1 RES1    0.0000
     84 H27       13.4493    4.0372    6.4077 H         1 RES1    0.0000
     85 H28       14.2059    5.2447    5.7547 H         1 RES1    0.0000
     86 H29       13.1033    5.5036    6.8404 H         1 RES1    0.0000
     87 C46       15.5410    8.9400   10.6752 C.3       1 RES1    0.0000
     88 C47       14.8606   10.2956   10.3021 C.3       1 RES1    0.0000
     89 H30       14.6776   10.7932   11.1027 H         1 RES1    0.0000
     90 H31       14.0374   10.1230    9.8383 H         1 RES1    0.0000
     91 H32       15.4463   10.8025    9.7346 H         1 RES1    0.0000
     92 C48       16.8432    9.2065   11.4421 C.3       1 RES1    0.0000
     93 H33       16.6479    9.6762   12.2531 H         1 RES1    0.0000
     94 H34       17.4331    9.7329   10.8980 H         1 RES1    0.0000
     95 H35       17.2649    8.3680   11.6520 H         1 RES1    0.0000
     96 N5        14.0834    3.3001   15.4246 Du        2 SUP2    0.0000
     97 O9        14.1257    2.0393   15.5645 Du        2 SUP2    0.0000
     98 O10       14.5385    4.0617   16.3470 Du        2 SUP2    0.0000
     99 C49       11.5821    0.9367   11.1934 Du        2 SUP2    0.0000
    100 H36       12.4104    1.3437   11.0664 Du        2 SUP2    0.0000
    101 C50       10.5879    1.0704   10.2321 Du        2 SUP2    0.0000
    102 H37       10.7490    1.5671    9.4626 Du        2 SUP2    0.0000
    103 C51        9.3514    0.4629   10.4212 Du        2 SUP2    0.0000
    104 H38        8.6873    0.5526    9.7761 Du        2 SUP2    0.0000
    105 C52        9.1111   -0.2784   11.5717 Du        2 SUP2    0.0000
    106 H39        8.2860   -0.6854   11.6961 Du        2 SUP2    0.0000
    107 C53       10.1053   -0.4121   12.5330 Du        2 SUP2    0.0000
    108 C54       11.3419    0.1955   12.3438 Du        2 SUP2    0.0000
    109 C55       12.3361    0.0618   13.3051 Du        2 SUP2    0.0000
    110 H40       13.1643    0.4679   13.1781 Du        2 SUP2    0.0000
    111 C56       12.0959   -0.6795   14.4555 Du        2 SUP2    0.0000
    112 H41       12.7599   -0.7692   15.1007 Du        2 SUP2    0.0000
    113 C57       10.8593   -1.2879   14.6447 Du        2 SUP2    0.0000
    114 H42       10.6982   -1.7838   15.4142 Du        2 SUP2    0.0000
    115 C58        9.8651   -1.1542   13.6834 Du        2 SUP2    0.0000
    116 H43        9.0390   -1.5604   13.8104 Du        2 SUP2    0.0000
@<TRIPOS>BOND
     1    1    2 2
     2    3    1 2
     3    4   40 2
     4    5   38 2
     5    6   41 2
     6    7   38 1
     7    8   39 2
     8    9   40 1
     9   10   11 2
    10   11   12 2
    11   13   14 ar
    12   14   15 1
    13   16   14 ar
    14   17   16 1
    15   18   16 ar
    16   19   18 ar
    17   20   13 ar
    18   21   20 ar
    19   22   21 ar
    20   23   22 1
    21   24    1 1
    22   25   19 ar
    23   26   18 ar
    24   27   11 1
    25   28   27 ar
    26   29   28 1
    27   30   28 ar
    28   31   30 ar
    29   32   26 ar
    30   33   25 ar
    31   34   33 ar
    32   35   34 ar
    33   36   35 1
    34   37   31 ar
    35   38   13 1
    36   39    7 1
    37   40   30 1
    38   41    9 1
    39   42    7 1
    40   43   42 ar
    41   44   43 ar
    42   45   44 1
    43   46   44 ar
    44   47   46 1
    45   48   46 ar
    46   49   48 1
    47   50   42 ar
    48   51   43 1
    49   52   51 1
    50   53   52 1
    51   54   52 1
    52   55   52 1
    53   56   51 1
    54   57   56 1
    55   58   56 1
    56   59   56 1
    57   60   50 1
    58   61   60 1
    59   62   61 1
    60   63   61 1
    61   64   61 1
    62   65   60 1
    63   66   65 1
    64   67   65 1
    65   68   65 1
    66   69    9 1
    67   70   69 ar
    68   71   70 ar
    69   72   71 1
    70   73   71 ar
    71   74   73 1
    72   75   73 ar
    73   76   75 1
    74   77   69 ar
    75   78   70 1
    76   79   78 1
    77   80   79 1
    78   81   79 1
    79   82   79 1
    80   83   78 1
    81   84   83 1
    82   85   83 1
    83   86   83 1
    84   87   77 1
    85   88   87 1
    86   89   88 1
    87   90   88 1
    88   91   88 1
    89   92   87 1
    90   93   92 1
    91   94   92 1
    92   95   92 1
    93   19   20 ar
    94   21   39 1
    95   22   24 ar
    96   24   25 ar
    97   26   27 ar
    98   31   32 ar
    99   32   33 ar
   100   35   37 ar
   101   37   41 1
   102   48   50 ar
   103   75   77 ar
@<TRIPOS>SUBSTRUCTURE
     1 RES1 1
     2 SUP2 96

@<TRIPOS>CRYSIN
  21.1940    8.4619   27.5700  90.0000 109.9800  90.0000 231 1

