# MOL2 file generated by ConQuest
# Please check atom types

@<TRIPOS>MOLECULE
QIGGIY
    66    45     2
SMALL
USER_CHARGES
****
Generated from CSD

@<TRIPOS>ATOM
      1 O1         0.2600    1.1029    1.2742 O.2       1 RES1   -1.0000
      2 N1         0.0168    0.0251    0.6618 N.pl3     1 RES1    1.0000
      3 C1        -0.1962   -1.2081    1.4166 C.ar      1 RES1    0.0000
      4 C2        -1.4991   -1.7022    1.5489 C.ar      1 RES1    0.0000
      5 C3        -1.7017   -2.8211    2.3600 C.ar      1 RES1    0.0000
      6 H1        -2.5798   -3.1704    2.4611 H         1 RES1    0.0000
      7 C4        -0.6351   -3.4386    3.0282 C.ar      1 RES1    0.0000
      8 C5         0.6557   -2.9113    2.8631 C.ar      1 RES1    0.0000
      9 H2         1.3822   -3.3273    3.3131 H         1 RES1    0.0000
     10 C6         0.9112   -1.7848    2.0536 C.ar      1 RES1    0.0000
     11 C7        -2.6692   -1.0909    0.8397 C.3       1 RES1    0.0000
     12 H3        -2.6945   -0.1279    1.0210 H         1 RES1    0.0000
     13 H4        -3.4981   -1.5062    1.1590 H         1 RES1    0.0000
     14 H5        -2.5798   -1.2390   -0.1242 H         1 RES1    0.0000
     15 C8        -0.8115   -4.6495    3.9062 C.3       1 RES1    0.0000
     16 H6        -0.1917   -5.3533    3.6201 H         1 RES1    0.0000
     17 H7        -1.7324   -4.9749    3.8322 H         1 RES1    0.0000
     18 H8        -0.6242   -4.4074    4.8377 H         1 RES1    0.0000
     19 C9         2.3124   -1.2740    1.8576 C.3       1 RES1    0.0000
     20 H9         2.6087   -1.4740    0.9451 H         1 RES1    0.0000
     21 H10        2.9115   -1.7099    2.4990 H         1 RES1    0.0000
     22 H11        2.3294   -0.3046    2.0006 H         1 RES1    0.0000
     23 O2        -0.2451   -1.2546   -1.1883 Du        2 SUP2    0.0000
     24 N2        -0.1304   -0.6517   -0.0776 Du        2 SUP2    0.0000
     25 C10       -0.3221   -1.4792    1.1124 Du        2 SUP2    0.0000
     26 C11        0.8167   -1.8658    1.7798 Du        2 SUP2    0.0000
     27 C12        0.7572   -2.7504    2.7301 Du        2 SUP2    0.0000
     28 H12        1.5503   -2.9770    3.2010 Du        2 SUP2    0.0000
     29 C13       -0.3948   -3.3523    3.0664 Du        2 SUP2    0.0000
     30 C14       -1.5258   -2.9178    2.4594 Du        2 SUP2    0.0000
     31 H13       -2.3469   -3.3066    2.7370 Du        2 SUP2    0.0000
     32 C15       -1.5827   -1.9230    1.4332 Du        2 SUP2    0.0000
     33 C16        2.2112   -1.3898    1.4832 Du        2 SUP2    0.0000
     34 H14        2.3530   -1.3783    0.5139 Du        2 SUP2    0.0000
     35 H15        2.8590   -1.9958    1.9006 Du        2 SUP2    0.0000
     36 H16        2.3312   -0.4865    1.8419 Du        2 SUP2    0.0000
     37 C17       -0.7266   -4.5071    4.0288 Du        2 SUP2    0.0000
     38 H17       -0.9848   -4.1423    4.8998 Du        2 SUP2    0.0000
     39 H18        0.0674   -5.0757    4.1375 Du        2 SUP2    0.0000
     40 H19       -1.4602   -5.0383    3.6615 Du        2 SUP2    0.0000
     41 C18       -2.8231   -1.3617    0.7157 Du        2 SUP2    0.0000
     42 H20       -3.5716   -1.9854    0.8209 Du        2 SUP2    0.0000
     43 H21       -2.6253   -1.2484   -0.2380 Du        2 SUP2    0.0000
     44 H22       -3.0621   -0.4948    1.1055 Du        2 SUP2    0.0000
     45 O1D       -0.2600   -1.1029   -1.2742 O.2       1 RES1   -1.0000
     46 N1D       -0.0168   -0.0251   -0.6618 N.pl3     1 RES1    1.0000
     47 C1D        0.1962    1.2081   -1.4166 C.ar      1 RES1    0.0000
     48 C2D        1.4991    1.7022   -1.5489 C.ar      1 RES1    0.0000
     49 C3D        1.7017    2.8211   -2.3600 C.ar      1 RES1    0.0000
     50 H1D        2.5798    3.1704   -2.4611 H         1 RES1    0.0000
     51 C4D        0.6351    3.4386   -3.0282 C.ar      1 RES1    0.0000
     52 C5D       -0.6557    2.9113   -2.8631 C.ar      1 RES1    0.0000
     53 H2D       -1.3822    3.3273   -3.3131 H         1 RES1    0.0000
     54 C6D       -0.9112    1.7848   -2.0536 C.ar      1 RES1    0.0000
     55 C7D        2.6692    1.0909   -0.8397 C.3       1 RES1    0.0000
     56 H3D        2.6945    0.1279   -1.0210 H         1 RES1    0.0000
     57 H4D        3.4981    1.5062   -1.1590 H         1 RES1    0.0000
     58 H5D        2.5798    1.2390    0.1242 H         1 RES1    0.0000
     59 C8D        0.8115    4.6495   -3.9062 C.3       1 RES1    0.0000
     60 H6D        0.1917    5.3533   -3.6201 H         1 RES1    0.0000
     61 H7D        1.7324    4.9749   -3.8322 H         1 RES1    0.0000
     62 H8D        0.6242    4.4074   -4.8377 H         1 RES1    0.0000
     63 C9D       -2.3124    1.2740   -1.8576 C.3       1 RES1    0.0000
     64 H9D       -2.6087    1.4740   -0.9451 H         1 RES1    0.0000
     65 H10D      -2.9115    1.7099   -2.4990 H         1 RES1    0.0000
     66 H11D      -2.3294    0.3046   -2.0006 H         1 RES1    0.0000
@<TRIPOS>BOND
     1    1    2 1
     2    2    3 1
     3    3    4 ar
     4    4    5 ar
     5    5    6 1
     6    7    5 ar
     7    8    7 ar
     8    9    8 1
     9   10    3 ar
    10   11    4 1
    11   12   11 1
    12   13   11 1
    13   14   11 1
    14   15    7 1
    15   16   15 1
    16   17   15 1
    17   18   15 1
    18   19   10 1
    19   20   19 1
    20   21   19 1
    21   22   19 1
    22   45   46 1
    23   46    2 2
    24   47   46 1
    25   48   47 ar
    26   49   48 ar
    27   50   49 1
    28   51   49 ar
    29   52   51 ar
    30   53   52 1
    31   54   47 ar
    32   55   48 1
    33   56   55 1
    34   57   55 1
    35   58   55 1
    36   59   51 1
    37   60   59 1
    38   61   59 1
    39   62   59 1
    40   63   54 1
    41   64   63 1
    42   65   63 1
    43   66   63 1
    44    8   10 ar
    45   52   54 ar
@<TRIPOS>SUBSTRUCTURE
     1 RES1 1
     2 SUP2 23

@<TRIPOS>CRYSIN
   8.7539   10.3947   17.2466  90.0000  90.0000  90.0000  61 1

