# MOL2 file generated by ConQuest
# Please check atom types

@<TRIPOS>MOLECULE
QIGGIY01
    44    45     1
SMALL
USER_CHARGES
****
Generated from CSD

@<TRIPOS>ATOM
      1 O1         0.1721    1.1450    1.2480 O.2       1 RES1   -1.0000
      2 N1        -0.0046    0.0377    0.6556 N.pl3     1 RES1    1.0000
      3 C1        -1.4800   -1.7108    1.5939 C.ar      1 RES1    0.0000
      4 C2        -0.1920   -1.2048    1.4213 C.ar      1 RES1    0.0000
      5 C3         0.9291   -1.7520    2.0413 C.ar      1 RES1    0.0000
      6 C4         0.7162   -2.8439    2.8736 C.ar      1 RES1    0.0000
      7 H1         1.4625   -3.2348    3.3133 H         1 RES1    0.0000
      8 C5        -0.5431   -3.3863    3.0895 C.ar      1 RES1    0.0000
      9 C6        -1.6231   -2.8051    2.4428 C.ar      1 RES1    0.0000
     10 H2        -2.4901   -3.1658    2.5836 H         1 RES1    0.0000
     11 C7        -2.6763   -1.1253    0.8977 C.3       1 RES1    0.0000
     12 H3        -2.7129   -0.1610    1.0664 H         1 RES1    0.0000
     13 H4        -3.4920   -1.5479    1.2401 H         1 RES1    0.0000
     14 H5        -2.6046   -1.2866   -0.0667 H         1 RES1    0.0000
     15 C8         2.3224   -1.2345    1.8191 C.3       1 RES1    0.0000
     16 H6         2.9330   -1.6545    2.4609 H         1 RES1    0.0000
     17 H7         2.3339   -0.2623    1.9452 H         1 RES1    0.0000
     18 H8         2.6090   -1.4496    0.9068 H         1 RES1    0.0000
     19 C9        -0.7215   -4.5715    4.0002 C.3       1 RES1    0.0000
     20 H9        -0.0754   -5.2687    3.7606 H         1 RES1    0.0000
     21 H10       -1.6311   -4.9227    3.9044 H         1 RES1    0.0000
     22 H11       -0.5742   -4.2956    4.9287 H         1 RES1    0.0000
     23 O1D       -0.1721   -1.1450   -1.2480 O.2       1 RES1   -1.0000
     24 N1D        0.0046   -0.0377   -0.6556 N.pl3     1 RES1    1.0000
     25 C1D        1.4800    1.7108   -1.5939 C.ar      1 RES1    0.0000
     26 C2D        0.1920    1.2048   -1.4213 C.ar      1 RES1    0.0000
     27 C3D       -0.9291    1.7520   -2.0413 C.ar      1 RES1    0.0000
     28 C4D       -0.7162    2.8439   -2.8736 C.ar      1 RES1    0.0000
     29 H1D       -1.4625    3.2348   -3.3133 H         1 RES1    0.0000
     30 C5D        0.5431    3.3863   -3.0895 C.ar      1 RES1    0.0000
     31 C6D        1.6231    2.8051   -2.4428 C.ar      1 RES1    0.0000
     32 H2D        2.4901    3.1658   -2.5836 H         1 RES1    0.0000
     33 C7D        2.6763    1.1253   -0.8977 C.3       1 RES1    0.0000
     34 H3D        2.7129    0.1610   -1.0664 H         1 RES1    0.0000
     35 H4D        3.4920    1.5479   -1.2401 H         1 RES1    0.0000
     36 H5D        2.6046    1.2866    0.0667 H         1 RES1    0.0000
     37 C8D       -2.3224    1.2345   -1.8191 C.3       1 RES1    0.0000
     38 H6D       -2.9330    1.6545   -2.4609 H         1 RES1    0.0000
     39 H7D       -2.3339    0.2623   -1.9452 H         1 RES1    0.0000
     40 H8D       -2.6090    1.4496   -0.9068 H         1 RES1    0.0000
     41 C9D        0.7215    4.5715   -4.0002 C.3       1 RES1    0.0000
     42 H9D        0.0754    5.2687   -3.7606 H         1 RES1    0.0000
     43 H10D       1.6311    4.9227   -3.9044 H         1 RES1    0.0000
     44 H11D       0.5742    4.2956   -4.9287 H         1 RES1    0.0000
@<TRIPOS>BOND
     1    1    2 1
     2    2    4 1
     3    3    4 ar
     4    4    5 ar
     5    5    6 ar
     6    6    7 1
     7    8    6 ar
     8    9    3 ar
     9   10    9 1
    10   11    3 1
    11   12   11 1
    12   13   11 1
    13   14   11 1
    14   15    5 1
    15   16   15 1
    16   17   15 1
    17   18   15 1
    18   19    8 1
    19   20   19 1
    20   21   19 1
    21   22   19 1
    22   23   24 1
    23   24    2 2
    24   25   26 ar
    25   26   24 1
    26   27   26 ar
    27   28   27 ar
    28   29   28 1
    29   30   28 ar
    30   31   25 ar
    31   32   31 1
    32   33   25 1
    33   34   33 1
    34   35   33 1
    35   36   33 1
    36   37   27 1
    37   38   37 1
    38   39   37 1
    39   40   37 1
    40   41   30 1
    41   42   41 1
    42   43   41 1
    43   44   41 1
    44    8    9 ar
    45   30   31 ar
@<TRIPOS>SUBSTRUCTURE
     1 RES1 1

@<TRIPOS>CRYSIN
   8.8743   10.4516   17.5400  90.0000  90.0000  90.0000  61 1

