# MOL2 file generated by ConQuest
# Please check atom types

@<TRIPOS>MOLECULE
QIGPUU
    78    80     2
SMALL
NO_CHARGES
****
Generated from CSD

@<TRIPOS>ATOM
      1 O1         2.8308    9.6543    5.3520 O.2       1 RES1    0.0000
      2 C1        -0.1596   10.4645    2.7091 C.2       1 RES1    0.0000
      3 N1         0.6286    9.7115    4.9025 N.am      1 RES1    0.0000
      4 O2        -1.7287   10.6782    1.1594 O.3       1 RES1    0.0000
      5 C2        -0.1285   11.9350    2.8977 C.ar      1 RES1    0.0000
      6 C3         0.2133   10.4487    7.6963 C.ar      1 RES1    0.0000
      7 H1        -0.4045   10.8119    7.1035 H         1 RES1    0.0000
      8 N2        -0.9016    9.8172    1.8989 N.2       1 RES1    0.0000
      9 C4         1.3467    9.8163    7.2041 C.ar      1 RES1    0.0000
     10 C5         1.9880    9.3608    9.4772 C.ar      1 RES1    0.0000
     11 H2         2.5877    8.9750   10.0749 H         1 RES1    0.0000
     12 C6         1.6672    9.7198    5.7525 C.2       1 RES1    0.0000
     13 C7        -0.0074   10.5455    9.0578 C.ar      1 RES1    0.0000
     14 H3        -0.7659   10.9875    9.3640 H         1 RES1    0.0000
     15 C8         2.2347    9.2779    8.1297 C.ar      1 RES1    0.0000
     16 H4         3.0077    8.8559    7.8306 H         1 RES1    0.0000
     17 C9         0.8096    9.6030    3.4686 C.3       1 RES1    0.0000
     18 H5         0.6911    8.6774    3.2017 H         1 RES1    0.0000
     19 H6         1.7153    9.8643    3.2413 H         1 RES1    0.0000
     20 C10       -1.0901   12.5772    3.6464 C.ar      1 RES1    0.0000
     21 H7        -1.7776   12.0877    4.0368 H         1 RES1    0.0000
     22 C11       -0.0385   14.6882    3.2606 C.ar      1 RES1    0.0000
     23 H8         0.0015   15.6073    3.3943 H         1 RES1    0.0000
     24 C12        0.8637   10.0055    9.9658 C.ar      1 RES1    0.0000
     25 C13        0.8640   12.6968    2.3263 C.ar      1 RES1    0.0000
     26 H9         1.5221   12.2880    1.8123 H         1 RES1    0.0000
     27 C14       -2.5161    9.8993    0.2563 C.3       1 RES1    0.0000
     28 H10       -1.9405    9.3371   -0.2682 H         1 RES1    0.0000
     29 H11       -3.0085   10.4848   -0.3258 H         1 RES1    0.0000
     30 H12       -3.1291    9.3538    0.7541 H         1 RES1    0.0000
     31 C15        0.8900   14.0605    2.5094 C.ar      1 RES1    0.0000
     32 H13        1.5628   14.5611    2.1057 H         1 RES1    0.0000
     33 C16       -1.0344   13.9497    3.8183 C.ar      1 RES1    0.0000
     34 H14       -1.6894   14.3728    4.3247 H         1 RES1    0.0000
     35 C17        0.5921   10.1242   11.4536 C.3       1 RES1    0.0000
     36 H15       -0.2954   10.4629   11.5902 H         1 RES1    0.0000
     37 H16        1.2290   10.7252   11.8476 H         1 RES1    0.0000
     38 H17        0.6709    9.2583   11.8638 H         1 RES1    0.0000
     39 H18       -0.1524    9.6582    5.2264 H         1 RES1    0.0000
     40 O3         1.4417    2.6877    1.1155 O.3       2 RES2    0.0000
     41 O4         6.0763    1.8570    5.2403 O.2       2 RES2    0.0000
     42 N3         3.8615    1.7614    4.8398 N.am      2 RES2    0.0000
     43 C18        3.0385    3.9666    2.8423 C.ar      2 RES2    0.0000
     44 C19        3.0245    2.4959    2.6523 C.2       2 RES2    0.0000
     45 N4         2.2838    1.8339    1.8485 N.2       2 RES2    0.0000
     46 C20        4.9200    1.8317    5.6684 C.2       2 RES2    0.0000
     47 C21        3.5407    1.2750    7.7041 C.ar      2 RES2    0.0000
     48 H19        2.9118    0.8497    7.1665 H         2 RES2    0.0000
     49 C22        4.0175    1.6446    3.4060 C.3       2 RES2    0.0000
     50 H20        3.9026    0.7165    3.1477 H         2 RES2    0.0000
     51 H21        4.9171    1.9123    3.1603 H         2 RES2    0.0000
     52 C23        4.6344    1.8777    7.1217 C.ar      2 RES2    0.0000
     53 C24        5.3170    2.5414    9.3258 C.ar      2 RES2    0.0000
     54 H22        5.9268    2.9893    9.8661 H         2 RES2    0.0000
     55 C25        2.0639    4.5974    3.5845 C.ar      2 RES2    0.0000
     56 H23        1.3787    4.0990    3.9666 H         2 RES2    0.0000
     57 C26        3.0883    6.7192    3.2085 C.ar      2 RES2    0.0000
     58 H24        3.1128    7.6384    3.3439 H         2 RES2    0.0000
     59 C27        5.5306    2.5053    7.9661 C.ar      2 RES2    0.0000
     60 H25        6.2892    2.9085    7.6110 H         2 RES2    0.0000
     61 C28        4.0270    4.7388    2.2783 C.ar      2 RES2    0.0000
     62 H26        4.6951    4.3350    1.7727 H         2 RES2    0.0000
     63 C29        4.2339    1.9372    9.9048 C.ar      2 RES2    0.0000
     64 C30        2.1011    5.9666    3.7625 C.ar      2 RES2    0.0000
     65 H27        1.4403    6.3808    4.2689 H         2 RES2    0.0000
     66 C31        0.6626    1.9019    0.2190 C.3       2 RES2    0.0000
     67 H28        1.2425    1.3386   -0.2988 H         2 RES2    0.0000
     68 H29        0.1706    2.4808   -0.3689 H         2 RES2    0.0000
     69 H30        0.0503    1.3585    0.7199 H         2 RES2    0.0000
     70 C32        4.0342    6.1093    2.4586 C.ar      2 RES2    0.0000
     71 H31        4.7003    6.6201    2.0571 H         2 RES2    0.0000
     72 C33        3.3648    1.2934    9.0706 C.ar      2 RES2    0.0000
     73 H32        2.6319    0.8523    9.4360 H         2 RES2    0.0000
     74 C34        3.9992    1.9732   11.4041 C.3       2 RES2    0.0000
     75 H33        3.1153    2.3034   11.5812 H         2 RES2    0.0000
     76 H34        4.6455    2.5507   11.8152 H         2 RES2    0.0000
     77 H35        4.0883    1.0873   11.7630 H         2 RES2    0.0000
     78 H36        3.0892    1.7585    5.1958 H         2 RES2    0.0000
@<TRIPOS>BOND
     1    1   12 2
     2    2    5 1
     3    3   12 1
     4    4    8 1
     5    5   20 ar
     6    6    7 1
     7    8    2 2
     8    9    6 ar
     9   10   11 1
    10   12    9 1
    11   13    6 ar
    12   14   13 1
    13   15    9 ar
    14   16   15 1
    15   17    2 1
    16   18   17 1
    17   19   17 1
    18   20   21 1
    19   22   23 1
    20   24   10 ar
    21   25    5 ar
    22   26   25 1
    23   27    4 1
    24   28   27 1
    25   29   27 1
    26   30   27 1
    27   31   22 ar
    28   32   31 1
    29   33   20 ar
    30   34   33 1
    31   35   24 1
    32   36   35 1
    33   37   35 1
    34   38   35 1
    35   39    3 1
    36   40   45 1
    37   41   46 2
    38   42   46 1
    39   43   44 1
    40   44   45 2
    41   46   52 1
    42   47   48 1
    43   49   42 1
    44   50   49 1
    45   51   49 1
    46   52   47 ar
    47   53   54 1
    48   55   43 ar
    49   56   55 1
    50   57   58 1
    51   59   52 ar
    52   60   59 1
    53   61   43 ar
    54   62   61 1
    55   63   53 ar
    56   64   55 ar
    57   65   64 1
    58   66   40 1
    59   67   66 1
    60   68   66 1
    61   69   66 1
    62   70   57 ar
    63   71   70 1
    64   72   47 ar
    65   73   72 1
    66   74   63 1
    67   75   74 1
    68   76   74 1
    69   77   74 1
    70   78   42 1
    71    3   17 1
    72   10   15 ar
    73   13   24 ar
    74   22   33 ar
    75   25   31 ar
    76   44   49 1
    77   53   59 ar
    78   57   64 ar
    79   61   70 ar
    80   63   72 ar
@<TRIPOS>SUBSTRUCTURE
     1 RES1 1
     2 RES2 40

@<TRIPOS>CRYSIN
   5.3098   15.9656   19.7582 113.8150  93.4490  93.5370   2 1

