# MOL2 file generated by ConQuest
# Please check atom types

@<TRIPOS>MOLECULE
QIGQAB
    36    37     1
SMALL
NO_CHARGES
****
Generated from CSD

@<TRIPOS>ATOM
      1 O1         3.4258    9.0236    1.5580 O.3       1 RES1    0.0000
      2 O2         8.0208    8.2561    5.7200 O.2       1 RES1    0.0000
      3 N1         5.8151    8.5714    5.4103 N.am      1 RES1    0.0000
      4 N2         4.2524    9.5756    2.5646 N.2       1 RES1    0.0000
      5 C1         4.9960    7.2345    2.7289 C.ar      1 RES1    0.0000
      6 C2         4.9942    8.6755    3.0912 C.2       1 RES1    0.0000
      7 C3         6.5923    7.6968    7.5304 C.ar      1 RES1    0.0000
      8 C4         6.8719    8.1965    6.1466 C.2       1 RES1    0.0000
      9 C5         5.9651    9.2014    4.1182 C.3       1 RES1    0.0000
     10 H1         6.8699    9.0567    3.7997 H         1 RES1    0.0000
     11 H2         5.8343   10.1570    4.2156 H         1 RES1    0.0000
     12 C6         5.9930    6.7196    1.9180 C.ar      1 RES1    0.0000
     13 H3         6.6783    7.2730    1.6200 H         1 RES1    0.0000
     14 C7         5.5087    8.1162    8.2771 C.ar      1 RES1    0.0000
     15 H4         4.9006    8.7210    7.9168 H         1 RES1    0.0000
     16 C8         7.4869    6.8016    8.0818 C.ar      1 RES1    0.0000
     17 H5         8.2295    6.5299    7.5931 H         1 RES1    0.0000
     18 C9         4.0065    5.0553    2.8085 C.ar      1 RES1    0.0000
     19 H6         3.3352    4.4910    3.1164 H         1 RES1    0.0000
     20 C10        4.0062    6.3852    3.1764 C.ar      1 RES1    0.0000
     21 H7         3.3335    6.7105    3.7293 H         1 RES1    0.0000
     22 C11        4.9861    4.5617    1.9949 C.ar      1 RES1    0.0000
     23 H8         4.9797    3.6654    1.7450 H         1 RES1    0.0000
     24 C12        5.3302    7.6324    9.5673 C.ar      1 RES1    0.0000
     25 H9         4.6092    7.9268   10.0762 H         1 RES1    0.0000
     26 C13        6.2109    6.7231   10.0952 C.ar      1 RES1    0.0000
     27 H10        6.0783    6.3891   10.9534 H         1 RES1    0.0000
     28 C14        5.9757    5.3931    1.5505 C.ar      1 RES1    0.0000
     29 H11        6.6429    5.0598    0.9945 H         1 RES1    0.0000
     30 C15        7.2858    6.3065    9.3554 C.ar      1 RES1    0.0000
     31 H12        7.8822    5.6886    9.7119 H         1 RES1    0.0000
     32 C16        2.6574   10.0692    0.9768 C.3       1 RES1    0.0000
     33 H13        2.1496   10.5113    1.6606 H         1 RES1    0.0000
     34 H14        2.0592    9.7014    0.3221 H         1 RES1    0.0000
     35 H15        3.2440   10.7011    0.5551 H         1 RES1    0.0000
     36 H16        5.0793    8.4798    5.7027 H         1 RES1    0.0000
@<TRIPOS>BOND
     1    1    4 1
     2    2    8 2
     3    3    8 1
     4    4    6 2
     5    5    6 1
     6    6    9 1
     7    7    8 1
     8    9    3 1
     9   10    9 1
    10   11    9 1
    11   12    5 ar
    12   13   12 1
    13   14    7 ar
    14   15   14 1
    15   16    7 ar
    16   17   16 1
    17   18   19 1
    18   20    5 ar
    19   21   20 1
    20   22   18 ar
    21   23   22 1
    22   24   14 ar
    23   25   24 1
    24   26   24 ar
    25   27   26 1
    26   28   12 ar
    27   29   28 1
    28   30   16 ar
    29   31   30 1
    30   32    1 1
    31   33   32 1
    32   34   32 1
    33   35   32 1
    34   36    3 1
    35   18   20 ar
    36   22   28 ar
    37   26   30 ar
@<TRIPOS>SUBSTRUCTURE
     1 RES1 1

@<TRIPOS>CRYSIN
   5.2551    8.3833   15.9413  80.0530  84.2960  86.6910   2 1

