# MOL2 file generated by ConQuest
# Please check atom types

@<TRIPOS>MOLECULE
QIGSOO
    31    32     1
SMALL
NO_CHARGES
****
Generated from CSD

@<TRIPOS>ATOM
      1 O1        10.8038    6.5895    2.8929 O.3       1 RES1    0.0000
      2 H1        10.6935    5.8839    2.4842 H         1 RES1    0.0000
      3 N1         2.5850    7.2879   -2.0610 N.ar      1 RES1    0.0000
      4 N2         5.4706    9.0920    0.3786 N.2       1 RES1    0.0000
      5 N3         9.6242    7.2699    2.5219 N.2       1 RES1    0.0000
      6 C1         3.5438    7.8735   -1.3491 C.ar      1 RES1    0.0000
      7 H2         4.2927    7.4281   -1.0670 H         1 RES1    0.0000
      8 C2         3.5411    9.2272   -1.0153 C.ar      1 RES1    0.0000
      9 C3         2.4704    9.9926   -1.4680 C.ar      1 RES1    0.0000
     10 H3         2.3817   10.7958   -1.1498 H         1 RES1    0.0000
     11 C4         1.4668    9.3935   -2.2029 C.ar      1 RES1    0.0000
     12 H4         0.6757    9.8790   -2.5703 H         1 RES1    0.0000
     13 C5         1.5616    8.0485   -2.4809 C.ar      1 RES1    0.0000
     14 H5         0.9145    7.6567   -2.9959 H         1 RES1    0.0000
     15 C6         4.5995    9.8207   -0.1886 C.2       1 RES1    0.0000
     16 H6         4.5313   10.8104   -0.0705 H         1 RES1    0.0000
     17 C7         6.4183    9.6670    1.2671 C.ar      1 RES1    0.0000
     18 C8         7.5476    8.9054    1.5550 C.ar      1 RES1    0.0000
     19 H7         7.6695    8.1264    1.1080 H         1 RES1    0.0000
     20 C9         8.5008    9.3444    2.4768 C.ar      1 RES1    0.0000
     21 C10        8.3063   10.5811    3.0976 C.ar      1 RES1    0.0000
     22 H8         8.8763   11.0278    3.7464 H         1 RES1    0.0000
     23 C11        7.1835   11.3488    2.8073 C.ar      1 RES1    0.0000
     24 H9         7.0261   12.1643    3.2354 H         1 RES1    0.0000
     25 C12        6.2322   10.8993    1.9109 C.ar      1 RES1    0.0000
     26 H10        5.4437   11.5223    1.7239 H         1 RES1    0.0000
     27 C13        9.6914    8.5205    2.8180 C.2       1 RES1    0.0000
     28 C14       10.8762    9.1446    3.4897 C.3       1 RES1    0.0000
     29 H11       10.9148   10.1414    3.4068 H         1 RES1    0.0000
     30 H12       11.6945    8.7921    3.3273 H         1 RES1    0.0000
     31 H13       10.8017    9.0015    4.4820 H         1 RES1    0.0000
@<TRIPOS>BOND
     1    1    2 1
     2    3    6 ar
     3    4   15 2
     4    5    1 1
     5    6    7 1
     6    8    6 ar
     7    9    8 ar
     8   10    9 1
     9   11    9 ar
    10   12   11 1
    11   13    3 ar
    12   14   13 1
    13   15    8 1
    14   16   15 1
    15   17    4 1
    16   18   17 ar
    17   19   18 1
    18   20   18 ar
    19   21   20 ar
    20   22   21 1
    21   23   21 ar
    22   24   23 1
    23   25   17 ar
    24   26   25 1
    25   27    5 2
    26   28   27 1
    27   29   28 1
    28   30   28 1
    29   31   28 1
    30   11   13 ar
    31   20   27 1
    32   23   25 ar
@<TRIPOS>SUBSTRUCTURE
     1 RES1 1

@<TRIPOS>CRYSIN
  13.2046   11.2632    8.2638  90.0000  97.0500  90.0000  14 1

