# MOL2 file generated by ConQuest
# Please check atom types

@<TRIPOS>MOLECULE
QIGSII
    62    64     2
SMALL
NO_CHARGES
****
Generated from CSD

@<TRIPOS>ATOM
      1 O1         4.4477   14.8567    4.7764 O.3       1 RES1    0.0000
      2 H1         4.6401   14.1940    4.2705 H         1 RES1    0.0000
      3 O2         2.3633    3.4614   -3.9521 O.3       2 RES2    0.0000
      4 H2         2.6988    2.5589   -4.3434 H         2 RES2    0.0000
      5 N1         5.3704   20.5015   15.1639 N.ar      1 RES1    0.0000
      6 N2         5.4922   17.0850   11.4531 N.2       1 RES1    0.0000
      7 N3         4.6812   14.4897    6.1027 N.2       1 RES1    0.0000
      8 N4         4.8263   12.4410    3.5702 N.ar      2 RES2    0.0000
      9 N5         4.6463    8.2108    0.8651 N.2       2 RES2    0.0000
     10 N6         3.3094    3.7859   -2.9617 N.2       2 RES2    0.0000
     11 C1         4.5720   19.4775   15.4601 C.ar      1 RES1    0.0000
     12 H3         4.0339   19.5306   16.2756 H         1 RES1    0.0000
     13 C2         4.4437   18.3511   14.6775 C.ar      1 RES1    0.0000
     14 H4         3.9896   17.5078   14.9651 H         1 RES1    0.0000
     15 C3         5.1770   18.2560   13.5046 C.ar      1 RES1    0.0000
     16 C4         6.0360   19.3033   13.1934 C.ar      1 RES1    0.0000
     17 H5         6.5750   19.2306   12.3276 H         1 RES1    0.0000
     18 C5         6.1046   20.3909   14.0438 C.ar      1 RES1    0.0000
     19 H6         6.7219   21.1719   13.8620 H         1 RES1    0.0000
     20 C6         5.0151   17.0800   12.6193 C.2       1 RES1    0.0000
     21 H7         4.4561   16.4523   12.9757 H         1 RES1    0.0000
     22 C7         5.3195   15.9531   10.6073 C.ar      1 RES1    0.0000
     23 C8         5.0568   16.2151    9.2660 C.ar      1 RES1    0.0000
     24 H8         4.9615   17.1891    8.9887 H         1 RES1    0.0000
     25 C9         4.9142   15.1858    8.3345 C.ar      1 RES1    0.0000
     26 C10        5.0855   13.8718    8.7874 C.ar      1 RES1    0.0000
     27 H9         5.0543   13.1513    8.1650 H         1 RES1    0.0000
     28 C11        5.3717   13.6141   10.1071 C.ar      1 RES1    0.0000
     29 H10        5.4815   12.7573   10.3619 H         1 RES1    0.0000
     30 C12        5.4692   14.6408   11.0376 C.ar      1 RES1    0.0000
     31 H11        5.6879   14.5015   11.9445 H         1 RES1    0.0000
     32 C13        4.6283   15.4982    6.9089 C.2       1 RES1    0.0000
     33 C14        4.3336   16.9022    6.4817 C.3       1 RES1    0.0000
     34 H12        4.2568   16.8875    5.6323 H         1 RES1    0.0000
     35 H13        4.9805   17.5964    6.8216 H         1 RES1    0.0000
     36 H14        3.3702   17.0039    6.9716 H         1 RES1    0.0000
     37 C15        5.3637   11.4474    4.2807 C.ar      2 RES2    0.0000
     38 H15        5.7462   11.6923    5.1650 H         2 RES2    0.0000
     39 C16        5.4042   10.1364    3.8637 C.ar      2 RES2    0.0000
     40 H16        5.8423    9.4400    4.3341 H         2 RES2    0.0000
     41 C17        4.8881    9.8146    2.6056 C.ar      2 RES2    0.0000
     42 C18        4.3311   10.8473    1.8548 C.ar      2 RES2    0.0000
     43 H17        3.9516   10.6743    1.0342 H         2 RES2    0.0000
     44 C19        4.3138   12.1181    2.3653 C.ar      2 RES2    0.0000
     45 H18        3.8725   12.9873    1.8990 H         2 RES2    0.0000
     46 C20        4.9528    8.4457    2.0767 C.2       2 RES2    0.0000
     47 H19        5.2421    7.6409    2.6549 H         2 RES2    0.0000
     48 C21        4.8019    6.9035    0.3276 C.ar      2 RES2    0.0000
     49 C22        3.8977    6.5202   -0.6604 C.ar      2 RES2    0.0000
     50 H20        3.1811    7.2405   -0.9264 H         2 RES2    0.0000
     51 C23        3.9898    5.2731   -1.2831 C.ar      2 RES2    0.0000
     52 C24        5.0391    4.4269   -0.8935 C.ar      2 RES2    0.0000
     53 H21        5.1548    3.6117   -1.2869 H         2 RES2    0.0000
     54 C25        5.9417    4.8090    0.0729 C.ar      2 RES2    0.0000
     55 H22        6.7298    4.2920    0.3379 H         2 RES2    0.0000
     56 C26        5.8361    6.0512    0.6891 C.ar      2 RES2    0.0000
     57 H23        6.4265    6.2583    1.3988 H         2 RES2    0.0000
     58 C27        3.0219    4.8681   -2.3345 C.2       2 RES2    0.0000
     59 C28        1.8209    5.7242   -2.6097 C.3       2 RES2    0.0000
     60 H24        1.4056    6.1689   -1.9185 H         2 RES2    0.0000
     61 H25        2.1974    6.5649   -3.0657 H         2 RES2    0.0000
     62 H26        1.2086    5.1802   -3.2506 H         2 RES2    0.0000
@<TRIPOS>BOND
     1    1    2 1
     2    3    4 1
     3    5   11 ar
     4    6   20 2
     5    7    1 1
     6    8   37 ar
     7    9   46 2
     8   10    3 1
     9   11   12 1
    10   13   11 ar
    11   14   13 1
    12   15   13 ar
    13   16   15 ar
    14   17   16 1
    15   18    5 ar
    16   19   18 1
    17   20   15 1
    18   21   20 1
    19   22    6 1
    20   23   22 ar
    21   24   23 1
    22   25   23 ar
    23   26   25 ar
    24   27   26 1
    25   28   26 ar
    26   29   28 1
    27   30   22 ar
    28   31   30 1
    29   32    7 2
    30   33   32 1
    31   34   33 1
    32   35   33 1
    33   36   33 1
    34   37   38 1
    35   39   37 ar
    36   40   39 1
    37   41   39 ar
    38   42   41 ar
    39   43   42 1
    40   44    8 ar
    41   45   44 1
    42   46   41 1
    43   47   46 1
    44   48    9 1
    45   49   48 ar
    46   50   49 1
    47   51   49 ar
    48   52   51 ar
    49   53   52 1
    50   54   52 ar
    51   55   54 1
    52   56   48 ar
    53   57   56 1
    54   58   10 2
    55   59   58 1
    56   60   59 1
    57   61   59 1
    58   62   59 1
    59   16   18 ar
    60   25   32 1
    61   28   30 ar
    62   42   44 ar
    63   51   58 1
    64   54   56 ar
@<TRIPOS>SUBSTRUCTURE
     1 RES1 1
     2 RES2 3

@<TRIPOS>CRYSIN
  10.9660   11.7670   11.9310  62.2810  68.4930  67.8510   2 1

