# MOL2 file generated by ConQuest
# Please check atom types

@<TRIPOS>MOLECULE
QIGTAB
    62    64     2
SMALL
NO_CHARGES
****
Generated from CSD

@<TRIPOS>ATOM
      1 O1         5.6283    5.4621    3.9085 O.3       1 RES1    0.0000
      2 H1         5.9887    4.5451    3.4148 H         1 RES1    0.0000
      3 N1         2.1295    2.4949   15.6160 N.ar      1 RES1    0.0000
      4 N2         3.7110    4.7600   11.3609 N.2       1 RES1    0.0000
      5 N3         5.3194    5.0725    5.2083 N.2       1 RES1    0.0000
      6 C1         2.6321    3.7310   15.3563 C.ar      1 RES1    0.0000
      7 H2         2.6487    4.3643   16.0651 H         1 RES1    0.0000
      8 C2         3.1181    4.1189   14.1261 C.ar      1 RES1    0.0000
      9 H3         3.4251    5.0066   13.9853 H         1 RES1    0.0000
     10 C3         3.1495    3.1869   13.0998 C.ar      1 RES1    0.0000
     11 C4         2.6926    1.9161   13.3409 C.ar      1 RES1    0.0000
     12 H4         2.7321    1.2475   12.6667 H         1 RES1    0.0000
     13 C5         2.1716    1.6330   14.5994 C.ar      1 RES1    0.0000
     14 H5         1.8200    0.7626   14.7438 H         1 RES1    0.0000
     15 C6         3.5995    3.5508   11.7339 C.2       1 RES1    0.0000
     16 H6         3.8104    2.8577   11.1197 H         1 RES1    0.0000
     17 C7         4.0561    5.0413   10.0129 C.ar      1 RES1    0.0000
     18 C8         4.7599    6.2199    9.7609 C.ar      1 RES1    0.0000
     19 H7         4.9994    6.7880   10.4835 H         1 RES1    0.0000
     20 C9         5.1164    6.5725    8.4583 C.ar      1 RES1    0.0000
     21 H8         5.5989    7.3752    8.3031 H         1 RES1    0.0000
     22 C10        4.7662    5.7489    7.3773 C.ar      1 RES1    0.0000
     23 C11        4.0374    4.5816    7.6378 C.ar      1 RES1    0.0000
     24 H9         3.7679    4.0249    6.9165 H         1 RES1    0.0000
     25 C12        3.7004    4.2260    8.9480 C.ar      1 RES1    0.0000
     26 H10        3.2250    3.4197    9.1105 H         1 RES1    0.0000
     27 C13        5.1423    6.0978    5.9872 C.2       1 RES1    0.0000
     28 C14        5.2756    7.5201    5.5862 C.3       1 RES1    0.0000
     29 H11        5.5276    7.5710    4.6409 H         1 RES1    0.0000
     30 H12        5.9668    7.9499    6.1308 H         1 RES1    0.0000
     31 H13        4.4201    7.9792    5.7230 H         1 RES1    0.0000
     32 O2        -0.7516    8.3294   13.3317 O.3       2 RES2    0.0000
     33 H14       -0.7744    7.5829   13.8656 H         2 RES2    0.0000
     34 N4         2.6845    5.6603    1.5657 N.ar      2 RES2    0.0000
     35 N5         1.6107    7.9283    5.9712 N.2       2 RES2    0.0000
     36 N6        -0.3651    7.9984   12.0226 N.2       2 RES2    0.0000
     37 C15        2.1000    4.7869    2.3865 C.ar      2 RES2    0.0000
     38 H15        1.9373    3.9070    2.0663 H         2 RES2    0.0000
     39 C16        1.7182    5.0958    3.6836 C.ar      2 RES2    0.0000
     40 H16        1.3040    4.4397    4.2304 H         2 RES2    0.0000
     41 C17        1.9503    6.3834    4.1760 C.ar      2 RES2    0.0000
     42 C18        2.5768    7.2801    3.3074 C.ar      2 RES2    0.0000
     43 H17        2.7602    8.1672    3.5915 H         2 RES2    0.0000
     44 C19        2.9296    6.8790    2.0363 C.ar      2 RES2    0.0000
     45 H18        3.3683    7.5033    1.4708 H         2 RES2    0.0000
     46 C20        1.5338    6.7431    5.5183 C.2       2 RES2    0.0000
     47 H19        1.1877    6.0625    6.0846 H         2 RES2    0.0000
     48 C21        1.1889    8.1594    7.3202 C.ar      2 RES2    0.0000
     49 C22        0.5169    9.3350    7.6158 C.ar      2 RES2    0.0000
     50 H20        0.3293    9.9510    6.9165 H         2 RES2    0.0000
     51 C23        0.1142    9.6301    8.8993 C.ar      2 RES2    0.0000
     52 H21       -0.3565   10.4358    9.0779 H         2 RES2    0.0000
     53 C24        0.3989    8.7400    9.9441 C.ar      2 RES2    0.0000
     54 C25        1.0913    7.5698    9.6540 C.ar      2 RES2    0.0000
     55 H22        1.2897    6.9598   10.3557 H         2 RES2    0.0000
     56 C26        1.4985    7.2771    8.3637 C.ar      2 RES2    0.0000
     57 H23        1.9859    6.4815    8.1862 H         2 RES2    0.0000
     58 C27       -0.0476    9.0261   11.3464 C.2       2 RES2    0.0000
     59 C28       -0.0893   10.4442   11.8758 C.3       2 RES2    0.0000
     60 H24       -0.4151   10.4388   12.7999 H         2 RES2    0.0000
     61 H25       -0.6905   10.9829   11.3209 H         2 RES2    0.0000
     62 H26        0.8118   10.8291   11.8483 H         2 RES2    0.0000
@<TRIPOS>BOND
     1    1    2 1
     2    3    6 ar
     3    4   15 2
     4    5    1 1
     5    6    7 1
     6    8    6 ar
     7    9    8 1
     8   10    8 ar
     9   11   10 ar
    10   12   11 1
    11   13    3 ar
    12   14   13 1
    13   15   10 1
    14   16   15 1
    15   17    4 1
    16   18   17 ar
    17   19   18 1
    18   20   18 ar
    19   21   20 1
    20   22   20 ar
    21   23   22 ar
    22   24   23 1
    23   25   17 ar
    24   26   25 1
    25   27    5 2
    26   28   27 1
    27   29   28 1
    28   30   28 1
    29   31   28 1
    30   32   33 1
    31   34   37 ar
    32   35   46 2
    33   36   32 1
    34   37   38 1
    35   39   37 ar
    36   40   39 1
    37   41   39 ar
    38   42   41 ar
    39   43   42 1
    40   44   34 ar
    41   45   44 1
    42   46   41 1
    43   47   46 1
    44   48   35 1
    45   49   48 ar
    46   50   49 1
    47   51   49 ar
    48   52   51 1
    49   53   51 ar
    50   54   53 ar
    51   55   54 1
    52   56   48 ar
    53   57   56 1
    54   58   36 2
    55   59   58 1
    56   60   59 1
    57   61   59 1
    58   62   59 1
    59   11   13 ar
    60   22   27 1
    61   23   25 ar
    62   42   44 ar
    63   53   58 1
    64   54   56 ar
@<TRIPOS>SUBSTRUCTURE
     1 RES1 1
     2 RES2 32

