# MOL2 file generated by ConQuest
# Please check atom types

@<TRIPOS>MOLECULE
QIHHAQ
    32    34     1
SMALL
NO_CHARGES
****
Generated from CSD

@<TRIPOS>ATOM
      1 O1         0.6093   -1.6006    6.1009 O.2       1 RES1    0.0000
      2 O2         3.9810    1.0882    4.6885 O.2       1 RES1    0.0000
      3 O3         1.3431    1.9662    3.5419 O.3       1 RES1    0.0000
      4 N1         0.3589    1.9468    4.6557 N.3       1 RES1    0.0000
      5 N2         2.5064   -0.4250    5.5800 N.am      1 RES1    0.0000
      6 C1        -1.4259    0.8983    3.1878 C.ar      1 RES1    0.0000
      7 C2        -1.0873    0.6959    1.8584 C.ar      1 RES1    0.0000
      8 H1        -0.2302    0.4110    1.6375 H         1 RES1    0.0000
      9 C3        -2.0167    0.9154    0.8598 C.ar      1 RES1    0.0000
     10 H2        -1.7796    0.7776   -0.0291 H         1 RES1    0.0000
     11 C4        -3.2778    1.3326    1.1672 C.ar      1 RES1    0.0000
     12 H3        -3.8951    1.4813    0.4876 H         1 RES1    0.0000
     13 C5        -3.6380    1.5327    2.4722 C.ar      1 RES1    0.0000
     14 H4        -4.5007    1.8114    2.6815 H         1 RES1    0.0000
     15 C6        -2.7123    1.3178    3.4757 C.ar      1 RES1    0.0000
     16 H5        -2.9591    1.4587    4.3615 H         1 RES1    0.0000
     17 C7        -0.4399    0.7403    4.3182 C.3       1 RES1    0.0000
     18 H6        -0.9304    0.4600    5.1193 H         1 RES1    0.0000
     19 C8        -0.3394    3.2172    4.5809 C.3       1 RES1    0.0000
     20 H7        -0.6244    3.3736    3.6779 H         1 RES1    0.0000
     21 H8         0.2500    3.9232    4.8570 H         1 RES1    0.0000
     22 H9        -1.1065    3.1954    5.1591 H         1 RES1    0.0000
     23 C9         0.6981   -0.2491    4.0793 C.3       1 RES1    0.0000
     24 H10        0.4571   -0.9333    3.4195 H         1 RES1    0.0000
     25 C10        1.8461    0.6399    3.5897 C.3       1 RES1    0.0000
     26 H11        2.1679    0.3511    2.7107 H         1 RES1    0.0000
     27 C11        2.9274    0.4966    4.6445 C.2       1 RES1    0.0000
     28 C12        1.2104   -0.8563    5.3615 C.2       1 RES1    0.0000
     29 C13        3.3212   -0.8399    6.7072 C.3       1 RES1    0.0000
     30 H12        3.2894   -0.1658    7.3901 H         1 RES1    0.0000
     31 H13        4.2288   -0.9598    6.4190 H         1 RES1    0.0000
     32 H14        2.9851   -1.6674    7.0576 H         1 RES1    0.0000
@<TRIPOS>BOND
     1    1   28 2
     2    2   27 2
     3    3    4 1
     4    4   17 1
     5    5   27 1
     6    6    7 ar
     7    7    8 1
     8    9    7 ar
     9   10    9 1
    10   11    9 ar
    11   12   11 1
    12   13   11 ar
    13   14   13 1
    14   15    6 ar
    15   16   15 1
    16   17    6 1
    17   18   17 1
    18   19    4 1
    19   20   19 1
    20   21   19 1
    21   22   19 1
    22   23   17 1
    23   24   23 1
    24   25    3 1
    25   26   25 1
    26   27   25 1
    27   28    5 1
    28   29    5 1
    29   30   29 1
    30   31   29 1
    31   32   29 1
    32   13   15 ar
    33   23   28 1
    34   23   25 1
@<TRIPOS>SUBSTRUCTURE
     1 RES1 1

@<TRIPOS>CRYSIN
  11.8580    7.7841   13.3660  90.0000  97.5950  90.0000 231 1

