# MOL2 file generated by ConQuest
# Please check atom types

@<TRIPOS>MOLECULE
QIHKIE
    44    45     1
SMALL
NO_CHARGES
****
Generated from CSD

@<TRIPOS>ATOM
      1 C1         0.3032    4.5659    2.8356 C.ar      1 RES1    0.0000
      2 C2         0.2226    3.3881    2.0632 C.ar      1 RES1    0.0000
      3 C3        -0.9934    3.1608    1.4054 C.ar      1 RES1    0.0000
      4 H1        -1.0945    2.3699    0.8893 H         1 RES1    0.0000
      5 C4        -2.0512    4.0473    1.4806 C.ar      1 RES1    0.0000
      6 H2        -2.8673    3.8500    1.0357 H         1 RES1    0.0000
      7 C5        -1.9257    5.2197    2.2011 C.ar      1 RES1    0.0000
      8 H3        -2.6466    5.8376    2.2269 H         1 RES1    0.0000
      9 C6        -0.7513    5.5002    2.8878 C.ar      1 RES1    0.0000
     10 C7         1.3553    2.3347    1.9314 C.3       1 RES1    0.0000
     11 C8         1.0635    1.3480    0.7867 C.3       1 RES1    0.0000
     12 H4         0.9278    1.8452   -0.0464 H         1 RES1    0.0000
     13 H5         0.2562    0.8345    0.9963 H         1 RES1    0.0000
     14 H6         1.8226    0.7358    0.6814 H         1 RES1    0.0000
     15 C9         2.7178    2.9727    1.6250 C.3       1 RES1    0.0000
     16 H7         3.0075    3.5091    2.3924 H         1 RES1    0.0000
     17 H8         2.6389    3.5472    0.8358 H         1 RES1    0.0000
     18 H9         3.3766    2.2685    1.4516 H         1 RES1    0.0000
     19 C10        1.4463    1.4943    3.2124 C.3       1 RES1    0.0000
     20 H10        2.1106    0.7838    3.0910 H         1 RES1    0.0000
     21 H11        0.5718    1.0954    3.4039 H         1 RES1    0.0000
     22 H12        1.7144    2.0670    3.9612 H         1 RES1    0.0000
     23 C11       -0.6338    6.7874    3.6693 C.3       1 RES1    0.0000
     24 H13       -0.0569    7.4130    3.1839 H         1 RES1    0.0000
     25 H14       -0.2456    6.6006    4.5497 H         1 RES1    0.0000
     26 H15       -1.5229    7.1835    3.7815 H         1 RES1    0.0000
     27 C12        1.3761    4.3870    5.0647 C.3       1 RES1    0.0000
     28 H16        2.2367    3.9989    5.3290 H         1 RES1    0.0000
     29 H17        0.6738    3.7083    5.1453 H         1 RES1    0.0000
     30 H18        1.1665    5.1452    5.6490 H         1 RES1    0.0000
     31 C13        2.3069    5.8741    3.3491 C.ar      1 RES1    0.0000
     32 C14        2.2968    6.4481    2.0540 C.ar      1 RES1    0.0000
     33 H19        1.7082    6.1013    1.3941 H         1 RES1    0.0000
     34 C15        3.1252    7.5000    1.7355 C.ar      1 RES1    0.0000
     35 H20        3.0981    7.8861    0.8681 H         1 RES1    0.0000
     36 C16        4.0058    7.9935    2.6986 C.ar      1 RES1    0.0000
     37 C17        4.0688    7.4285    3.9660 C.ar      1 RES1    0.0000
     38 H21        4.6860    7.7624    4.6062 H         1 RES1    0.0000
     39 C18        3.2315    6.3814    4.2910 C.ar      1 RES1    0.0000
     40 H22        3.2766    5.9965    5.1584 H         1 RES1    0.0000
     41 N1         1.4539    4.8487    3.6723 N.pl3     1 RES1    0.0000
     42 N2         4.8647    9.1150    2.3760 N.pl3     1 RES1    0.0000
     43 O1         5.7110    9.4685    3.2056 O.2       1 RES1    0.0000
     44 O2         4.7152    9.6799    1.2871 O.2       1 RES1    0.0000
@<TRIPOS>BOND
     1    1    2 ar
     2    2    3 ar
     3    3    4 1
     4    5    3 ar
     5    6    5 1
     6    7    5 ar
     7    8    7 1
     8    9    1 ar
     9   10    2 1
    10   11   10 1
    11   12   11 1
    12   13   11 1
    13   14   11 1
    14   15   10 1
    15   16   15 1
    16   17   15 1
    17   18   15 1
    18   19   10 1
    19   20   19 1
    20   21   19 1
    21   22   19 1
    22   23    9 1
    23   24   23 1
    24   25   23 1
    25   26   23 1
    26   27   28 1
    27   29   27 1
    28   30   27 1
    29   31   32 ar
    30   32   33 1
    31   34   32 ar
    32   35   34 1
    33   36   34 ar
    34   37   36 ar
    35   38   37 1
    36   39   31 ar
    37   40   39 1
    38   41    1 1
    39   42   36 1
    40   43   42 2
    41   44   42 2
    42    7    9 ar
    43   27   41 1
    44   31   41 1
    45   37   39 ar
@<TRIPOS>SUBSTRUCTURE
     1 RES1 1

@<TRIPOS>CRYSIN
   8.5454    9.1933   10.2203  98.2150  92.9670  94.5730   2 1

