# MOL2 file generated by ConQuest
# Please check atom types

@<TRIPOS>MOLECULE
QIHKUQ
    43    44     1
SMALL
NO_CHARGES
****
Generated from CSD

@<TRIPOS>ATOM
      1 O1        -1.7756    7.7287    8.8216 O.3       1 RES1    0.0000
      2 H1        -2.5095    7.9226    8.5125 H         1 RES1    0.0000
      3 O2         0.6529    7.8817    5.5650 O.3       1 RES1    0.0000
      4 O3         2.4800    7.9605    6.8772 O.2       1 RES1    0.0000
      5 N1         0.4541    5.5507    7.3040 N.ar      1 RES1    0.0000
      6 N2        -0.8938    7.3742    7.7634 N.3       1 RES1    0.0000
      7 N3         1.5289    7.6840   10.1347 N.1       1 RES1    0.0000
      8 C1         0.6168    4.2324    7.1345 C.ar      1 RES1    0.0000
      9 H2         1.4398    3.9251    6.8288 H         1 RES1    0.0000
     10 C2        -0.3642    3.3181    7.3860 C.ar      1 RES1    0.0000
     11 H3        -0.2106    2.4107    7.2612 H         1 RES1    0.0000
     12 C3        -1.5697    3.7663    7.8221 C.ar      1 RES1    0.0000
     13 H4        -2.2501    3.1608    8.0112 H         1 RES1    0.0000
     14 C4        -1.7838    5.1218    7.9861 C.ar      1 RES1    0.0000
     15 H5        -2.6048    5.4489    8.2759 H         1 RES1    0.0000
     16 C5        -0.7272    5.9743    7.7010 C.ar      1 RES1    0.0000
     17 C6         0.3043    8.1883    7.8668 C.3       1 RES1    0.0000
     18 C7         1.0201    7.8961    9.1415 C.1       1 RES1    0.0000
     19 C8        -0.0072    9.6807    7.7643 C.ar      1 RES1    0.0000
     20 C9        -1.1002   10.1147    7.0534 C.ar      1 RES1    0.0000
     21 H6        -1.6896    9.5030    6.6732 H         1 RES1    0.0000
     22 C10       -1.3091   11.4797    6.9108 C.ar      1 RES1    0.0000
     23 H7        -2.0587   11.7816    6.4505 H         1 RES1    0.0000
     24 C11       -0.4265   12.3949    7.4373 C.ar      1 RES1    0.0000
     25 H8        -0.5762   13.3070    7.3329 H         1 RES1    0.0000
     26 C12        0.6645   11.9515    8.1119 C.ar      1 RES1    0.0000
     27 H9         1.2746   12.5616    8.4576 H         1 RES1    0.0000
     28 C13        0.8717   10.6053    8.2842 C.ar      1 RES1    0.0000
     29 H10        1.6160   10.3128    8.7585 H         1 RES1    0.0000
     30 C14        1.2980    7.9295    6.7040 C.2       1 RES1    0.0000
     31 C15        1.3798    7.8109    4.2674 C.3       1 RES1    0.0000
     32 C16        2.2097    6.5623    4.2237 C.3       1 RES1    0.0000
     33 H11        2.9061    6.6173    4.8815 H         1 RES1    0.0000
     34 H12        2.6000    6.4679    3.3515 H         1 RES1    0.0000
     35 H13        1.6540    5.8012    4.4091 H         1 RES1    0.0000
     36 C17        0.2308    7.7559    3.2928 C.3       1 RES1    0.0000
     37 H14       -0.3877    7.0749    3.5649 H         1 RES1    0.0000
     38 H15        0.5644    7.5546    2.4160 H         1 RES1    0.0000
     39 H16       -0.2166    8.6050    3.2770 H         1 RES1    0.0000
     40 C18        2.1748    9.0658    4.0783 C.3       1 RES1    0.0000
     41 H17        1.6101    9.8285    4.2274 H         1 RES1    0.0000
     42 H18        2.5197    9.0941    3.1829 H         1 RES1    0.0000
     43 H19        2.9036    9.0800    4.7026 H         1 RES1    0.0000
@<TRIPOS>BOND
     1    1    2 1
     2    3   30 1
     3    4   30 2
     4    5    8 ar
     5    6    1 1
     6    7   18 3
     7    8    9 1
     8   10    8 ar
     9   11   10 1
    10   12   10 ar
    11   13   12 1
    12   14   12 ar
    13   15   14 1
    14   16    5 ar
    15   17    6 1
    16   18   17 1
    17   19   17 1
    18   20   19 ar
    19   21   20 1
    20   22   20 ar
    21   23   22 1
    22   24   22 ar
    23   25   24 1
    24   26   24 ar
    25   27   26 1
    26   28   19 ar
    27   29   28 1
    28   30   17 1
    29   31    3 1
    30   32   31 1
    31   33   32 1
    32   34   32 1
    33   35   32 1
    34   36   31 1
    35   37   36 1
    36   38   36 1
    37   39   36 1
    38   40   31 1
    39   41   40 1
    40   42   40 1
    41   43   40 1
    42    6   16 1
    43   14   16 ar
    44   26   28 ar
@<TRIPOS>SUBSTRUCTURE
     1 RES1 1

@<TRIPOS>CRYSIN
   6.2580   15.7256    9.5073  90.0000 101.4660  90.0000   4 1

