# MOL2 file generated by ConQuest
# Please check atom types

@<TRIPOS>MOLECULE
QIHREE
    42    45     1
SMALL
NO_CHARGES
****
Generated from CSD

@<TRIPOS>ATOM
      1 N1        -0.4339    0.5971   11.9904 N.3       1 RES1    0.0000
      2 O1         0.4688    0.6363   10.8699 O.3       1 RES1    0.0000
      3 C1         1.5253   -0.2269   11.1255 C.3       1 RES1    0.0000
      4 H1         2.3288    0.0897   10.6846 H         1 RES1    0.0000
      5 H2         1.3199   -1.1137   10.7884 H         1 RES1    0.0000
      6 C2         1.7379   -0.2764   12.6167 C.3       1 RES1    0.0000
      7 H3         1.7974   -1.2086   12.9149 H         1 RES1    0.0000
      8 C3         2.9166    0.5156   13.1556 C.3       1 RES1    0.0000
      9 H4         3.4250    0.9343   12.4294 H         1 RES1    0.0000
     10 C4         2.3391    1.5736   14.1125 C.3       1 RES1    0.0000
     11 H5         2.8040    2.4326   14.0436 H         1 RES1    0.0000
     12 C5         0.8590    1.6932   13.8150 C.3       1 RES1    0.0000
     13 H6         0.3561    1.8324   14.6447 H         1 RES1    0.0000
     14 C6         0.4418    0.3671   13.1548 C.3       1 RES1    0.0000
     15 H7         0.0063   -0.2217   13.8054 H         1 RES1    0.0000
     16 O2         0.6893    2.8049   12.9438 O.3       1 RES1    0.0000
     17 H8         0.0801    2.4584   12.4315 H         1 RES1    0.0000
     18 O3         3.7518   -0.2939   13.9678 O.3       1 RES1    0.0000
     19 O4         2.5224    0.9559   15.3896 O.3       1 RES1    0.0000
     20 C7         3.7265    0.1949   15.3084 C.3       1 RES1    0.0000
     21 C8         3.6233   -0.9714   16.2437 C.3       1 RES1    0.0000
     22 H9         4.4292   -1.4911   16.1974 H         1 RES1    0.0000
     23 H10        2.8754   -1.5179   15.9936 H         1 RES1    0.0000
     24 H11        3.5004   -0.6517   17.1421 H         1 RES1    0.0000
     25 C9         4.9440    1.0477   15.5546 C.3       1 RES1    0.0000
     26 H12        5.7325    0.5043   15.4916 H         1 RES1    0.0000
     27 H13        4.8909    1.4365   16.4308 H         1 RES1    0.0000
     28 H14        4.9837    1.7458   14.8970 H         1 RES1    0.0000
     29 C10       -1.4000   -0.4692   11.7920 C.3       1 RES1    0.0000
     30 H15       -1.9687   -0.5269   12.5759 H         1 RES1    0.0000
     31 H16       -0.9257   -1.3107   11.7083 H         1 RES1    0.0000
     32 C11       -2.2701   -0.2743   10.5705 C.ar      1 RES1    0.0000
     33 C12       -2.4827    0.9683   10.0080 C.ar      1 RES1    0.0000
     34 H17       -2.0599    1.7159   10.3649 H         1 RES1    0.0000
     35 C13       -3.3267    1.1096    8.9100 C.ar      1 RES1    0.0000
     36 H18       -3.4718    1.9531    8.5470 H         1 RES1    0.0000
     37 C14       -3.9430    0.0237    8.3599 C.ar      1 RES1    0.0000
     38 H19       -4.4943    0.1248    7.6189 H         1 RES1    0.0000
     39 C15       -3.7431   -1.2168    8.9100 C.ar      1 RES1    0.0000
     40 H20       -4.1722   -1.9582    8.5488 H         1 RES1    0.0000
     41 C16       -2.8999   -1.3684   10.0067 C.ar      1 RES1    0.0000
     42 H21       -2.7580   -2.2150   10.3623 H         1 RES1    0.0000
@<TRIPOS>BOND
     1    1    2 1
     2    2    3 1
     3    3    4 1
     4    5    3 1
     5    6    3 1
     6    7    6 1
     7    8    6 1
     8    9    8 1
     9   10    8 1
    10   11   10 1
    11   12   10 1
    12   13   12 1
    13   14    1 1
    14   15   14 1
    15   16   12 1
    16   17   16 1
    17   18    8 1
    18   19   10 1
    19   20   18 1
    20   21   20 1
    21   22   21 1
    22   23   21 1
    23   24   21 1
    24   25   20 1
    25   26   25 1
    26   27   25 1
    27   28   25 1
    28   29    1 1
    29   30   29 1
    30   31   29 1
    31   32   29 1
    32   33   32 ar
    33   34   33 1
    34   35   33 ar
    35   36   35 1
    36   37   35 ar
    37   38   37 1
    38   39   37 ar
    39   40   39 1
    40   41   32 ar
    41   42   41 1
    42    6   14 1
    43   12   14 1
    44   19   20 1
    45   39   41 ar
@<TRIPOS>SUBSTRUCTURE
     1 RES1 1

@<TRIPOS>CRYSIN
   7.9320   10.3120   18.5240  90.0000  90.0000  90.0000  19 1

