# MOL2 file generated by ConQuest
# Please check atom types

@<TRIPOS>MOLECULE
QIHRUU
    32    34     1
SMALL
NO_CHARGES
****
Generated from CSD

@<TRIPOS>ATOM
      1 O1         1.5775    1.8130   30.2405 O.3       1 RES1    0.0000
      2 C1         1.5470   -0.3566   29.3343 C.3       1 RES1    0.0000
      3 H1         1.4543   -1.2263   29.7767 H         1 RES1    0.0000
      4 N1         2.3418    0.5982   30.1378 N.3       1 RES1    0.0000
      5 O2         1.6391   -1.6260   27.2898 O.3       1 RES1    0.0000
      6 H2         2.1702   -1.8826   26.7195 H         1 RES1    0.0000
      7 C2         2.1685   -0.4785   27.9504 C.3       1 RES1    0.0000
      8 H3         3.1469   -0.5119   27.9983 H         1 RES1    0.0000
      9 O3         1.8882    0.8087   25.8539 O.3       1 RES1    0.0000
     10 H4         1.4094    0.2439   25.5024 H         1 RES1    0.0000
     11 C3         1.6862    0.7926   27.2615 C.3       1 RES1    0.0000
     12 H5         2.1702    1.5518   27.6482 H         1 RES1    0.0000
     13 O4        -0.3183    2.2167   27.5365 O.3       1 RES1    0.0000
     14 H6         0.2630    2.7683   27.7119 H         1 RES1    0.0000
     15 C4         0.2152    0.9036   27.6761 C.3       1 RES1    0.0000
     16 H7        -0.3073    0.3008   27.1065 H         1 RES1    0.0000
     17 C5         0.1767    0.3480   29.1309 C.3       1 RES1    0.0000
     18 H8        -0.5686   -0.2761   29.2557 H         1 RES1    0.0000
     19 C6         0.2037    1.3948   30.2109 C.3       1 RES1    0.0000
     20 H9        -0.3816    2.1368   29.9921 H         1 RES1    0.0000
     21 H10       -0.0656    1.0209   31.0648 H         1 RES1    0.0000
     22 C7         2.8407    0.1691   31.3987 C.ar      1 RES1    0.0000
     23 C8         3.4887   -1.0595   31.4845 C.ar      1 RES1    0.0000
     24 H11        3.4795   -1.6433   30.7605 H         1 RES1    0.0000
     25 C9         4.1512   -1.4132   32.6578 C.ar      1 RES1    0.0000
     26 H12        4.6070   -2.2225   32.7033 H         1 RES1    0.0000
     27 C10        4.1373   -0.5723   33.7553 C.ar      1 RES1    0.0000
     28 H13        4.5742   -0.8150   34.5396 H         1 RES1    0.0000
     29 C11        3.4703    0.6258   33.6737 C.ar      1 RES1    0.0000
     30 H14        3.4508    1.1883   34.4135 H         1 RES1    0.0000
     31 C12        2.8235    1.0129   32.5048 C.ar      1 RES1    0.0000
     32 H15        2.3820    1.8302   32.4631 H         1 RES1    0.0000
@<TRIPOS>BOND
     1    1    4 1
     2    2    3 1
     3    4    2 1
     4    5    6 1
     5    7    2 1
     6    8    7 1
     7    9   10 1
     8   11    7 1
     9   12   11 1
    10   13   14 1
    11   15   11 1
    12   16   15 1
    13   17    2 1
    14   18   17 1
    15   19    1 1
    16   20   19 1
    17   21   19 1
    18   22    4 1
    19   23   22 ar
    20   24   23 1
    21   25   23 ar
    22   26   25 1
    23   27   25 ar
    24   28   27 1
    25   29   27 ar
    26   30   29 1
    27   31   22 ar
    28   32   31 1
    29    5    7 1
    30    9   11 1
    31   13   15 1
    32   15   17 1
    33   17   19 1
    34   29   31 ar
@<TRIPOS>SUBSTRUCTURE
     1 RES1 1

@<TRIPOS>CRYSIN
   5.7551    5.7518   34.4590  90.0000  90.0000  90.0000  19 1

