# MOL2 file generated by ConQuest
# Please check atom types

@<TRIPOS>MOLECULE
QIHROO
    56    49     2
SMALL
NO_CHARGES
****
Generated from CSD

@<TRIPOS>ATOM
      1 O1         8.6267    2.2610    1.0084 O.3       1 RES1    0.0000
      2 N1         7.3789    2.7055    0.4673 N.3       1 RES1    0.0000
      3 C1         8.3864    0.9163    1.4257 C.3       1 RES1    0.0000
      4 H1         9.0759    0.6162    2.0393 H         1 RES1    0.0000
      5 H2         8.3612    0.3168    0.6635 H         1 RES1    0.0000
      6 O2         8.3341    1.3645    4.1748 O.3       1 RES1    0.0000
      7 C2         7.0407    0.9725    2.1130 C.3       1 RES1    0.0000
      8 H3         6.5753    0.1117    2.0630 H         1 RES1    0.0000
      9 C3         7.0403    1.5279    3.5412 C.3       1 RES1    0.0000
     10 H4         6.3455    1.0864    4.0735 H         1 RES1    0.0000
     11 O3         7.4430    0.5045    6.0278 O.2       1 RES1    0.0000
     12 O4         6.2252    3.5131    4.6496 O.3       1 RES1    0.0000
     13 C4         6.7279    3.0063    3.4013 C.3       1 RES1    0.0000
     14 H5         7.5433    3.4911    3.1551 H         1 RES1    0.0000
     15 O5         6.7640    5.5826    4.0286 O.2       1 RES1    0.0000
     16 C5         5.7385    3.0580    2.2492 C.3       1 RES1    0.0000
     17 H6         5.6753    3.9553    1.8606 H         1 RES1    0.0000
     18 O6         4.4719    2.6044    2.7663 O.3       1 RES1    0.0000
     19 C6         6.3209    2.0551    1.2695 C.3       1 RES1    0.0000
     20 H7         5.6262    1.6646    0.6997 H         1 RES1    0.0000
     21 O7         3.5167    3.2236    0.8422 O.2       1 RES1    0.0000
     22 C7         7.3131    2.5079   -0.9409 C.ar      1 RES1    0.0000
     23 C8         6.1179    2.8255   -1.5844 C.ar      1 RES1    0.0000
     24 H8         5.3928    3.1233   -1.0846 H         1 RES1    0.0000
     25 C9         5.9981    2.7032   -2.9489 C.ar      1 RES1    0.0000
     26 H9         5.1919    2.9022   -3.3675 H         1 RES1    0.0000
     27 C10        7.0736    2.2853   -3.6899 C.ar      1 RES1    0.0000
     28 H10        6.9974    2.1949   -4.6133 H         1 RES1    0.0000
     29 C11        8.2547    2.0035   -3.0701 C.ar      1 RES1    0.0000
     30 H11        8.9837    1.7322   -3.5800 H         1 RES1    0.0000
     31 C12        8.3907    2.1136   -1.6956 C.ar      1 RES1    0.0000
     32 H12        9.2046    1.9229   -1.2883 H         1 RES1    0.0000
     33 C13        8.3941    0.8350    5.3968 C.2       1 RES1    0.0000
     34 C14        9.8120    0.7362    5.8579 C.3       1 RES1    0.0000
     35 H13       10.3963    1.0659    5.1719 H         1 RES1    0.0000
     36 H14       10.0244   -0.1808    6.0466 H         1 RES1    0.0000
     37 H15        9.9267    1.2612    6.6539 H         1 RES1    0.0000
     38 C15        6.2656    4.8449    4.8220 C.2       1 RES1    0.0000
     39 C16        5.6124    5.2354    6.0991 C.3       1 RES1    0.0000
     40 H16        5.2944    4.4491    6.5489 H         1 RES1    0.0000
     41 H17        4.8729    5.8197    5.9154 H         1 RES1    0.0000
     42 H18        6.2479    5.6890    6.6576 H         1 RES1    0.0000
     43 C17        3.4114    2.7776    1.9381 C.2       1 RES1    0.0000
     44 C18        2.1433    2.3484    2.6116 C.3       1 RES1    0.0000
     45 H19        2.3423    2.0255    3.4937 H         1 RES1    0.0000
     46 H20        1.7302    1.6479    2.1005 H         1 RES1    0.0000
     47 H21        1.5439    3.0960    2.6728 H         1 RES1    0.0000
     48 H22        9.8350    0.3654    6.7438 Du        2 SUP2    0.0000
     49 H23       10.2069    1.6114    5.8679 Du        2 SUP2    0.0000
     50 H24       10.3046    0.1694    5.2606 Du        2 SUP2    0.0000
     51 H25        5.6497    6.1889    6.1990 Du        2 SUP2    0.0000
     52 H26        6.0702    4.8183    6.8326 Du        2 SUP2    0.0000
     53 H27        4.6962    4.9498    6.0903 Du        2 SUP2    0.0000
     54 H28        1.4020    2.4874    2.0168 Du        2 SUP2    0.0000
     55 H29        2.0141    2.8650    3.4100 Du        2 SUP2    0.0000
     56 H30        2.2004    1.4169    2.8390 Du        2 SUP2    0.0000
@<TRIPOS>BOND
     1    1    2 1
     2    2   19 1
     3    3    1 1
     4    4    3 1
     5    5    3 1
     6    6    9 1
     7    7    3 1
     8    8    7 1
     9    9    7 1
    10   10    9 1
    11   11   33 2
    12   12   13 1
    13   13    9 1
    14   14   13 1
    15   15   38 2
    16   16   13 1
    17   17   16 1
    18   18   16 1
    19   19    7 1
    20   20   19 1
    21   21   43 2
    22   22    2 1
    23   23   22 ar
    24   24   23 1
    25   25   23 ar
    26   26   25 1
    27   27   25 ar
    28   28   27 1
    29   29   27 ar
    30   30   29 1
    31   31   22 ar
    32   32   31 1
    33   33    6 1
    34   34   33 1
    35   35   34 1
    36   36   34 1
    37   37   34 1
    38   38   12 1
    39   39   38 1
    40   40   39 1
    41   41   39 1
    42   42   39 1
    43   43   18 1
    44   44   43 1
    45   45   44 1
    46   46   44 1
    47   47   44 1
    48   16   19 1
    49   29   31 ar
@<TRIPOS>SUBSTRUCTURE
     1 RES1 1
     2 SUP2 48

@<TRIPOS>CRYSIN
   9.5652    7.5975   12.4961  90.0000  90.5520  90.0000   4 1

