# MOL2 file generated by ConQuest
# Please check atom types

@<TRIPOS>MOLECULE
QIHRII
    53    52     2
SMALL
NO_CHARGES
****
Generated from CSD

@<TRIPOS>ATOM
      1 O1         3.8795    0.1682    8.4103 O.3       1 RES1    0.0000
      2 N1         2.6626   -0.3819    7.8482 N.3       1 RES1    0.0000
      3 C1         4.0066    1.5009    7.8826 C.3       1 RES1    0.0000
      4 H1         4.4116    1.4822    7.0006 H         1 RES1    0.0000
      5 H2         4.5525    2.0497    8.4656 H         1 RES1    0.0000
      6 O2         1.9432    4.2997    8.6779 O.3       1 RES1    0.0000
      7 C2         2.5729    2.0470    7.8079 C.3       1 RES1    0.0000
      8 H3         2.4073    2.5064    6.9588 H         1 RES1    0.0000
      9 O3         4.1377    4.6602    8.7616 O.2       1 RES1    0.0000
     10 C3         2.1511    2.9110    9.0083 C.3       1 RES1    0.0000
     11 H4         2.8015    2.8255    9.7363 H         1 RES1    0.0000
     12 O4         0.4907    2.7427   10.7693 O.3       1 RES1    0.0000
     13 C4         0.8179    2.3394    9.4224 C.3       1 RES1    0.0000
     14 H5         0.1192    2.6372    8.8050 H         1 RES1    0.0000
     15 C5         1.0386    0.8466    9.2773 C.3       1 RES1    0.0000
     16 H6         1.6239    0.5141    9.9904 H         1 RES1    0.0000
     17 O5        -1.6604    2.9136   10.2266 O.2       1 RES1    0.0000
     18 O6        -0.1961    0.1042    9.2534 O.3       1 RES1    0.0000
     19 C6         1.7353    0.7424    7.9215 C.3       1 RES1    0.0000
     20 H7         1.0751    0.6930    7.1994 H         1 RES1    0.0000
     21 O7        -0.1173   -0.2163   11.4719 O.2       1 RES1    0.0000
     22 C7         2.9434   -0.7745    6.4355 C.3       1 RES1    0.0000
     23 H8         3.7465   -1.3166    6.4056 H         1 RES1    0.0000
     24 H9         3.0991    0.0227    5.9063 H         1 RES1    0.0000
     25 C8         1.7993   -1.5476    5.8466 C.ar      1 RES1    0.0000
     26 C9         1.1056   -1.0469    4.7613 C.ar      1 RES1    0.0000
     27 H10        1.3263   -0.2096    4.4219 H         1 RES1    0.0000
     28 C10        0.1054   -1.7613    4.1812 C.ar      1 RES1    0.0000
     29 H11       -0.3449   -1.4141    3.4457 H         1 RES1    0.0000
     30 C11       -0.2306   -2.9470    4.6596 C.ar      1 RES1    0.0000
     31 H12       -0.8987   -3.4357    4.2365 H         1 RES1    0.0000
     32 C12        0.3813   -3.4638    5.7554 C.ar      1 RES1    0.0000
     33 H13        0.1143   -4.2823    6.1052 H         1 RES1    0.0000
     34 C13        1.4101   -2.7467    6.3429 C.ar      1 RES1    0.0000
     35 H14        1.8407   -3.0939    7.0903 H         1 RES1    0.0000
     36 C14        3.0311    5.0808    8.6211 C.2       1 RES1    0.0000
     37 C15        2.6507    6.5042    8.3744 C.3       1 RES1    0.0000
     38 H15        1.6959    6.5710    8.2997 H         1 RES1    0.0000
     39 H16        3.0577    6.8060    7.5597 H         1 RES1    0.0000
     40 H17        2.9542    7.0477    9.1039 H         1 RES1    0.0000
     41 C16       -0.7903    2.9911   11.0473 C.2       1 RES1    0.0000
     42 C17       -0.9677    3.3289   12.5018 C.3       1 RES1    0.0000
     43 H18       -0.1123    3.3249   12.9384 H         1 RES1    0.0000
     44 H19       -1.5402    2.6773   12.9144 H         1 RES1    0.0000
     45 H20       -1.3638    4.1995   12.5826 H         1 RES1    0.0000
     46 C18       -0.6730   -0.3338   10.4269 C.2       1 RES1    0.0000
     47 C19       -2.0151   -0.9841   10.2416 C.3       1 RES1    0.0000
     48 H21       -2.2556   -0.9601    9.3132 H         1 RES1    0.0000
     49 H22       -2.6734   -0.5114   10.7558 H         1 RES1    0.0000
     50 H23       -1.9718   -1.8961   10.5376 H         1 RES1    0.0000
     51 H24        3.4420    7.0464    8.3430 Du        2 SUP2    0.0000
     52 H25        2.0802    6.8100    9.0830 Du        2 SUP2    0.0000
     53 H26        2.1846    6.5697    7.5373 Du        2 SUP2    0.0000
@<TRIPOS>BOND
     1    1    2 1
     2    2   19 1
     3    3    1 1
     4    4    3 1
     5    5    3 1
     6    6   10 1
     7    7    3 1
     8    8    7 1
     9    9   36 2
    10   10    7 1
    11   11   10 1
    12   12   13 1
    13   13   10 1
    14   14   13 1
    15   15   13 1
    16   16   15 1
    17   17   41 2
    18   18   15 1
    19   19    7 1
    20   20   19 1
    21   21   46 2
    22   22    2 1
    23   23   22 1
    24   24   22 1
    25   25   22 1
    26   26   25 ar
    27   27   26 1
    28   28   26 ar
    29   29   28 1
    30   30   28 ar
    31   31   30 1
    32   32   30 ar
    33   33   32 1
    34   34   25 ar
    35   35   34 1
    36   36    6 1
    37   37   36 1
    38   38   37 1
    39   39   37 1
    40   40   37 1
    41   41   12 1
    42   42   41 1
    43   43   42 1
    44   44   42 1
    45   45   42 1
    46   46   18 1
    47   47   46 1
    48   48   47 1
    49   49   47 1
    50   50   47 1
    51   15   19 1
    52   32   34 ar
@<TRIPOS>SUBSTRUCTURE
     1 RES1 1
     2 SUP2 51

@<TRIPOS>CRYSIN
   9.8540   13.3530   14.9490  90.0000  90.0000  90.0000  19 1

