# MOL2 file generated by ConQuest
# Please check atom types

@<TRIPOS>MOLECULE
QIJDAO02
    20    21     1
SMALL
NO_CHARGES
****
Generated from CSD

@<TRIPOS>ATOM
      1 O1         3.6639    7.8392    2.0798 O.2       1 RES1    0.0000
      2 O2         5.1346    7.4216    3.6681 O.2       1 RES1    0.0000
      3 N1         5.4767    6.5270    1.6799 N.3       1 RES1    0.0000
      4 N2         4.7206    7.3074    2.5101 N.pl3     1 RES1    0.0000
      5 C1         5.3381    6.4286    0.2748 C.ar      1 RES1    0.0000
      6 C2         6.4363    5.6383   -0.2068 C.ar      1 RES1    0.0000
      7 C3         6.5611    5.3759   -1.5674 C.ar      1 RES1    0.0000
      8 C4         5.5809    5.9104   -2.4413 C.ar      1 RES1    0.0000
      9 C5         4.4939    6.6973   -1.9473 C.ar      1 RES1    0.0000
     10 C6         4.3495    6.9710   -0.5761 C.ar      1 RES1    0.0000
     11 C7         7.3415    5.1682    0.9226 C.3       1 RES1    0.0000
     12 C8         6.7468    5.8921    2.1700 C.3       1 RES1    0.0000
     13 H1         7.3965    4.7703   -1.9543 H         1 RES1    0.0000
     14 H2         5.6772    5.7037   -3.5025 H         1 RES1    0.0000
     15 H3         3.7272    7.1123   -2.6075 H         1 RES1    0.0000
     16 H4         3.5134    7.5725   -0.2038 H         1 RES1    0.0000
     17 H5         8.3802    5.4147    0.7612 H         1 RES1    0.0000
     18 H6         7.3363    4.0846    1.0273 H         1 RES1    0.0000
     19 H7         6.5311    5.2210    2.9786 H         1 RES1    0.0000
     20 H8         7.3763    6.6728    2.5413 H         1 RES1    0.0000
@<TRIPOS>BOND
     1    1    4 2
     2    2    4 2
     3    3    4 1
     4    5    3 1
     5    6    5 ar
     6    7    6 ar
     7    8    7 ar
     8    9    8 ar
     9   10    5 ar
    10   11    6 1
    11   12    3 1
    12   13    7 1
    13   14    8 1
    14   15    9 1
    15   16   10 1
    16   17   11 1
    17   18   11 1
    18   19   12 1
    19   20   12 1
    20    9   10 ar
    21   11   12 1
@<TRIPOS>SUBSTRUCTURE
     1 RES1 1

@<TRIPOS>CRYSIN
   5.7913    8.2458    8.9223 116.8230 104.5890  91.6020   2 1

