# MOL2 file generated by ConQuest
# Please check atom types

@<TRIPOS>MOLECULE
QIJDIW
    68    71     1
SMALL
NO_CHARGES
****
Generated from CSD

@<TRIPOS>ATOM
      1 O1         3.7797    2.8030    7.6280 O.3       1 RES1    0.0000
      2 O2         1.8835    2.0862    5.7607 O.3       1 RES1    0.0000
      3 O3        -0.0672    4.0080    6.4475 O.3       1 RES1    0.0000
      4 O4         1.1398    6.2981    8.4512 O.3       1 RES1    0.0000
      5 O5         2.3147    2.3408    9.3836 O.3       1 RES1    0.0000
      6 O6         0.4855    3.2010   11.4145 O.3       1 RES1    0.0000
      7 O7         0.9979    0.0507    5.8529 O.2       1 RES1    0.0000
      8 O8         1.1786    5.0400    4.8853 O.2       1 RES1    0.0000
      9 O9         0.6219    4.0797   13.4314 O.2       1 RES1    0.0000
     10 N1         0.1989    5.3502    8.9985 N.3       1 RES1    0.0000
     11 C1         2.6928    2.0442    8.0575 C.3       1 RES1    0.0000
     12 C2         1.5212    2.3334    7.1304 C.3       1 RES1    0.0000
     13 C3         1.1045    3.7707    7.2630 C.3       1 RES1    0.0000
     14 C4         0.7269    4.0327    8.7095 C.3       1 RES1    0.0000
     15 C5         1.9302    3.7065    9.5919 C.3       1 RES1    0.0000
     16 C6         1.7004    3.9240   11.0509 C.3       1 RES1    0.0000
     17 C7         4.9948    2.4916    8.3116 C.3       1 RES1    0.0000
     18 C8         1.5259    0.9109    5.2190 C.2       1 RES1    0.0000
     19 C9         1.8611    0.8305    3.7921 C.ar      1 RES1    0.0000
     20 C10        2.5411    1.8353    3.1414 C.ar      1 RES1    0.0000
     21 C11        2.8798    1.6944    1.8151 C.ar      1 RES1    0.0000
     22 C12        2.5253    0.5833    1.1365 C.ar      1 RES1    0.0000
     23 C13        1.8356   -0.4103    1.7606 C.ar      1 RES1    0.0000
     24 C14        1.5079   -0.3016    3.0884 C.ar      1 RES1    0.0000
     25 C15        0.1123    4.6581    5.2762 C.2       1 RES1    0.0000
     26 C16       -1.1571    4.8052    4.5209 C.ar      1 RES1    0.0000
     27 C17       -2.3982    4.7817    5.1171 C.ar      1 RES1    0.0000
     28 C18       -3.5341    4.9251    4.3520 C.ar      1 RES1    0.0000
     29 C19       -3.4439    5.0647    3.0102 C.ar      1 RES1    0.0000
     30 C20       -2.2219    5.0487    2.4057 C.ar      1 RES1    0.0000
     31 C21       -1.0883    4.9510    3.1624 C.ar      1 RES1    0.0000
     32 C22        0.8972    7.5427    9.0669 C.3       1 RES1    0.0000
     33 C23        0.0352    3.3814   12.6440 C.2       1 RES1    0.0000
     34 C24       -1.2249    2.6510   12.8925 C.ar      1 RES1    0.0000
     35 C25       -1.7637    2.6943   14.1658 C.ar      1 RES1    0.0000
     36 C26       -2.9213    1.9577   14.4227 C.ar      1 RES1    0.0000
     37 C27       -3.5262    1.2643   13.4538 C.ar      1 RES1    0.0000
     38 C28       -3.0180    1.2458   12.1958 C.ar      1 RES1    0.0000
     39 C29       -1.8585    1.9231   11.9291 C.ar      1 RES1    0.0000
     40 H1         2.8756    1.0097    8.1077 H         1 RES1    0.0000
     41 H2         0.6929    1.7241    7.3719 H         1 RES1    0.0000
     42 H3         1.7898    4.3961    6.9670 H         1 RES1    0.0000
     43 H4        -0.0054    3.3209    8.9818 H         1 RES1    0.0000
     44 H5         2.7172    4.3343    9.3322 H         1 RES1    0.0000
     45 H6         2.4781    3.4284   11.5550 H         1 RES1    0.0000
     46 H7         1.4667    4.9090   11.2310 H         1 RES1    0.0000
     47 H8         4.9372    2.7919    9.2149 H         1 RES1    0.0000
     48 H9         5.1359    1.5498    8.3130 H         1 RES1    0.0000
     49 H10        5.7355    2.9167    7.8843 H         1 RES1    0.0000
     50 H11        2.7657    2.6312    3.6120 H         1 RES1    0.0000
     51 H12        3.3620    2.3902    1.3683 H         1 RES1    0.0000
     52 H13        2.7480    0.4919    0.2150 H         1 RES1    0.0000
     53 H14        1.5660   -1.1889    1.2761 H         1 RES1    0.0000
     54 H15        1.0225   -1.0097    3.5352 H         1 RES1    0.0000
     55 H16       -2.4559    4.6606    6.0623 H         1 RES1    0.0000
     56 H17       -4.3905    4.9176    4.7736 H         1 RES1    0.0000
     57 H18       -4.2237    5.1858    2.4824 H         1 RES1    0.0000
     58 H19       -2.1287    5.1389    1.4520 H         1 RES1    0.0000
     59 H20       -0.2187    4.9955    2.7589 H         1 RES1    0.0000
     60 H21       -0.5427    5.4281    8.4805 H         1 RES1    0.0000
     61 H22        0.8915    7.4352   10.0205 H         1 RES1    0.0000
     62 H23        1.5436    8.1730    8.8156 H         1 RES1    0.0000
     63 H24        0.0112    7.8752    8.8114 H         1 RES1    0.0000
     64 H25       -1.3302    3.2554   14.8416 H         1 RES1    0.0000
     65 H26       -3.2529    2.0059   15.3289 H         1 RES1    0.0000
     66 H27       -4.3148    0.8083   13.6786 H         1 RES1    0.0000
     67 H28       -3.4224    0.7106   11.5326 H         1 RES1    0.0000
     68 H29       -1.4534    1.8971   11.0677 H         1 RES1    0.0000
@<TRIPOS>BOND
     1    1   11 1
     2    2   12 1
     3    3   13 1
     4    4   10 1
     5    5   11 1
     6    6   16 1
     7    7   18 2
     8    8   25 2
     9    9   33 2
    10   10   14 1
    11   11   12 1
    12   12   13 1
    13   13   14 1
    14   14   15 1
    15   15    5 1
    16   16   15 1
    17   17    1 1
    18   18    2 1
    19   19   18 1
    20   20   19 ar
    21   21   20 ar
    22   22   21 ar
    23   23   22 ar
    24   24   19 ar
    25   25    3 1
    26   26   25 1
    27   27   26 ar
    28   28   27 ar
    29   29   28 ar
    30   30   29 ar
    31   31   26 ar
    32   32    4 1
    33   33    6 1
    34   34   33 1
    35   35   34 ar
    36   36   35 ar
    37   37   36 ar
    38   38   37 ar
    39   39   34 ar
    40   40   11 1
    41   41   12 1
    42   42   13 1
    43   43   14 1
    44   44   15 1
    45   45   16 1
    46   46   16 1
    47   47   17 1
    48   48   17 1
    49   49   17 1
    50   50   20 1
    51   51   21 1
    52   52   22 1
    53   53   23 1
    54   54   24 1
    55   55   27 1
    56   56   28 1
    57   57   29 1
    58   58   30 1
    59   59   31 1
    60   60   10 1
    61   61   32 1
    62   62   32 1
    63   63   32 1
    64   64   35 1
    65   65   36 1
    66   66   37 1
    67   67   38 1
    68   68   39 1
    69   23   24 ar
    70   30   31 ar
    71   38   39 ar
@<TRIPOS>SUBSTRUCTURE
     1 RES1 1

@<TRIPOS>CRYSIN
   8.0260   12.3590   14.0560  90.0000  96.6300  90.0000   4 1

