# MOL2 file generated by ConQuest
# Please check atom types

@<TRIPOS>MOLECULE
QIJMED
    52    54     1
SMALL
NO_CHARGES
****
Generated from CSD

@<TRIPOS>ATOM
      1 O1         0.5445    4.8815   -0.4606 O.2       1 RES1    0.0000
      2 O2        -0.1086    4.1471    1.4725 O.2       1 RES1    0.0000
      3 O3         2.1064    7.9720    5.6360 O.2       1 RES1    0.0000
      4 O4         0.8317    6.2243    5.4517 O.2       1 RES1    0.0000
      5 N1         2.2737    6.8582   -0.6310 N.3       1 RES1    0.0000
      6 H1         1.7964    6.2320   -1.0504 H         1 RES1    0.0000
      7 N2         0.5280    4.9522    0.7847 N.pl3     1 RES1    0.0000
      8 N3         1.5443    7.0970    4.9445 N.pl3     1 RES1    0.0000
      9 N4         3.0296    9.1880    3.4874 N.3       1 RES1    0.0000
     10 H2         3.0060    9.1965    4.3875 H         1 RES1    0.0000
     11 C1         2.0707    6.9552    0.7046 C.ar      1 RES1    0.0000
     12 C2         1.2649    6.0030    1.4296 C.ar      1 RES1    0.0000
     13 C3         1.1321    6.0987    2.8031 C.ar      1 RES1    0.0000
     14 H3         0.5856    5.4553    3.2627 H         1 RES1    0.0000
     15 C4         1.7455    7.1057    3.5211 C.ar      1 RES1    0.0000
     16 C5         2.5094    8.1266    2.8445 C.ar      1 RES1    0.0000
     17 C6         2.6616    7.9811    1.4565 C.ar      1 RES1    0.0000
     18 H4         3.2027    8.6122    1.0032 H         1 RES1    0.0000
     19 C7         2.9836    7.8512   -1.4215 C.3       1 RES1    0.0000
     20 H5         3.2516    7.4331   -2.2545 H         1 RES1    0.0000
     21 H6         3.7805    8.1319   -0.9549 H         1 RES1    0.0000
     22 C8         2.1008    9.0621   -1.7480 C.3       1 RES1    0.0000
     23 H7         1.7085    9.3568   -0.9028 H         1 RES1    0.0000
     24 H8         1.3709    8.7607   -2.3587 H         1 RES1    0.0000
     25 C9         2.8753   10.1716   -2.4105 C.ar      1 RES1    0.0000
     26 C10        3.0787   10.1727   -3.7936 C.ar      1 RES1    0.0000
     27 H9         2.6976    9.4680   -4.3304 H         1 RES1    0.0000
     28 C11        3.8260   11.1788   -4.4008 C.ar      1 RES1    0.0000
     29 H10        3.9744   11.1887   -5.3957 H         1 RES1    0.0000
     30 C12        4.3797   12.1948   -3.6295 C.ar      1 RES1    0.0000
     31 H11        4.9019   12.9054   -4.0229 H         1 RES1    0.0000
     32 C13        4.1910   12.2051   -2.2545 C.ar      1 RES1    0.0000
     33 H12        4.5769   12.9258   -1.7448 H         1 RES1    0.0000
     34 C14        3.4414   11.1943   -1.6482 C.ar      1 RES1    0.0000
     35 H13        3.2789   11.2229   -0.6808 H         1 RES1    0.0000
     36 C15        3.7819   10.2573    2.8395 C.3       1 RES1    0.0000
     37 H14        4.6409    9.9167    2.5062 H         1 RES1    0.0000
     38 H15        3.2823   10.5895    2.0412 H         1 RES1    0.0000
     39 C16        3.9906   11.4202    3.8147 C.3       1 RES1    0.0000
     40 H16        4.6039   12.0516    3.3855 H         1 RES1    0.0000
     41 H17        4.4579   11.0698    4.6194 H         1 RES1    0.0000
     42 C17        2.7006   12.1206    4.1744 C.ar      1 RES1    0.0000
     43 C18        1.9159   11.7085    5.2574 C.ar      1 RES1    0.0000
     44 H18        2.2464   10.9812    5.8533 H         1 RES1    0.0000
     45 C19        0.6935   12.3209    5.5330 C.ar      1 RES1    0.0000
     46 H19        0.1614   12.0037    6.2972 H         1 RES1    0.0000
     47 C20        0.2441   13.3718    4.7338 C.ar      1 RES1    0.0000
     48 H20       -0.6009   13.8023    4.9616 H         1 RES1    0.0000
     49 C21        1.0242   13.8047    3.6680 C.ar      1 RES1    0.0000
     50 H21        0.7466   14.5684    3.1226 H         1 RES1    0.0000
     51 C22        2.2420   13.1845    3.3868 C.ar      1 RES1    0.0000
     52 H22        2.7468   13.5088    2.6241 H         1 RES1    0.0000
@<TRIPOS>BOND
     1    1    7 2
     2    2    7 2
     3    3    8 2
     4    4    8 2
     5    5    6 1
     6    7   12 1
     7    8   15 1
     8    9   10 1
     9   11    5 1
    10   12   11 ar
    11   13   12 ar
    12   14   13 1
    13   15   13 ar
    14   16    9 1
    15   17   11 ar
    16   18   17 1
    17   19    5 1
    18   20   19 1
    19   21   19 1
    20   22   19 1
    21   23   22 1
    22   24   22 1
    23   25   22 1
    24   26   25 ar
    25   27   26 1
    26   28   26 ar
    27   29   28 1
    28   30   28 ar
    29   31   30 1
    30   32   30 ar
    31   33   32 1
    32   34   25 ar
    33   35   34 1
    34   36    9 1
    35   37   36 1
    36   38   36 1
    37   39   36 1
    38   40   39 1
    39   41   39 1
    40   42   39 1
    41   43   42 ar
    42   44   43 1
    43   45   43 ar
    44   46   45 1
    45   47   45 ar
    46   48   47 1
    47   49   47 ar
    48   50   49 1
    49   51   42 ar
    50   52   51 1
    51   15   16 ar
    52   16   17 ar
    53   32   34 ar
    54   49   51 ar
@<TRIPOS>SUBSTRUCTURE
     1 RES1 1

@<TRIPOS>CRYSIN
   8.1121   10.1819   13.1018  93.4660 106.5950 106.9320   2 1

