# MOL2 file generated by ConQuest
# Please check atom types

@<TRIPOS>MOLECULE
QIJMIH
    33    34     1
SMALL
NO_CHARGES
****
Generated from CSD

@<TRIPOS>ATOM
      1 O1         1.9026    2.0098    3.1954 O.2       1 RES1    0.0000
      2 O2         0.4763    0.6096    4.0458 O.2       1 RES1    0.0000
      3 N1         4.2251    1.5468    9.0142 N.3       1 RES1    0.0000
      4 H1         3.9108    1.0836    9.6741 H         1 RES1    0.0000
      5 N2         1.7439   -0.8319    9.6689 N.1       1 RES1    0.0000
      6 N3         1.4798    1.3242    4.1334 N.pl3     1 RES1    0.0000
      7 C1         3.5853    1.4815    7.8322 C.ar      1 RES1    0.0000
      8 C2         2.4724    0.6039    7.6439 C.ar      1 RES1    0.0000
      9 C3         1.7746    0.5550    6.4402 C.ar      1 RES1    0.0000
     10 H2         1.0330   -0.0114    6.3409 H         1 RES1    0.0000
     11 C4         2.1891    1.3709    5.3951 C.ar      1 RES1    0.0000
     12 C5         3.2911    2.2256    5.5317 C.ar      1 RES1    0.0000
     13 H3         3.5788    2.7854    4.8057 H         1 RES1    0.0000
     14 C6         3.9732    2.2762    6.7257 C.ar      1 RES1    0.0000
     15 H4         4.7131    2.8538    6.8069 H         1 RES1    0.0000
     16 C7         5.3480    2.4322    9.3011 C.3       1 RES1    0.0000
     17 H5         5.1801    3.3419    8.9292 H         1 RES1    0.0000
     18 H6         5.3720    2.5137   10.2741 H         1 RES1    0.0000
     19 C8         6.6901    1.8792    8.7895 C.3       1 RES1    0.0000
     20 H7         6.7577    0.9502    9.1141 H         1 RES1    0.0000
     21 H8         6.6959    1.8499    7.8199 H         1 RES1    0.0000
     22 C9         7.8514    2.7122    9.2792 C.ar      1 RES1    0.0000
     23 C10        8.3407    2.5272   10.5773 C.ar      1 RES1    0.0000
     24 H9         7.9417    1.8450   11.1510 H         1 RES1    0.0000
     25 C11        9.3991    3.2955   11.0543 C.ar      1 RES1    0.0000
     26 H10        9.7161    3.1499   11.9521 H         1 RES1    0.0000
     27 C12        9.9730    4.2748   10.2452 C.ar      1 RES1    0.0000
     28 H11       10.6952    4.8420   10.6071 H         1 RES1    0.0000
     29 C13        9.4971    4.4725    8.9516 C.ar      1 RES1    0.0000
     30 H12        9.9057    5.1413    8.3756 H         1 RES1    0.0000
     31 C14        8.4461    3.6878    8.4745 C.ar      1 RES1    0.0000
     32 H13        8.1503    3.7974    7.5313 H         1 RES1    0.0000
     33 C15        2.0525   -0.2128    8.7461 C.1       1 RES1    0.0000
@<TRIPOS>BOND
     1    1    6 2
     2    2    6 2
     3    3    4 1
     4    5   33 3
     5    6   11 1
     6    7    3 1
     7    8    7 ar
     8    9    8 ar
     9   10    9 1
    10   11    9 ar
    11   12   11 ar
    12   13   12 1
    13   14    7 ar
    14   15   14 1
    15   16    3 1
    16   17   16 1
    17   18   16 1
    18   19   16 1
    19   20   19 1
    20   21   19 1
    21   22   19 1
    22   23   22 ar
    23   24   23 1
    24   25   23 ar
    25   26   25 1
    26   27   25 ar
    27   28   27 1
    28   29   27 ar
    29   30   29 1
    30   31   22 ar
    31   32   31 1
    32   33    8 1
    33   12   14 ar
    34   29   31 ar
@<TRIPOS>SUBSTRUCTURE
     1 RES1 1

@<TRIPOS>CRYSIN
   7.4871   16.2700   10.8432  90.0000  94.3840  90.0000 231 1

