# MOL2 file generated by ConQuest
# Please check atom types

@<TRIPOS>MOLECULE
QIKBUJ
    60    62     2
SMALL
NO_CHARGES
****
Generated from CSD

@<TRIPOS>ATOM
      1 O1         4.7031    1.1537    7.1327 O.2       1 RES1    0.0000
      2 O2         4.1369   -0.9602    4.4270 O.3       1 RES1    0.0000
      3 N1         0.9579    0.2522    9.7966 N.pl3     1 RES1    0.0000
      4 H1         0.6029   -0.0239   10.5526 H         1 RES1    0.0000
      5 N2         4.6963    0.1056    5.1501 N.am      1 RES1    0.0000
      6 C1         1.7250   -0.5099    8.9433 C.2       1 RES1    0.0000
      7 H2         1.9576   -1.4191    9.0896 H         1 RES1    0.0000
      8 C2         2.1059    0.2319    7.8524 C.2       1 RES1    0.0000
      9 C3         1.5530    1.5436    8.0446 C.ar      1 RES1    0.0000
     10 C4         1.5744    2.7380    7.3057 C.ar      1 RES1    0.0000
     11 H3         2.0621    2.7916    6.4913 H         1 RES1    0.0000
     12 C5         0.8731    3.8398    7.7817 C.ar      1 RES1    0.0000
     13 H4         0.8878    4.6516    7.2882 H         1 RES1    0.0000
     14 C6         0.1426    3.7736    8.9818 C.ar      1 RES1    0.0000
     15 H5        -0.3472    4.5345    9.2723 H         1 RES1    0.0000
     16 C7         0.1245    2.6183    9.7479 C.ar      1 RES1    0.0000
     17 H6        -0.3552    2.5780   10.5669 H         1 RES1    0.0000
     18 C8         0.8395    1.5137    9.2699 C.ar      1 RES1    0.0000
     19 C9         2.8111   -0.2905    6.6455 C.3       1 RES1    0.0000
     20 H7         2.2223   -0.1738    5.8592 H         1 RES1    0.0000
     21 H8         2.9635   -1.2612    6.7635 H         1 RES1    0.0000
     22 C10        4.1448    0.3807    6.3588 C.2       1 RES1    0.0000
     23 C11        6.0475    0.4558    4.7636 C.3       1 RES1    0.0000
     24 H9         6.4273    1.0714    5.4240 H         1 RES1    0.0000
     25 H10        6.0339    0.8885    3.8840 H         1 RES1    0.0000
     26 H11        6.5958   -0.3556    4.7203 H         1 RES1    0.0000
     27 C12        3.5771   -0.4678    3.1968 C.3       1 RES1    0.0000
     28 H12        2.9523    0.2625    3.3916 H         1 RES1    0.0000
     29 H13        3.1009   -1.1930    2.7416 H         1 RES1    0.0000
     30 H14        4.2964   -0.1375    2.6198 H         1 RES1    0.0000
     31 O3         5.8109    5.2499    3.4715 O.2       2 RES2    0.0000
     32 O4         3.4995    5.7012    6.0200 O.3       2 RES2    0.0000
     33 N3         4.7936    8.7515    0.5721 N.pl3     2 RES2    0.0000
     34 H15        4.5720    9.0520   -0.2238 H         2 RES2    0.0000
     35 N4         4.6898    5.2707    5.4115 N.am      2 RES2    0.0000
     36 C13        4.0132    7.9405    1.3719 C.2       2 RES2    0.0000
     37 H16        3.1472    7.6216    1.1443 H         2 RES2    0.0000
     38 C14        4.6731    7.6629    2.5439 C.2       2 RES2    0.0000
     39 C15        5.9407    8.3286    2.4656 C.ar      2 RES2    0.0000
     40 C16        7.0589    8.4056    3.3146 C.ar      2 RES2    0.0000
     41 H17        7.0651    7.9511    4.1491 H         2 RES2    0.0000
     42 C17        8.1517    9.1577    2.9108 C.ar      2 RES2    0.0000
     43 H18        8.9178    9.2043    3.4704 H         2 RES2    0.0000
     44 C18        8.1472    9.8535    1.6847 C.ar      2 RES2    0.0000
     45 H19        8.9035   10.3734    1.4415 H         2 RES2    0.0000
     46 C19        7.0594    9.7930    0.8287 C.ar      2 RES2    0.0000
     47 H20        7.0532   10.2655    0.0036 H         2 RES2    0.0000
     48 C20        5.9738    9.0116    1.2256 C.ar      2 RES2    0.0000
     49 C21        4.1138    6.9585    3.7367 C.3       2 RES2    0.0000
     50 H21        3.1937    6.6569    3.5295 H         2 RES2    0.0000
     51 H22        4.0578    7.5988    4.4893 H         2 RES2    0.0000
     52 C22        4.9396    5.7591    4.1695 C.2       2 RES2    0.0000
     53 C23        5.1578    3.9735    5.8647 C.3       2 RES2    0.0000
     54 H23        4.4820    3.2927    5.6604 H         2 RES2    0.0000
     55 H24        5.3124    4.0017    6.8315 H         2 RES2    0.0000
     56 H25        5.9950    3.7494    5.4061 H         2 RES2    0.0000
     57 C24        3.8204    6.4547    7.2036 C.3       2 RES2    0.0000
     58 H26        4.3124    5.8855    7.8307 H         2 RES2    0.0000
     59 H27        2.9932    6.7671    7.6266 H         2 RES2    0.0000
     60 H28        4.3745    7.2262    6.9605 H         2 RES2    0.0000
@<TRIPOS>BOND
     1    1   22 2
     2    2    5 1
     3    3    4 1
     4    5   22 1
     5    6    3 1
     6    7    6 1
     7    8    6 2
     8    9    8 1
     9   10    9 ar
    10   11   10 1
    11   12   10 ar
    12   13   12 1
    13   14   12 ar
    14   15   14 1
    15   16   14 ar
    16   17   16 1
    17   18    3 1
    18   19    8 1
    19   20   19 1
    20   21   19 1
    21   22   19 1
    22   23    5 1
    23   24   23 1
    24   25   23 1
    25   26   23 1
    26   27    2 1
    27   28   27 1
    28   29   27 1
    29   30   27 1
    30   31   52 2
    31   32   35 1
    32   33   34 1
    33   35   52 1
    34   36   33 1
    35   37   36 1
    36   38   36 2
    37   39   38 1
    38   40   39 ar
    39   41   40 1
    40   42   40 ar
    41   43   42 1
    42   44   42 ar
    43   45   44 1
    44   46   44 ar
    45   47   46 1
    46   48   33 1
    47   49   38 1
    48   50   49 1
    49   51   49 1
    50   52   49 1
    51   53   35 1
    52   54   53 1
    53   55   53 1
    54   56   53 1
    55   57   32 1
    56   58   57 1
    57   59   57 1
    58   60   57 1
    59    9   18 ar
    60   16   18 ar
    61   39   48 ar
    62   46   48 ar
@<TRIPOS>SUBSTRUCTURE
     1 RES1 1
     2 RES2 31

@<TRIPOS>CRYSIN
  11.1603   11.3619   17.9200  90.0000  92.1790  90.0000   9 1

