# MOL2 file generated by ConQuest
# Please check atom types

@<TRIPOS>MOLECULE
QIKCUI
    39    36     3
SMALL
NO_CHARGES
****
Generated from CSD

@<TRIPOS>ATOM
      1 O1         1.7762    2.9702    4.5943 O.2       1 RES1    0.0000
      2 O2         1.2554    0.4661    5.3709 O.3       1 RES1    0.0000
      3 N1         0.3322    1.4983    5.4755 N.am      1 RES1    0.0000
      4 C1         0.6393    2.6801    5.0000 C.2       1 RES1    0.0000
      5 C2        -0.4931    3.6704    4.9607 C.3       1 RES1    0.0000
      6 C3        -0.1176    5.0377    5.4700 C.3       1 RES1    0.0000
      7 O3         1.9014    4.5919    0.6157 O.2       2 RES2    0.0000
      8 O4         2.3427    5.1612    3.1919 O.3       2 RES2    0.0000
      9 N2         3.3569    4.8425    2.3007 N.am      2 RES2    0.0000
     10 C4         3.0705    4.6335    1.0374 C.2       2 RES2    0.0000
     11 C5         4.2570    4.4586    0.1274 C.3       2 RES2    0.0000
     12 C6         4.3151    5.5110   -0.9474 C.3       2 RES2    0.0000
     13 O5         5.9399    0.6597    3.4223 O.2       3 RES3    0.0000
     14 O6         5.2779    2.5252    5.2661 O.3       3 RES3    0.0000
     15 N3         4.3604    1.9009    4.4368 N.am      3 RES3    0.0000
     16 C7         4.7475    0.9930    3.5729 C.2       3 RES3    0.0000
     17 C8         3.6457    0.4029    2.7428 C.3       3 RES3    0.0000
     18 C9         3.7503    0.7985    1.3109 C.3       3 RES3    0.0000
     19 H1         1.3429    0.1025    6.1011 H         1 RES1    0.0000
     20 H2        -0.4316    1.3639    5.8472 H         1 RES1    0.0000
     21 H3        -1.2270    3.3277    5.4944 H         1 RES1    0.0000
     22 H4        -0.8060    3.7522    4.0459 H         1 RES1    0.0000
     23 H5         0.2601    4.9592    6.3492 H         1 RES1    0.0000
     24 H6        -0.9009    5.5919    5.5059 H         1 RES1    0.0000
     25 H7         0.5277    5.4333    4.8791 H         1 RES1    0.0000
     26 H8         2.1434    4.4963    3.6285 H         2 RES2    0.0000
     27 H9         4.1692    4.7822    2.5744 H         2 RES2    0.0000
     28 H10        4.2131    3.5824   -0.2868 H         2 RES2    0.0000
     29 H11        5.0700    4.4971    0.6540 H         2 RES2    0.0000
     30 H12        3.5121    5.4766   -1.4729 H         2 RES2    0.0000
     31 H13        5.0745    5.3508   -1.5116 H         2 RES2    0.0000
     32 H14        4.3947    6.3776   -0.5421 H         2 RES2    0.0000
     33 H15        5.5227    3.2284    4.9221 H         3 RES3    0.0000
     34 H16        3.5278    2.1112    4.4890 H         3 RES3    0.0000
     35 H17        3.6799   -0.5646    2.8096 H         3 RES3    0.0000
     36 H18        2.7896    0.6960    3.0936 H         3 RES3    0.0000
     37 H19        3.6085    1.7452    1.2291 H         3 RES3    0.0000
     38 H20        3.0862    0.3308    0.8003 H         3 RES3    0.0000
     39 H21        4.6239    0.5766    0.9796 H         3 RES3    0.0000
@<TRIPOS>BOND
     1    1    4 2
     2    2    3 1
     3    3    4 1
     4    4    5 1
     5    5    6 1
     6    6   23 1
     7    7   10 2
     8    8    9 1
     9    9   10 1
    10   10   11 1
    11   11   12 1
    12   12   30 1
    13   13   16 2
    14   14   15 1
    15   15   16 1
    16   16   17 1
    17   17   18 1
    18   18   37 1
    19   19    2 1
    20   20    3 1
    21   21    5 1
    22   22    5 1
    23   24    6 1
    24   25    6 1
    25   26    8 1
    26   27    9 1
    27   28   11 1
    28   29   11 1
    29   31   12 1
    30   32   12 1
    31   33   14 1
    32   34   15 1
    33   35   17 1
    34   36   17 1
    35   38   18 1
    36   39   18 1
@<TRIPOS>SUBSTRUCTURE
     1 RES1 1
     2 RES2 7
     3 RES3 13

@<TRIPOS>CRYSIN
  12.0520    8.0090   14.3540  90.0000  92.3500  90.0000  14 1

