# MOL2 file generated by ConQuest
# Please check atom types

@<TRIPOS>MOLECULE
QIKDET
    36    36     2
SMALL
NO_CHARGES
****
Generated from CSD

@<TRIPOS>ATOM
      1 C1        -0.9066    1.9062    6.0581 C.ar      1 RES1    0.0000
      2 C2        -1.4776    0.6712    5.7490 C.ar      1 RES1    0.0000
      3 C3        -2.3411    0.0870    6.6450 C.ar      1 RES1    0.0000
      4 C4        -2.6870    0.6424    7.8491 C.ar      1 RES1    0.0000
      5 C5        -2.1237    1.8738    8.1083 C.ar      1 RES1    0.0000
      6 C6        -1.2554    2.5053    7.2618 C.ar      1 RES1    0.0000
      7 N1        -0.0062    2.4823    5.2163 N.3       1 RES1    0.0000
      8 N2        -2.9334   -1.2099    6.2989 N.pl3     1 RES1    0.0000
      9 O1        -2.5883   -1.7459    5.2591 O.2       1 RES1    0.0000
     10 O2        -3.7460   -1.6837    7.0652 O.2       1 RES1    0.0000
     11 N3        -2.4842    2.5474    9.3621 N.pl3     1 RES1    0.0000
     12 O3        -3.1865    1.9538   10.1601 O.2       1 RES1    0.0000
     13 O4        -2.0986    3.6921    9.5233 O.2       1 RES1    0.0000
     14 C7         2.6764    9.3549    8.0652 C.ar      2 RES2    0.0000
     15 C8         3.3250    9.3651    6.8287 C.ar      2 RES2    0.0000
     16 C9         3.0985    8.3458    5.9496 C.ar      2 RES2    0.0000
     17 C10        2.2757    7.2751    6.2003 C.ar      2 RES2    0.0000
     18 C11        1.6638    7.2912    7.4368 C.ar      2 RES2    0.0000
     19 C12        1.8367    8.2889    8.3625 C.ar      2 RES2    0.0000
     20 N4         2.8756   10.3565    8.9690 N.3       2 RES2    0.0000
     21 N5         3.7941    8.3715    4.6512 N.pl3     2 RES2    0.0000
     22 O5         3.6002    7.4790    3.8596 O.2       2 RES2    0.0000
     23 O6         4.5528    9.2982    4.4288 O.2       2 RES2    0.0000
     24 N6         0.8080    6.1535    7.7945 N.pl3     2 RES2    0.0000
     25 O7         0.6265    5.2957    6.9731 O.2       2 RES2    0.0000
     26 O8         0.3362    6.1147    8.9143 O.2       2 RES2    0.0000
     27 H1        -1.2772    0.2480    4.9463 H         1 RES1    0.0000
     28 H2        -3.2599    0.2200    8.4479 H         1 RES1    0.0000
     29 H3        -0.8987    3.3334    7.4912 H         1 RES1    0.0000
     30 H4         0.3597    3.2325    5.4253 H         1 RES1    0.0000
     31 H5         0.1970    2.0962    4.4749 H         1 RES1    0.0000
     32 H6         3.9039   10.0577    6.6069 H         2 RES2    0.0000
     33 H7         2.1416    6.5912    5.5841 H         2 RES2    0.0000
     34 H8         1.3961    8.2516    9.1810 H         2 RES2    0.0000
     35 H9         2.4803   10.3324    9.7324 H         2 RES2    0.0000
     36 H10        3.3978   11.0120    8.7757 H         2 RES2    0.0000
@<TRIPOS>BOND
     1    1    2 ar
     2    2    3 ar
     3    3    4 ar
     4    4    5 ar
     5    5    6 ar
     6    6    1 ar
     7    7    1 1
     8    8    3 1
     9    9    8 2
    10   10    8 2
    11   11    5 1
    12   12   11 2
    13   13   11 2
    14   14   15 ar
    15   15   16 ar
    16   16   17 ar
    17   17   18 ar
    18   18   19 ar
    19   19   14 ar
    20   20   14 1
    21   21   16 1
    22   22   21 2
    23   23   21 2
    24   24   18 1
    25   25   24 2
    26   26   24 2
    27   27    2 1
    28   28    4 1
    29   29    6 1
    30   30    7 1
    31   31    7 1
    32   32   15 1
    33   33   17 1
    34   34   19 1
    35   35   20 1
    36   36   20 1
@<TRIPOS>SUBSTRUCTURE
     1 RES1 1
     2 RES2 14

@<TRIPOS>CRYSIN
   8.5377   14.0119   12.7071  90.0000  90.8990  90.0000 231 1

