# MOL2 file generated by ConQuest
# Please check atom types

@<TRIPOS>MOLECULE
QIKDOD
    51    53     1
SMALL
NO_CHARGES
****
Generated from CSD

@<TRIPOS>ATOM
      1 N1         0.8126   12.6332   13.1356 N.3       1 RES1    0.0000
      2 C1         0.2514   13.7326   13.6662 C.2       1 RES1    0.0000
      3 N2         0.7510   14.0696   14.8194 N.2       1 RES1    0.0000
      4 C2         1.6948   13.1451   15.0446 C.2       1 RES1    0.0000
      5 C3         1.7564   12.2397   14.0427 C.2       1 RES1    0.0000
      6 C4         0.4995   12.0879   11.8200 C.3       1 RES1    0.0000
      7 C5         1.4703   12.5278   10.7521 C.2       1 RES1    0.0000
      8 C6         2.4613   13.6218   11.0283 C.3       1 RES1    0.0000
      9 N3         1.5010   12.0162    9.5857 N.2       1 RES1    0.0000
     10 N4         0.6256   10.9846    9.3179 N.3       1 RES1    0.0000
     11 C7         0.7781   10.2803    8.1777 C.ar      1 RES1    0.0000
     12 C8         0.0035    9.1367    7.8707 C.ar      1 RES1    0.0000
     13 C9         0.2169    8.3977    6.7239 C.ar      1 RES1    0.0000
     14 C10        1.1914    8.7922    5.8606 C.ar      1 RES1    0.0000
     15 C11        1.9565    9.9249    6.0991 C.ar      1 RES1    0.0000
     16 C12        1.7576   10.6538    7.2287 C.ar      1 RES1    0.0000
     17 N5        -1.0590    8.6751    8.7384 N.pl3     1 RES1    0.0000
     18 O1        -1.2828    9.2673    9.7959 O.2       1 RES1    0.0000
     19 O2        -1.7137    7.7156    8.3859 O.2       1 RES1    0.0000
     20 N6         1.4120    8.0200    4.6453 N.pl3     1 RES1    0.0000
     21 O3         0.6768    7.0791    4.4133 O.2       1 RES1    0.0000
     22 O4         2.3153    8.3704    3.9048 O.2       1 RES1    0.0000
     23 N7         3.5807   13.1153   11.8181 N.3       1 RES1    0.0000
     24 C13        4.3471   14.2266   12.3839 C.3       1 RES1    0.0000
     25 C14        5.5108   13.6919   13.1718 C.3       1 RES1    0.0000
     26 O5         6.3623   12.8853   12.3723 O.3       1 RES1    0.0000
     27 C15        5.6185   11.7887   11.8303 C.3       1 RES1    0.0000
     28 C16        4.4620   12.2841   10.9964 C.3       1 RES1    0.0000
     29 N8         2.5156   13.2184   16.2434 N.pl3     1 RES1    0.0000
     30 O6         2.2162   12.6257   17.2010 O.2       1 RES1    0.0000
     31 O7         3.4411   13.9759   16.2041 O.2       1 RES1    0.0000
     32 N9         2.5846   11.1027   13.9126 N.pl3     1 RES1    0.0000
     33 O8         3.4494   10.9877   14.7604 O.2       1 RES1    0.0000
     34 O9         2.4124   10.3375   12.9847 O.2       1 RES1    0.0000
     35 H1        -0.4277   14.2297   13.1908 H         1 RES1    0.0000
     36 H2         0.4865   11.1173   11.9249 H         1 RES1    0.0000
     37 H3        -0.3958   12.4498   11.5818 H         1 RES1    0.0000
     38 H4         2.0199   14.3718   11.5605 H         1 RES1    0.0000
     39 H5         2.7612   14.0204   10.1480 H         1 RES1    0.0000
     40 H6         0.0388   10.7352    9.8511 H         1 RES1    0.0000
     41 H7        -0.2610    7.6573    6.5729 H         1 RES1    0.0000
     42 H8         2.6207   10.1630    5.4892 H         1 RES1    0.0000
     43 H9         2.3120   11.4091    7.4602 H         1 RES1    0.0000
     44 H10        4.6495   14.8653   11.6434 H         1 RES1    0.0000
     45 H11        3.7995   14.7309   12.9790 H         1 RES1    0.0000
     46 H12        5.1958   13.1026   13.9597 H         1 RES1    0.0000
     47 H13        6.0090   14.3852   13.5693 H         1 RES1    0.0000
     48 H14        6.2304   11.3227   11.1796 H         1 RES1    0.0000
     49 H15        5.2831   11.1710   12.5756 H         1 RES1    0.0000
     50 H16        3.9920   11.5378   10.6827 H         1 RES1    0.0000
     51 H17        4.6972   12.8089   10.2107 H         1 RES1    0.0000
@<TRIPOS>BOND
     1    1    2 1
     2    2    3 2
     3    3    4 1
     4    4    5 2
     5    5    1 1
     6    6    1 1
     7    7    6 1
     8    8    7 1
     9    9    7 2
    10   10    9 1
    11   11   10 1
    12   12   11 ar
    13   13   12 ar
    14   14   13 ar
    15   15   14 ar
    16   16   11 ar
    17   17   12 1
    18   18   17 2
    19   19   17 2
    20   20   14 1
    21   21   20 2
    22   22   20 2
    23   23    8 1
    24   24   23 1
    25   25   24 1
    26   26   25 1
    27   27   26 1
    28   28   23 1
    29   29    4 1
    30   30   29 2
    31   31   29 2
    32   32    5 1
    33   33   32 2
    34   34   32 2
    35   35    2 1
    36   36    6 1
    37   37    6 1
    38   38    8 1
    39   39    8 1
    40   40   10 1
    41   41   13 1
    42   42   15 1
    43   43   16 1
    44   44   24 1
    45   45   24 1
    46   46   25 1
    47   47   25 1
    48   48   27 1
    49   49   27 1
    50   50   28 1
    51   51   28 1
    52   15   16 ar
    53   27   28 1
@<TRIPOS>SUBSTRUCTURE
     1 RES1 1

@<TRIPOS>CRYSIN
   9.0382   19.2008   11.9087  90.0000  96.5790  90.0000 231 1

