# MOL2 file generated by ConQuest
# Please check atom types

@<TRIPOS>MOLECULE
QIKFEV
    27    28     1
SMALL
USER_CHARGES
****
Generated from CSD

@<TRIPOS>ATOM
      1 O1         1.3583    3.5885    1.8566 O.2       1 RES1   -1.0000
      2 N1         0.4226    3.6746    1.0060 N.pl3     1 RES1    1.0000
      3 N2        -0.5070    4.5263    0.9999 N.2       1 RES1    0.0000
      4 N3        -1.4457    8.5168    4.7634 N.3       1 RES1    0.0000
      5 C1        -0.5888    5.5106    1.9939 C.ar      1 RES1    0.0000
      6 C2         0.3838    2.6695   -0.0463 C.ar      1 RES1    0.0000
      7 C3         0.3214    5.8358    3.0058 C.ar      1 RES1    0.0000
      8 C4         1.4339    1.7956   -0.1470 C.ar      1 RES1    0.0000
      9 C5         0.0365    6.8402    3.8984 C.ar      1 RES1    0.0000
     10 C6         1.4168    0.8408   -1.1448 C.ar      1 RES1    0.0000
     11 C7        -1.1496    7.5544    3.8349 C.ar      1 RES1    0.0000
     12 C8         0.3693    0.7655   -2.0166 C.ar      1 RES1    0.0000
     13 C9        -2.0572    7.2330    2.8275 C.ar      1 RES1    0.0000
     14 C10       -0.6672    1.6466   -1.9032 C.ar      1 RES1    0.0000
     15 C11       -1.7753    6.2442    1.9285 C.ar      1 RES1    0.0000
     16 C12       -0.6708    2.6056   -0.9133 C.ar      1 RES1    0.0000
     17 H1         1.1489    5.3845    3.0730 H         1 RES1    0.0000
     18 H2         2.1666    1.8540    0.4244 H         1 RES1    0.0000
     19 H3         0.6836    7.0668    4.5447 H         1 RES1    0.0000
     20 H4         2.1329    0.2494   -1.2507 H         1 RES1    0.0000
     21 H5         0.3609    0.0824   -2.6951 H         1 RES1    0.0000
     22 H6        -2.9044    7.7235    2.7639 H         1 RES1    0.0000
     23 H7        -1.4156    1.6011   -2.4997 H         1 RES1    0.0000
     24 H8        -2.4242    6.0203    1.2298 H         1 RES1    0.0000
     25 H9        -1.4362    3.2254   -0.7767 H         1 RES1    0.0000
     26 H10       -0.7706    8.8198    5.2349 H         1 RES1    0.0000
     27 H11       -2.1635    9.0380    4.6087 H         1 RES1    0.0000
@<TRIPOS>BOND
     1    1    2 1
     2    2    3 2
     3    3    5 1
     4    4   11 1
     5    5    7 ar
     6    6    2 1
     7    7    9 ar
     8    8    6 ar
     9    9   11 ar
    10   10    8 ar
    11   11   13 ar
    12   12   10 ar
    13   13   15 ar
    14   14   12 ar
    15   15    5 ar
    16   16    6 ar
    17   17    7 1
    18   18    8 1
    19   19    9 1
    20   20   10 1
    21   21   12 1
    22   22   13 1
    23   23   14 1
    24   24   15 1
    25   25   16 1
    26   26    4 1
    27   27    4 1
    28   14   16 ar
@<TRIPOS>SUBSTRUCTURE
     1 RES1 1

@<TRIPOS>CRYSIN
   5.7330   11.6020   16.0380  90.0000  93.1600  90.0000 231 1

