# MOL2 file generated by ConQuest
# Please check atom types

@<TRIPOS>MOLECULE
QIKFIZ01
    27    28     1
SMALL
USER_CHARGES
****
Generated from CSD

@<TRIPOS>ATOM
      1 N1         5.9549    1.7269    0.8909 N.pl3     1 RES1    1.0000
      2 N2         5.3739    0.9255    0.0603 N.2       1 RES1    0.0000
      3 N3        10.0364    5.0114   -1.2495 N.3       1 RES1    0.0000
      4 O1         5.7314    1.8564    2.1532 O.2       1 RES1   -1.0000
      5 C1         7.0081    2.5765    0.3206 C.ar      1 RES1    0.0000
      6 C2         7.3527    3.7588    0.9885 C.ar      1 RES1    0.0000
      7 C3         8.3702    4.5625    0.4804 C.ar      1 RES1    0.0000
      8 C4         9.0591    4.2038   -0.7030 C.ar      1 RES1    0.0000
      9 C5         8.6946    2.9922   -1.3517 C.ar      1 RES1    0.0000
     10 C6         7.6757    2.1924   -0.8575 C.ar      1 RES1    0.0000
     11 C7         4.3646    0.0376    0.5390 C.ar      1 RES1    0.0000
     12 C8         3.5519    0.1865    1.6894 C.ar      1 RES1    0.0000
     13 C9         2.5637   -0.7760    1.9504 C.ar      1 RES1    0.0000
     14 C10        2.3854   -1.8808    1.0961 C.ar      1 RES1    0.0000
     15 C11        3.1855   -2.0203   -0.0447 C.ar      1 RES1    0.0000
     16 C12        4.1512   -1.0594   -0.3377 C.ar      1 RES1    0.0000
     17 H1         6.8840    3.9852    1.7895 H         1 RES1    0.0000
     18 H2         8.6388    5.4409    0.9267 H         1 RES1    0.0000
     19 H3        10.3563    5.6844   -0.7350 H         1 RES1    0.0000
     20 H4        10.5732    4.6715   -1.8748 H         1 RES1    0.0000
     21 H5         9.1526    2.7288   -2.1517 H         1 RES1    0.0000
     22 H6         7.4334    1.3505   -1.3102 H         1 RES1    0.0000
     23 H7         3.6731    0.9576    2.3221 H         1 RES1    0.0000
     24 H8         1.7157   -2.5793    1.2782 H         1 RES1    0.0000
     25 H9         1.9486   -0.6974    2.7589 H         1 RES1    0.0000
     26 H10        3.0847   -2.7786   -0.6391 H         1 RES1    0.0000
     27 H11        4.6919   -1.1236   -1.1611 H         1 RES1    0.0000
@<TRIPOS>BOND
     1    1    2 2
     2    2   11 1
     3    3    8 1
     4    4    1 1
     5    5    1 1
     6    6    5 ar
     7    7    6 ar
     8    8    7 ar
     9    9    8 ar
    10   10    5 ar
    11   11   12 ar
    12   12   13 ar
    13   13   14 ar
    14   14   15 ar
    15   15   16 ar
    16   16   11 ar
    17   17    6 1
    18   18    7 1
    19   19    3 1
    20   20    3 1
    21   21    9 1
    22   22   10 1
    23   23   12 1
    24   24   14 1
    25   25   13 1
    26   26   15 1
    27   27   16 1
    28    9   10 ar
@<TRIPOS>SUBSTRUCTURE
     1 RES1 1

@<TRIPOS>CRYSIN
  17.7790    5.5350   10.6520  90.0000  90.0000  90.0000  29 1

