# MOL2 file generated by ConQuest
# Please check atom types

@<TRIPOS>MOLECULE
QIKFEV01
    27    28     1
SMALL
USER_CHARGES
****
Generated from CSD

@<TRIPOS>ATOM
      1 N1        12.4947    1.5582   14.2577 N.pl3     1 RES1    1.0000
      2 N2        11.3139    1.4589   14.7091 N.2       1 RES1    0.0000
      3 O1        13.5874    1.5128   14.9272 O.2       1 RES1   -1.0000
      4 C1        11.1204    1.2098   16.0795 C.ar      1 RES1    0.0000
      5 C2        11.9486    0.4747   16.9549 C.ar      1 RES1    0.0000
      6 C3        11.5510    0.2483   18.2568 C.ar      1 RES1    0.0000
      7 C4        10.3356    0.7477   18.7423 C.ar      1 RES1    0.0000
      8 C5         9.5156    1.4701   17.8647 C.ar      1 RES1    0.0000
      9 C6         9.8971    1.6739   16.5665 C.ar      1 RES1    0.0000
     10 N3         9.9639    0.5425   20.0412 N.3       1 RES1    0.0000
     11 C7        12.5978    1.7804   12.8090 C.ar      1 RES1    0.0000
     12 C8        13.8138    2.1832   12.3059 C.ar      1 RES1    0.0000
     13 C9        13.9431    2.3885   10.9354 C.ar      1 RES1    0.0000
     14 C10       12.8652    2.1839   10.0925 C.ar      1 RES1    0.0000
     15 C11       11.6566    1.7825   10.6170 C.ar      1 RES1    0.0000
     16 C12       11.5165    1.5794   11.9826 C.ar      1 RES1    0.0000
     17 H1        12.7875    0.1129   16.6638 H         1 RES1    0.0000
     18 H2        12.0857   -0.2469   18.8304 H         1 RES1    0.0000
     19 H3         8.6359    1.7988   18.1765 H         1 RES1    0.0000
     20 H4         9.3281    2.1938   15.9563 H         1 RES1    0.0000
     21 H5        10.2951   -0.1693   20.5138 H         1 RES1    0.0000
     22 H6         9.0736    0.7548   20.3040 H         1 RES1    0.0000
     23 H7        14.5419    2.2996   12.9407 H         1 RES1    0.0000
     24 H8        14.8446    2.6805   10.5936 H         1 RES1    0.0000
     25 H9        12.9262    2.3306    9.0590 H         1 RES1    0.0000
     26 H10       10.9016    1.6647   10.0227 H         1 RES1    0.0000
     27 H11       10.7063    1.3191   12.3576 H         1 RES1    0.0000
@<TRIPOS>BOND
     1    1    2 2
     2    2    4 1
     3    3    1 1
     4    4    5 ar
     5    5    6 ar
     6    6    7 ar
     7    7    8 ar
     8    8    9 ar
     9    9    4 ar
    10   10    7 1
    11   11    1 1
    12   12   11 ar
    13   13   12 ar
    14   14   13 ar
    15   15   14 ar
    16   16   11 ar
    17   17    5 1
    18   18    6 1
    19   19    8 1
    20   20    9 1
    21   21   10 1
    22   22   10 1
    23   23   12 1
    24   24   13 1
    25   25   14 1
    26   26   15 1
    27   27   16 1
    28   15   16 ar
@<TRIPOS>SUBSTRUCTURE
     1 RES1 1

@<TRIPOS>CRYSIN
  12.0580    7.0540   24.3980  90.0000  90.0000  90.0000  61 1

