# MOL2 file generated by ConQuest
# Please check atom types

@<TRIPOS>MOLECULE
QIKXEP
    33    36     1
SMALL
NO_CHARGES
****
Generated from CSD

@<TRIPOS>ATOM
      1 N1         0.8731    0.9763    5.7511 N.am      1 RES1    0.0000
      2 O1         0.3866    5.0272    7.0152 O.2       1 RES1    0.0000
      3 C1         2.7548    6.5741    6.5635 C.ar      1 RES1    0.0000
      4 H1         1.9986    6.9471    6.1710 H         1 RES1    0.0000
      5 O2         2.2803    1.1700    5.4281 O.3       1 RES1    0.0000
      6 C2         3.9054    7.3420    6.7202 C.ar      1 RES1    0.0000
      7 H2         3.9322    8.2186    6.4112 H         1 RES1    0.0000
      8 O3         1.3868   -0.8579    7.0972 O.2       1 RES1    0.0000
      9 C3         5.0024    6.7860    7.3397 C.ar      1 RES1    0.0000
     10 H3         5.7709    7.2976    7.4557 H         1 RES1    0.0000
     11 O4        -0.4483    2.8156    4.9579 O.3       1 RES1    0.0000
     12 H4         0.0423    3.2727    4.4863 H         1 RES1    0.0000
     13 C4         4.9780    5.4936    7.7876 C.ar      1 RES1    0.0000
     14 H5         5.7261    5.1373    8.2105 H         1 RES1    0.0000
     15 C5         3.8565    4.7129    7.6161 C.ar      1 RES1    0.0000
     16 H6         3.8468    3.8317    7.9155 H         1 RES1    0.0000
     17 C6         2.7340    5.2558    6.9908 C.ar      1 RES1    0.0000
     18 C7         1.4734    4.4858    6.8074 C.2       1 RES1    0.0000
     19 C8         1.5226    3.1103    6.3321 C.2       1 RES1    0.0000
     20 C9         2.5701    2.4065    5.8886 C.2       1 RES1    0.0000
     21 H7         3.4370    2.7440    5.8975 H         1 RES1    0.0000
     22 C10        0.2820    2.3104    6.0379 C.3       1 RES1    0.0000
     23 C11        0.7424    0.1414    6.9050 C.2       1 RES1    0.0000
     24 C12       -0.3186    0.7512    7.7233 C.ar      1 RES1    0.0000
     25 C13       -0.6343    1.9971    7.2081 C.ar      1 RES1    0.0000
     26 C14       -0.9509    0.2530    8.8595 C.ar      1 RES1    0.0000
     27 H8        -0.7228   -0.5780    9.2106 H         1 RES1    0.0000
     28 C15       -1.9229    1.0309    9.4435 C.ar      1 RES1    0.0000
     29 H9        -2.3520    0.7315   10.2123 H         1 RES1    0.0000
     30 C16       -2.2680    2.2532    8.9009 C.ar      1 RES1    0.0000
     31 H10       -2.9421    2.7515    9.3023 H         1 RES1    0.0000
     32 C17       -1.6363    2.7567    7.7706 C.ar      1 RES1    0.0000
     33 H11       -1.8814    3.5778    7.4069 H         1 RES1    0.0000
@<TRIPOS>BOND
     1    1    5 1
     2    2   18 2
     3    3    4 1
     4    5   20 1
     5    6    3 ar
     6    7    6 1
     7    8   23 2
     8    9    6 ar
     9   10    9 1
    10   11   12 1
    11   13    9 ar
    12   14   13 1
    13   15   13 ar
    14   16   15 1
    15   17    3 ar
    16   18   17 1
    17   19   18 1
    18   20   19 2
    19   21   20 1
    20   22    1 1
    21   23    1 1
    22   24   23 1
    23   25   22 1
    24   26   24 ar
    25   27   26 1
    26   28   26 ar
    27   29   28 1
    28   30   28 ar
    29   31   30 1
    30   32   25 ar
    31   33   32 1
    32   11   22 1
    33   15   17 ar
    34   19   22 1
    35   24   25 ar
    36   30   32 ar
@<TRIPOS>SUBSTRUCTURE
     1 RES1 1

@<TRIPOS>CRYSIN
   9.6810   18.9500    7.6540  90.0000 105.0300  90.0000  14 1

