# MOL2 file generated by ConQuest
# Please check atom types

@<TRIPOS>MOLECULE
QIMGOI
    39    40     1
SMALL
NO_CHARGES
****
Generated from CSD

@<TRIPOS>ATOM
      1 O1         7.6367    6.3622    7.6087 O.3       1 RES1    0.0000
      2 O2         8.8830   10.8639    7.2469 O.2       1 RES1    0.0000
      3 O3         6.9593   10.4599    8.2942 O.3       1 RES1    0.0000
      4 O4        12.1056   11.8817   10.1157 O.2       1 RES1    0.0000
      5 O5        13.0460   10.9233   11.7676 O.2       1 RES1    0.0000
      6 N1         8.7923    4.6655    6.7858 N.pl3     1 RES1    0.0000
      7 H1         9.4802    4.2877    6.4339 H         1 RES1    0.0000
      8 H2         8.0886    4.2016    6.9593 H         1 RES1    0.0000
      9 N2        11.9610    6.0769    5.6933 N.1       1 RES1    0.0000
     10 N3        12.3582   10.8971   10.7726 N.pl3     1 RES1    0.0000
     11 C1         8.8158    5.9666    7.0607 C.2       1 RES1    0.0000
     12 C2         9.8222    6.8502    6.8601 C.2       1 RES1    0.0000
     13 C3         9.7770    8.2338    7.4589 C.3       1 RES1    0.0000
     14 H3        10.1775    8.8576    6.8177 H         1 RES1    0.0000
     15 C4         8.3207    8.6275    7.6597 C.2       1 RES1    0.0000
     16 C5         7.3525    7.7163    7.7364 C.2       1 RES1    0.0000
     17 C6         5.8852    7.8711    7.9361 C.3       1 RES1    0.0000
     18 H4         5.6135    8.7464    7.6493 H         1 RES1    0.0000
     19 H5         5.6760    7.7607    8.8671 H         1 RES1    0.0000
     20 H6         5.4199    7.2066    7.4220 H         1 RES1    0.0000
     21 C7         8.0935   10.0826    7.7074 C.2       1 RES1    0.0000
     22 C8         6.6438   11.8938    8.2776 C.3       1 RES1    0.0000
     23 H7         5.6836   12.0154    8.2217 H         1 RES1    0.0000
     24 H8         7.0466   12.3066    7.4974 H         1 RES1    0.0000
     25 C9         7.1545   12.5406    9.4988 C.3       1 RES1    0.0000
     26 H9         6.8542   13.4520    9.5274 H         1 RES1    0.0000
     27 H10        8.1135   12.5198    9.4943 H         1 RES1    0.0000
     28 H11        6.8272   12.0714   10.2699 H         1 RES1    0.0000
     29 C10       10.5508    8.3374    8.7711 C.ar      1 RES1    0.0000
     30 C11       11.1363    9.5330    9.1498 C.ar      1 RES1    0.0000
     31 H12       11.0851   10.2781    8.5964 H         1 RES1    0.0000
     32 C12       11.7952    9.6051   10.3586 C.ar      1 RES1    0.0000
     33 C13       11.9241    8.5341   11.2010 C.ar      1 RES1    0.0000
     34 H13       12.3888    8.6075   12.0029 H         1 RES1    0.0000
     35 C14       11.3479    7.3527   10.8274 C.ar      1 RES1    0.0000
     36 H14       11.4159    6.6102   11.3838 H         1 RES1    0.0000
     37 C15       10.6604    7.2488    9.6244 C.ar      1 RES1    0.0000
     38 H15       10.2691    6.4391    9.3880 H         1 RES1    0.0000
     39 C16       11.0024    6.4149    6.2170 C.1       1 RES1    0.0000
@<TRIPOS>BOND
     1    1   11 1
     2    2   21 2
     3    3   21 1
     4    4   10 2
     5    5   10 2
     6    6    7 1
     7    8    6 1
     8    9   39 3
     9   10   32 1
    10   11    6 1
    11   12   11 2
    12   13   12 1
    13   14   13 1
    14   15   13 1
    15   16    1 1
    16   17   16 1
    17   18   17 1
    18   19   17 1
    19   20   17 1
    20   21   15 1
    21   22    3 1
    22   23   22 1
    23   24   22 1
    24   25   22 1
    25   26   25 1
    26   27   25 1
    27   28   25 1
    28   29   13 1
    29   30   29 ar
    30   31   30 1
    31   32   30 ar
    32   33   32 ar
    33   34   33 1
    34   35   33 ar
    35   36   35 1
    36   37   29 ar
    37   38   37 1
    38   39   12 1
    39   15   16 2
    40   35   37 ar
@<TRIPOS>SUBSTRUCTURE
     1 RES1 1

@<TRIPOS>CRYSIN
   8.4550    8.4750   12.0730  83.0500  71.3300  76.3500   2 1

