# MOL2 file generated by ConQuest
# Please check atom types

@<TRIPOS>MOLECULE
QIMGAU02
    34    34     2
SMALL
NO_CHARGES
****
Generated from CSD

@<TRIPOS>ATOM
      1 O1         3.3222    2.1848    6.7358 O.2       1 RES1    0.0000
      2 N1        -0.5516    5.8741    4.3486 N.pl3     1 RES1    0.0000
      3 O2        -1.6899    5.6887    3.9389 O.2       1 RES1    0.0000
      4 C1        -0.4357    3.5139    4.8104 C.2       1 RES1    0.0000
      5 H1        -1.3169    3.5356    4.4561 H         1 RES1    0.0000
      6 O3        -0.0192    6.9803    4.3735 O.2       1 RES1    0.0000
      7 C2         0.2220    4.7098    4.8440 C.2       1 RES1    0.0000
      8 C3         2.4405    4.1498    5.8540 C.2       1 RES1    0.0000
      9 H2         3.2656    4.5595    6.0849 H         1 RES1    0.0000
     10 C4         1.2197    1.8919    5.7985 C.2       1 RES1    0.0000
     11 C5         1.5280    5.0011    5.2948 C.2       1 RES1    0.0000
     12 H3         1.8087    5.9035    5.1974 H         1 RES1    0.0000
     13 C6         2.3750    2.7456    6.1547 C.2       1 RES1    0.0000
     14 C7         0.0219    2.2576    5.2311 C.2       1 RES1    0.0000
     15 H4        -0.5936    1.5454    5.1045 H         1 RES1    0.0000
     16 O4         1.3719    0.6086    6.0896 O.3       1 RES1    0.0000
     17 H5         2.1827    0.5145    6.4422 H         1 RES1    0.0000
     18 O5        10.9960    7.1771   13.7648 O.2       2 RES2    0.0000
     19 N2         5.8263    5.6663   11.4953 N.pl3     2 RES2    0.0000
     20 O6         5.5978    4.5321   11.9082 O.2       2 RES2    0.0000
     21 O7         5.0772    6.2694   10.7261 O.2       2 RES2    0.0000
     22 C8         8.0137    5.4980   12.5412 C.2       2 RES2    0.0000
     23 H6         7.7776    4.5795   12.5904 H         2 RES2    0.0000
     24 C9         9.3262    8.3625   12.6765 C.2       2 RES2    0.0000
     25 C10        7.1001    7.6900   11.7074 C.2       2 RES2    0.0000
     26 H7         6.3451    8.0611   11.2668 H         2 RES2    0.0000
     27 C11        9.2319    5.8262   13.0549 C.2       2 RES2    0.0000
     28 H8         9.7351    5.0865   13.3739 H         2 RES2    0.0000
     29 C12        9.8906    7.0983   13.1982 C.2       2 RES2    0.0000
     30 C13        7.0595    6.3482   11.9468 C.2       2 RES2    0.0000
     31 C14        8.1299    8.5846   12.0382 C.2       2 RES2    0.0000
     32 H9         7.9759    9.4859   11.7802 H         2 RES2    0.0000
     33 O8        10.1025    9.4251   12.8681 O.3       2 RES2    0.0000
     34 H10       10.7962    9.1342   13.3092 H         2 RES2    0.0000
@<TRIPOS>BOND
     1    1   13 2
     2    2    3 2
     3    4    5 1
     4    6    2 2
     5    7    2 1
     6    8    9 1
     7   10   13 1
     8   11    7 1
     9   12   11 1
    10   13    8 1
    11   14    4 1
    12   15   14 1
    13   16   10 1
    14   17   16 1
    15   18   29 2
    16   19   20 2
    17   21   19 2
    18   22   23 1
    19   24   29 1
    20   25   26 1
    21   27   22 2
    22   28   27 1
    23   29   27 1
    24   30   19 1
    25   31   24 2
    26   32   31 1
    27   33   24 1
    28   34   33 1
    29    4    7 2
    30    8   11 2
    31   10   14 2
    32   22   30 1
    33   25   30 2
    34   25   31 1
@<TRIPOS>SUBSTRUCTURE
     1 RES1 1
     2 RES2 18

@<TRIPOS>CRYSIN
   6.4661    7.5418   14.1217  84.9960  89.6620  75.4790   2 1

