# MOL2 file generated by ConQuest
# Please check atom types

@<TRIPOS>MOLECULE
QIMGAU01
    17    17     1
SMALL
NO_CHARGES
****
Generated from CSD

@<TRIPOS>ATOM
      1 O1         4.6582    6.2768    0.2981 O.2       1 RES1    0.0000
      2 O2         5.1111    2.1513    5.5980 O.2       1 RES1    0.0000
      3 O3         3.1424    2.0517    4.7085 O.2       1 RES1    0.0000
      4 N1         4.2790    2.5119    4.7720 N.pl3     1 RES1    0.0000
      5 C1         3.8555    4.5466    1.6409 C.2       1 RES1    0.0000
      6 H1         3.1581    4.4456    1.0049 H         1 RES1    0.0000
      7 C2         3.7789    3.6868    2.6973 C.2       1 RES1    0.0000
      8 H2         3.0357    3.0951    2.6940 H         1 RES1    0.0000
      9 C3         4.8029    5.5775    1.3209 C.2       1 RES1    0.0000
     10 C4         5.9881    5.8601    2.1523 C.2       1 RES1    0.0000
     11 C5         4.6561    3.5598    3.7911 C.2       1 RES1    0.0000
     12 C6         5.7971    4.2450    4.0740 C.2       1 RES1    0.0000
     13 H3         6.2496    3.9924    4.8701 H         1 RES1    0.0000
     14 C7         6.3855    5.2789    3.3323 C.2       1 RES1    0.0000
     15 H4         7.1846    5.6340    3.7036 H         1 RES1    0.0000
     16 O4         6.7772    6.8260    1.6736 O.3       1 RES1    0.0000
     17 H5         6.3407    7.1876    0.9574 H         1 RES1    0.0000
@<TRIPOS>BOND
     1    1    9 2
     2    2    4 2
     3    3    4 2
     4    4   11 1
     5    5    6 1
     6    7    5 2
     7    8    7 1
     8    9    5 1
     9   10    9 1
    10   11    7 1
    11   12   11 2
    12   13   12 1
    13   14   10 2
    14   15   14 1
    15   16   10 1
    16   17   16 1
    17   12   14 1
@<TRIPOS>SUBSTRUCTURE
     1 RES1 1

@<TRIPOS>CRYSIN
   5.6283    5.0018   23.8100  90.0000  93.8420  90.0000 231 1

