# MOL2 file generated by ConQuest
# Please check atom types

@<TRIPOS>MOLECULE
QIMGOI01
    39    40     1
SMALL
NO_CHARGES
****
Generated from CSD

@<TRIPOS>ATOM
      1 O1         6.7131    2.4935    3.7680 O.3       1 RES1    0.0000
      2 O2         7.3920   -1.6132    3.1036 O.3       1 RES1    0.0000
      3 C1         6.0196    0.2238    3.7298 C.2       1 RES1    0.0000
      4 O3         5.4406   -2.0168    4.1160 O.2       1 RES1    0.0000
      5 C2         5.5260    2.8991    4.3187 C.2       1 RES1    0.0000
      6 N1         5.5478    4.1955    4.5751 N.3       1 RES1    0.0000
      7 C3         6.2543   -1.2333    3.6801 C.2       1 RES1    0.0000
      8 C4         4.5631    0.6232    3.9426 C.3       1 RES1    0.0000
      9 C5         3.3396    2.4586    5.1687 C.1       1 RES1    0.0000
     10 C6         4.5214    2.0100    4.5308 C.2       1 RES1    0.0000
     11 C7         6.9912    1.1402    3.6491 C.2       1 RES1    0.0000
     12 C8         3.7796    0.5143    2.6299 C.ar      1 RES1    0.0000
     13 C9         3.1847   -0.6835    2.2587 C.ar      1 RES1    0.0000
     14 N2         2.3787    2.8039    5.6959 N.1       1 RES1    0.0000
     15 C10        7.6918   -3.0472    3.1173 C.3       1 RES1    0.0000
     16 C11        8.4679    0.9858    3.4465 C.3       1 RES1    0.0000
     17 O4         2.1980   -3.0371    1.2933 O.2       1 RES1    0.0000
     18 C12        3.6744    1.6066    1.7693 C.ar      1 RES1    0.0000
     19 N3         1.9349   -2.0483    0.6430 N.pl3     1 RES1    0.0000
     20 C13        2.5090   -0.7496    1.0485 C.ar      1 RES1    0.0000
     21 C14        7.1429   -3.7218    1.9013 C.3       1 RES1    0.0000
     22 C15        2.3739    0.3261    0.1983 C.ar      1 RES1    0.0000
     23 C16        2.9789    1.5141    0.5722 C.ar      1 RES1    0.0000
     24 O5         1.2143   -2.0549   -0.3542 O.2       1 RES1    0.0000
     25 H1         1.8265    0.2814   -0.6501 H         1 RES1    0.0000
     26 H2         8.6789   -3.0966    3.1962 H         1 RES1    0.0000
     27 H3         4.8260    4.5867    4.8011 H         1 RES1    0.0000
     28 H4         6.1661    4.7420    4.3609 H         1 RES1    0.0000
     29 H5         7.2444   -3.3935    3.9680 H         1 RES1    0.0000
     30 H6         4.0805    2.4412    2.0144 H         1 RES1    0.0000
     31 H7         2.8978    2.2917   -0.0326 H         1 RES1    0.0000
     32 H8         7.3488   -4.6586    1.9337 H         1 RES1    0.0000
     33 H9         7.5357   -3.3344    1.1156 H         1 RES1    0.0000
     34 H10        6.1903   -3.6042    1.8739 H         1 RES1    0.0000
     35 H11        8.6586    1.1269    2.4603 H         1 RES1    0.0000
     36 H12        8.9365    1.6356    3.9748 H         1 RES1    0.0000
     37 H13        8.7324    0.1031    3.7158 H         1 RES1    0.0000
     38 H14        4.1486   -0.0778    4.6332 H         1 RES1    0.0000
     39 H15        3.2453   -1.4480    2.8357 H         1 RES1    0.0000
@<TRIPOS>BOND
     1    1    5 1
     2    2    7 1
     3    3    7 1
     4    4    7 2
     5    5    6 1
     6    6   27 1
     7    8    3 1
     8    9   10 1
     9   10    5 2
    10   11    1 1
    11   12    8 1
    12   13   12 ar
    13   14    9 3
    14   15    2 1
    15   16   11 1
    16   17   19 2
    17   18   12 ar
    18   19   20 1
    19   20   13 ar
    20   21   15 1
    21   22   20 ar
    22   23   18 ar
    23   24   19 2
    24   25   22 1
    25   26   15 1
    26   28    6 1
    27   29   15 1
    28   30   18 1
    29   31   23 1
    30   32   21 1
    31   33   21 1
    32   34   21 1
    33   35   16 1
    34   36   16 1
    35   37   16 1
    36   38    8 1
    37   39   13 1
    38    3   11 2
    39    8   10 1
    40   22   23 ar
@<TRIPOS>SUBSTRUCTURE
     1 RES1 1

@<TRIPOS>CRYSIN
   8.3621    8.4736   12.0001  82.1919  71.0390  76.1760   2 1

