# MOL2 file generated by ConQuest
# Please check atom types

@<TRIPOS>MOLECULE
QIMGAU
    34    34     2
SMALL
NO_CHARGES
****
Generated from CSD

@<TRIPOS>ATOM
      1 N1        -2.5736    4.4304    1.2212 N.pl3     1 RES1    0.0000
      2 O1         0.0448    6.7091    5.9203 O.2       1 RES1    0.0000
      3 O2         2.0507    6.0954    4.4075 O.3       1 RES1    0.0000
      4 H1         1.9840    6.4079    5.1629 H         1 RES1    0.0000
      5 O3        -2.1247    4.0479    0.1600 O.2       1 RES1    0.0000
      6 O4        -3.7619    4.4519    1.4565 O.2       1 RES1    0.0000
      7 C1        -0.2653    6.1561    4.8535 C.2       1 RES1    0.0000
      8 C2         0.8428    5.8117    3.9373 C.2       1 RES1    0.0000
      9 C3         0.7870    5.2664    2.6828 C.2       1 RES1    0.0000
     10 H2         1.6125    5.1432    2.2717 H         1 RES1    0.0000
     11 C4        -0.3187    4.8655    1.9209 C.2       1 RES1    0.0000
     12 H3        -0.1283    4.5277    1.0756 H         1 RES1    0.0000
     13 C5        -1.6358    4.9077    2.2617 C.2       1 RES1    0.0000
     14 C6        -2.2391    5.3478    3.4572 C.2       1 RES1    0.0000
     15 H4        -3.1645    5.2634    3.4999 H         1 RES1    0.0000
     16 C7        -1.6416    5.8805    4.5560 C.2       1 RES1    0.0000
     17 H5        -2.2318    6.1076    5.2382 H         1 RES1    0.0000
     18 N2        -0.4845    2.4875    4.9859 N.pl3     2 RES2    0.0000
     19 O5         2.2819    0.3010    0.3290 O.2       2 RES2    0.0000
     20 O6         4.2297    1.1452    1.7837 O.3       2 RES2    0.0000
     21 H6         4.1802    0.7677    1.0574 H         2 RES2    0.0000
     22 O7        -1.6393    2.1018    4.8993 O.2       2 RES2    0.0000
     23 O8        -0.0900    3.2135    5.8858 O.2       2 RES2    0.0000
     24 C8         1.9267    0.8416    1.3944 C.2       2 RES2    0.0000
     25 C9         3.0045    1.3359    2.2699 C.2       2 RES2    0.0000
     26 C10        2.9190    1.9519    3.4861 C.2       2 RES2    0.0000
     27 H7         3.7354    2.1943    3.8601 H         2 RES2    0.0000
     28 C11        1.7925    2.2765    4.2605 C.2       2 RES2    0.0000
     29 H8         1.9596    2.6965    5.0731 H         2 RES2    0.0000
     30 C12        0.4841    2.0473    3.9573 C.2       2 RES2    0.0000
     31 C13       -0.0872    1.4712    2.8152 C.2       2 RES2    0.0000
     32 H9        -1.0163    1.4250    2.8089 H         2 RES2    0.0000
     33 C14        0.5355    0.9700    1.7126 C.2       2 RES2    0.0000
     34 H10       -0.0411    0.6580    1.0530 H         2 RES2    0.0000
@<TRIPOS>BOND
     1    1    5 2
     2    2    7 2
     3    3    4 1
     4    6    1 2
     5    7    8 1
     6    8    3 1
     7    9    8 2
     8   10    9 1
     9   11    9 1
    10   12   11 1
    11   13    1 1
    12   14   13 1
    13   15   14 1
    14   16    7 1
    15   17   16 1
    16   18   22 2
    17   19   24 2
    18   20   21 1
    19   23   18 2
    20   24   25 1
    21   25   20 1
    22   26   25 2
    23   27   26 1
    24   28   26 1
    25   29   28 1
    26   30   18 1
    27   31   30 1
    28   32   31 1
    29   33   24 1
    30   34   33 1
    31   11   13 2
    32   14   16 2
    33   28   30 2
    34   31   33 2
@<TRIPOS>SUBSTRUCTURE
     1 RES1 1
     2 RES2 18

@<TRIPOS>CRYSIN
   7.5701   14.4960    6.4945  90.7510 104.7960  94.4100   2 1

