# MOL2 file generated by ConQuest
# Please check atom types

@<TRIPOS>MOLECULE
QIMHID
    22    20     2
SMALL
USER_CHARGES
****
Generated from CSD

@<TRIPOS>ATOM
      1 C1         5.6713   -0.2697    4.6613 C.2       1 RES1    0.0000
      2 N1         5.4085    0.5876    3.6795 N.2       1 RES1    0.0000
      3 N2         6.6689   -1.0852    4.8572 N.3       1 RES1    0.0000
      4 H1         6.6694   -1.5648    5.6093 H         1 RES1    0.0000
      5 H2         7.3472   -1.0178    4.2969 H         1 RES1    0.0000
      6 N3         6.3267    0.7269    2.6954 N.pl3     1 RES1    0.0000
      7 N4         4.7109   -0.3385    5.6666 N.2       1 RES1    0.0000
      8 N5         3.7217    0.4138    5.4805 N.1       1 RES1    1.0000
      9 N6         2.7851    1.0102    5.4761 N.2       1 RES1   -1.0000
     10 O1         6.0014    1.5174    1.8019 O.2       1 RES1    0.0000
     11 O2         7.4004    0.1304    2.6688 O.2       1 RES1    0.0000
     12 C2         3.3308    3.7381   -0.3711 C.2       2 RES2    0.0000
     13 N7         2.2989    2.9116   -0.1904 N.2       2 RES2    0.0000
     14 N8         3.7357    4.3815   -1.4283 N.3       2 RES2    0.0000
     15 H3         4.3958    4.8878   -1.3723 H         2 RES2    0.0000
     16 H4         3.3440    4.2380   -2.1851 H         2 RES2    0.0000
     17 N9         1.5066    2.6427   -1.2537 N.pl3     2 RES2    0.0000
     18 N10        4.1115    3.9867    0.7506 N.2       2 RES2    0.0000
     19 N11        3.6396    3.4897    1.8040 N.1       2 RES2    1.0000
     20 N12        3.3410    3.1239    2.8086 N.2       2 RES2   -1.0000
     21 O3         0.5222    1.9533   -1.0011 O.2       2 RES2    0.0000
     22 O4         1.7384    3.0478   -2.3943 O.2       2 RES2    0.0000
@<TRIPOS>BOND
     1    1    2 2
     2    2    6 1
     3    3    1 1
     4    4    3 1
     5    5    3 1
     6    6   10 2
     7    7    1 1
     8    8    7 2
     9    9    8 2
    10   11    6 2
    11   12   13 2
    12   13   17 1
    13   14   12 1
    14   15   14 1
    15   16   14 1
    16   17   21 2
    17   18   12 1
    18   19   18 2
    19   20   19 2
    20   22   17 2
@<TRIPOS>SUBSTRUCTURE
     1 RES1 1
     2 RES2 12

@<TRIPOS>CRYSIN
   9.9302    7.9433    7.1288  98.3100 110.5800  75.1080   2 1

