# MOL2 file generated by ConQuest
# Please check atom types

@<TRIPOS>MOLECULE
QIMLIH
    55    56     1
SMALL
NO_CHARGES
****
Generated from CSD

@<TRIPOS>ATOM
      1 O1         2.1187   -5.0780  -11.2584 O.3       1 RES1    0.0000
      2 O2         5.0357   -5.5881   -8.2475 O.3       1 RES1    0.0000
      3 O3         3.5841   -3.3409   -7.4562 O.3       1 RES1    0.0000
      4 O4         1.9361   -3.2757   -9.7724 O.3       1 RES1    0.0000
      5 O5        -0.4844   -2.8474   -8.3590 O.3       1 RES1    0.0000
      6 O6        -0.6256   -5.2995  -10.7792 O.2       1 RES1    0.0000
      7 O7         2.5464   -4.1856  -13.8211 O.2       1 RES1    0.0000
      8 O8         5.7986   -3.2600  -11.8717 O.2       1 RES1    0.0000
      9 O9         4.1152   -7.3409   -7.1991 O.2       1 RES1    0.0000
     10 O10        4.0717   -4.3336   -5.5045 O.2       1 RES1    0.0000
     11 O11       -1.3308   -4.7334   -7.5522 O.2       1 RES1    0.0000
     12 N1         1.1213   -4.6718  -12.1105 N.am      1 RES1    0.0000
     13 N2         4.8438   -5.1139  -11.0889 N.am      1 RES1    0.0000
     14 C1         2.7735   -3.9227  -10.6787 C.3       1 RES1    0.0000
     15 C2         4.0566   -4.4347  -10.0856 C.3       1 RES1    0.0000
     16 C3         3.7742   -5.2940   -8.8675 C.3       1 RES1    0.0000
     17 C4         2.8778   -4.5192   -7.9076 C.3       1 RES1    0.0000
     18 C5         1.6195   -4.0422   -8.5955 C.3       1 RES1    0.0000
     19 C6         0.7780   -3.1544   -7.7316 C.3       1 RES1    0.0000
     20 C7        -0.2058   -4.8326  -11.7871 C.2       1 RES1    0.0000
     21 C8        -0.9303   -4.3069  -12.9938 C.3       1 RES1    0.0000
     22 C9         0.1210   -3.8602  -13.9880 C.3       1 RES1    0.0000
     23 C10        1.4321   -4.2380  -13.3938 C.2       1 RES1    0.0000
     24 C11        5.5711   -4.4576  -11.9757 C.2       1 RES1    0.0000
     25 C12        6.0545   -5.2389  -13.1572 C.3       1 RES1    0.0000
     26 C13        5.0689   -6.6543   -7.4014 C.2       1 RES1    0.0000
     27 C14        6.3976   -6.7830   -6.7877 C.3       1 RES1    0.0000
     28 C15        4.1415   -3.3795   -6.2301 C.2       1 RES1    0.0000
     29 C16        4.8228   -2.0827   -5.9478 C.3       1 RES1    0.0000
     30 C17       -1.4656   -3.7472   -8.2150 C.2       1 RES1    0.0000
     31 C18       -2.6989   -3.3437   -8.9349 C.3       1 RES1    0.0000
     32 H1         2.9876   -3.3161  -11.3780 H         1 RES1    0.0000
     33 H2         4.5580   -3.6838   -9.7931 H         1 RES1    0.0000
     34 H3         3.3475   -6.0991   -9.1314 H         1 RES1    0.0000
     35 H4         2.6520   -5.0670   -7.1637 H         1 RES1    0.0000
     36 H5         1.1048   -4.7995   -8.8515 H         1 RES1    0.0000
     37 H6         1.2473   -2.3474   -7.5716 H         1 RES1    0.0000
     38 H7         0.6111   -3.5964   -6.9077 H         1 RES1    0.0000
     39 H8        -1.4707   -3.5661  -12.7504 H         1 RES1    0.0000
     40 H9        -1.4674   -4.9880  -13.3709 H         1 RES1    0.0000
     41 H10        0.0772   -2.9292  -14.1297 H         1 RES1    0.0000
     42 H11       -0.0004   -4.3170  -14.8187 H         1 RES1    0.0000
     43 H12        5.7634   -6.1368  -13.0807 H         1 RES1    0.0000
     44 H13        5.7070   -4.8547  -13.9526 H         1 RES1    0.0000
     45 H14        7.0048   -5.2122  -13.1812 H         1 RES1    0.0000
     46 H15        4.7351   -5.9300  -11.1872 H         1 RES1    0.0000
     47 H16        6.5977   -5.9962   -6.2952 H         1 RES1    0.0000
     48 H17        6.4060   -7.5329   -6.2027 H         1 RES1    0.0000
     49 H18        7.0506   -6.9052   -7.4676 H         1 RES1    0.0000
     50 H19        4.1900   -1.3759   -5.9890 H         1 RES1    0.0000
     51 H20        5.5013   -1.9338   -6.6003 H         1 RES1    0.0000
     52 H21        5.2163   -2.1084   -5.0862 H         1 RES1    0.0000
     53 H22       -3.3680   -4.0054   -8.8160 H         1 RES1    0.0000
     54 H23       -3.0088   -2.5128   -8.5944 H         1 RES1    0.0000
     55 H24       -2.5052   -3.2518   -9.8628 H         1 RES1    0.0000
@<TRIPOS>BOND
     1    1   12 1
     2    2   16 1
     3    3   17 1
     4    4   14 1
     5    5   19 1
     6    6   20 2
     7    7   23 2
     8    8   24 2
     9    9   26 2
    10   10   28 2
    11   11   30 2
    12   12   20 1
    13   13   15 1
    14   14    1 1
    15   15   14 1
    16   16   15 1
    17   17   16 1
    18   18    4 1
    19   19   18 1
    20   20   21 1
    21   21   22 1
    22   22   23 1
    23   23   12 1
    24   24   13 1
    25   25   24 1
    26   26    2 1
    27   27   26 1
    28   28    3 1
    29   29   28 1
    30   30    5 1
    31   31   30 1
    32   32   14 1
    33   33   15 1
    34   34   16 1
    35   35   17 1
    36   36   18 1
    37   37   19 1
    38   38   19 1
    39   39   21 1
    40   40   21 1
    41   41   22 1
    42   42   22 1
    43   43   25 1
    44   44   25 1
    45   45   25 1
    46   46   13 1
    47   47   27 1
    48   48   27 1
    49   49   27 1
    50   50   29 1
    51   51   29 1
    52   52   29 1
    53   53   31 1
    54   54   31 1
    55   55   31 1
    56   17   18 1
@<TRIPOS>SUBSTRUCTURE
     1 RES1 1

@<TRIPOS>CRYSIN
  10.5560    9.1910   12.5360  90.0000 114.2800  90.0000   4 1

