# MOL2 file generated by ConQuest
# Please check atom types

@<TRIPOS>MOLECULE
QIQBID
    48    51     1
SMALL
NO_CHARGES
****
Generated from CSD

@<TRIPOS>ATOM
      1 O1        -0.4281    1.3066   10.1476 O.2       1 RES1    0.0000
      2 O2        -1.7638    1.4421    8.4706 O.2       1 RES1    0.0000
      3 O3        -0.6363   -1.3886   10.3165 O.3       1 RES1    0.0000
      4 O4         0.4674   -5.1752    9.7690 O.2       1 RES1    0.0000
      5 N1        -1.5410    1.1965    9.6372 N.pl3     1 RES1    0.0000
      6 N2         0.8473   -3.3503    8.5254 N.am      1 RES1    0.0000
      7 N3         0.9498   -2.7298    7.2860 N.2       1 RES1    0.0000
      8 C1        -3.6628   -0.5469   12.1503 C.ar      1 RES1    0.0000
      9 C2        -4.7810    0.2278   12.0937 C.ar      1 RES1    0.0000
     10 C3        -4.8531    1.2899   11.2187 C.ar      1 RES1    0.0000
     11 C4        -3.7946    1.5722   10.4003 C.ar      1 RES1    0.0000
     12 C5        -2.6674    0.7871   10.4720 C.ar      1 RES1    0.0000
     13 C6        -2.5536   -0.2962   11.3407 C.ar      1 RES1    0.0000
     14 C7        -1.3884   -1.1601   11.4463 C.2       1 RES1    0.0000
     15 C8         0.3998   -2.2222   10.6870 C.2       1 RES1    0.0000
     16 C9         0.2947   -2.5068   11.9982 C.2       1 RES1    0.0000
     17 C10       -0.8558   -1.8390   12.4884 C.2       1 RES1    0.0000
     18 C11        1.3961   -2.5283    9.6360 C.3       1 RES1    0.0000
     19 C12        0.4734   -4.6529    8.6491 C.2       1 RES1    0.0000
     20 C13        0.0705   -5.3727    7.4083 C.3       1 RES1    0.0000
     21 C14        1.5249   -1.5832    7.4574 C.2       1 RES1    0.0000
     22 C15        1.9048   -1.2981    8.8792 C.3       1 RES1    0.0000
     23 C16        1.7716   -0.6841    6.3360 C.ar      1 RES1    0.0000
     24 C17        1.3904   -0.9886    5.0424 C.ar      1 RES1    0.0000
     25 C18        1.6214   -0.1038    4.0103 C.ar      1 RES1    0.0000
     26 C19        2.2252    1.1242    4.2240 C.ar      1 RES1    0.0000
     27 C20        2.6127    1.4256    5.5176 C.ar      1 RES1    0.0000
     28 C21        2.4020    0.5516    6.5648 C.ar      1 RES1    0.0000
     29 C22        2.4449    2.0977    3.0951 C.3       1 RES1    0.0000
     30 H1        -3.6373   -1.2615   12.7449 H         1 RES1    0.0000
     31 H2        -5.5023    0.0391   12.6494 H         1 RES1    0.0000
     32 H3        -5.6203    1.8140   11.1860 H         1 RES1    0.0000
     33 H4        -3.8364    2.2844    9.8032 H         1 RES1    0.0000
     34 H5         0.8713   -3.0444   12.4922 H         1 RES1    0.0000
     35 H6        -1.1818   -1.8633   13.3596 H         1 RES1    0.0000
     36 H7         2.1566   -2.9970   10.0395 H         1 RES1    0.0000
     37 H8         0.0419   -6.3158    7.5806 H         1 RES1    0.0000
     38 H9         0.7087   -5.1936    6.7131 H         1 RES1    0.0000
     39 H10       -0.7977   -5.0712    7.1305 H         1 RES1    0.0000
     40 H11        1.4747   -0.4888    9.1998 H         1 RES1    0.0000
     41 H12        2.8660   -1.2040    8.9722 H         1 RES1    0.0000
     42 H13        0.9740   -1.8017    4.8664 H         1 RES1    0.0000
     43 H14        1.3635   -0.3369    3.1479 H         1 RES1    0.0000
     44 H15        3.0275    2.2409    5.6861 H         1 RES1    0.0000
     45 H16        2.6772    0.7807    7.4234 H         1 RES1    0.0000
     46 H17        1.6774    2.0984    2.5193 H         1 RES1    0.0000
     47 H18        3.2208    1.8355    2.5935 H         1 RES1    0.0000
     48 H19        2.5774    2.9785    3.4534 H         1 RES1    0.0000
@<TRIPOS>BOND
     1    1    5 2
     2    2    5 2
     3    3   14 1
     4    4   19 2
     5    5   12 1
     6    6    7 1
     7    7   21 2
     8    8    9 ar
     9    9   10 ar
    10   10   11 ar
    11   11   12 ar
    12   12   13 ar
    13   13    8 ar
    14   14   13 1
    15   15    3 1
    16   16   15 2
    17   17   14 2
    18   18    6 1
    19   19    6 1
    20   20   19 1
    21   21   22 1
    22   22   18 1
    23   23   21 1
    24   24   23 ar
    25   25   24 ar
    26   26   25 ar
    27   27   26 ar
    28   28   23 ar
    29   29   26 1
    30   30    8 1
    31   31    9 1
    32   32   10 1
    33   33   11 1
    34   34   16 1
    35   35   17 1
    36   36   18 1
    37   37   20 1
    38   38   20 1
    39   39   20 1
    40   40   22 1
    41   41   22 1
    42   42   24 1
    43   43   25 1
    44   44   27 1
    45   45   28 1
    46   46   29 1
    47   47   29 1
    48   48   29 1
    49   15   18 1
    50   16   17 1
    51   27   28 ar
@<TRIPOS>SUBSTRUCTURE
     1 RES1 1

@<TRIPOS>CRYSIN
   7.6235   10.5652   13.1177 103.3440  95.0250 108.2210   2 1

