# MOL2 file generated by ConQuest
# Please check atom types

@<TRIPOS>MOLECULE
QIRCEZ
    21    23     1
SMALL
USER_CHARGES
****
Generated from CSD

@<TRIPOS>ATOM
      1 O1         3.0201   -0.6980    3.3482 O.2       1 RES1    0.0000
      2 O2         0.8368    2.3907    0.6476 O.2       1 RES1   -1.0000
      3 N1         2.2436   -0.1742    2.4561 N.3       1 RES1    0.0000
      4 N2         1.2146    1.2924    1.1914 N.pl3     1 RES1    1.0000
      5 N3         3.6591    3.0060    5.0406 N.ar      1 RES1    0.0000
      6 C1         3.1507    2.0621    4.2830 C.ar      1 RES1    0.0000
      7 C2         2.7264    2.2496    2.9205 C.ar      1 RES1    0.0000
      8 C3         2.8583    3.5067    2.3645 C.ar      1 RES1    0.0000
      9 C4         3.3960    4.5377    3.1527 C.ar      1 RES1    0.0000
     10 C5         3.7811    4.2565    4.4907 C.ar      1 RES1    0.0000
     11 C6         3.4993    5.8886    2.6700 C.ar      1 RES1    0.0000
     12 C7         3.9668    6.8623    3.5376 C.ar      1 RES1    0.0000
     13 C8         4.3667    6.5723    4.8329 C.ar      1 RES1    0.0000
     14 C9         4.2635    5.3041    5.3278 C.ar      1 RES1    0.0000
     15 C10        2.1002    1.1579    2.1751 C.2       1 RES1    0.0000
     16 C11        1.4732   -1.0366    1.4969 C.3       1 RES1    0.0000
     17 C12        0.5157   -0.0022    0.8432 C.3       1 RES1    0.0000
     18 C13        0.3942   -0.0882   -0.6537 C.3       1 RES1    0.0000
     19 C14       -0.8490    0.0662    1.4847 C.3       1 RES1    0.0000
     20 C15        0.7734   -2.1503    2.2362 C.3       1 RES1    0.0000
     21 C16        2.5128   -1.6320    0.4949 C.3       1 RES1    0.0000
@<TRIPOS>BOND
     1    1    3 1
     2    2    4 1
     3    3   15 1
     4    4   15 2
     5    5    6 ar
     6    6    7 ar
     7    7    8 ar
     8    8    9 ar
     9    9   10 ar
    10   10    5 ar
    11   11    9 ar
    12   12   11 ar
    13   13   12 ar
    14   14   10 ar
    15   15    7 1
    16   16    3 1
    17   17    4 1
    18   18   17 1
    19   19   17 1
    20   20   16 1
    21   21   16 1
    22   13   14 ar
    23   16   17 1
@<TRIPOS>SUBSTRUCTURE
     1 RES1 1

@<TRIPOS>CRYSIN
  10.5356   11.0273    6.1267  90.0000  94.2550  90.0000   4 1

