# MOL2 file generated by ConQuest
# Please check atom types

@<TRIPOS>MOLECULE
QIRCOJ
    40    42     1
SMALL
USER_CHARGES
****
Generated from CSD

@<TRIPOS>ATOM
      1 O1         7.1766    4.7651    2.3485 O.2       1 RES1    0.0000
      2 O2         4.1022    2.2152   -0.0031 O.2       1 RES1   -1.0000
      3 N1         6.0624    4.2917    1.9059 N.3       1 RES1    0.0000
      4 N2         4.6144    3.1048    0.7757 N.pl3     1 RES1    1.0000
      5 C1         5.9437    3.3250    0.9726 C.2       1 RES1    0.0000
      6 C2         7.0369    2.6534    0.2863 C.ar      1 RES1    0.0000
      7 C3         8.2798    2.5477    0.8557 C.ar      1 RES1    0.0000
      8 C4         9.3430    1.8871    0.1970 C.ar      1 RES1    0.0000
      9 C5        10.6213    1.7550    0.7572 C.ar      1 RES1    0.0000
     10 C6        11.6247    1.1010    0.0862 C.ar      1 RES1    0.0000
     11 C7        11.3819    0.5725   -1.1820 C.ar      1 RES1    0.0000
     12 C8        10.1679    0.6870   -1.7729 C.ar      1 RES1    0.0000
     13 C9         9.1102    1.3432   -1.1019 C.ar      1 RES1    0.0000
     14 C10        7.8385    1.4886   -1.6867 C.ar      1 RES1    0.0000
     15 C11        6.8185    2.1051   -1.0219 C.ar      1 RES1    0.0000
     16 C12        4.7608    4.9347    2.2593 C.3       1 RES1    0.0000
     17 C13        3.7430    3.8953    1.7046 C.3       1 RES1    0.0000
     18 C14        4.7098    5.1835    3.7428 C.3       1 RES1    0.0000
     19 C15        4.7486    6.2735    1.5205 C.3       1 RES1    0.0000
     20 C16        2.5866    4.4767    0.9234 C.3       1 RES1    0.0000
     21 C17        3.2363    2.9221    2.7456 C.3       1 RES1    0.0000
     22 H1         8.4361    2.9617    1.7551 H         1 RES1    0.0000
     23 H2        10.8642    2.1822    1.6350 H         1 RES1    0.0000
     24 H3        12.5339    0.9557    0.5337 H         1 RES1    0.0000
     25 H4        12.1314    0.1167   -1.6400 H         1 RES1    0.0000
     26 H5        10.0393    0.2973   -2.6508 H         1 RES1    0.0000
     27 H6         7.6434    1.1406   -2.5892 H         1 RES1    0.0000
     28 H7         5.9005    2.2042   -1.4313 H         1 RES1    0.0000
     29 H8         5.4215    5.7208    4.0648 H         1 RES1    0.0000
     30 H9         3.8738    5.6327    3.9916 H         1 RES1    0.0000
     31 H10        4.7142    4.3490    4.2132 H         1 RES1    0.0000
     32 H11        5.4448    6.8306    1.7520 H         1 RES1    0.0000
     33 H12        4.7286    6.1150    0.5762 H         1 RES1    0.0000
     34 H13        3.8960    6.7381    1.7280 H         1 RES1    0.0000
     35 H14        1.9979    4.9897    1.4553 H         1 RES1    0.0000
     36 H15        2.8981    5.0316    0.1921 H         1 RES1    0.0000
     37 H16        2.0677    3.7610    0.5097 H         1 RES1    0.0000
     38 H17        2.6409    3.3669    3.3938 H         1 RES1    0.0000
     39 H18        2.7241    2.2130    2.3602 H         1 RES1    0.0000
     40 H19        3.9470    2.5389    3.2571 H         1 RES1    0.0000
@<TRIPOS>BOND
     1    1    3 1
     2    2    4 1
     3    3    5 1
     4    4    5 2
     5    5    6 1
     6    6    7 ar
     7    7    8 ar
     8    8    9 ar
     9    9   10 ar
    10   10   11 ar
    11   11   12 ar
    12   12   13 ar
    13   13    8 ar
    14   14   13 ar
    15   15    6 ar
    16   16    3 1
    17   17    4 1
    18   18   16 1
    19   19   16 1
    20   20   17 1
    21   21   17 1
    22   22    7 1
    23   23    9 1
    24   24   10 1
    25   25   11 1
    26   26   12 1
    27   27   14 1
    28   28   15 1
    29   29   18 1
    30   30   18 1
    31   31   18 1
    32   32   19 1
    33   33   19 1
    34   34   19 1
    35   35   20 1
    36   36   20 1
    37   37   20 1
    38   38   21 1
    39   39   21 1
    40   40   21 1
    41   14   15 ar
    42   16   17 1
@<TRIPOS>SUBSTRUCTURE
     1 RES1 1

@<TRIPOS>CRYSIN
  11.0870   22.0200    6.1560  90.0000  90.0000  90.0000  19 1

