# MOL2 file generated by ConQuest
# Please check atom types

@<TRIPOS>MOLECULE
QIRCUP
    39    41     1
SMALL
USER_CHARGES
****
Generated from CSD

@<TRIPOS>ATOM
      1 O1         3.9273    9.1982    2.7546 O.2       1 RES1    0.0000
      2 O2         0.6226    6.8986    5.0063 O.2       1 RES1   -1.0000
      3 N1         3.2121    8.7204    3.6864 N.3       1 RES1    0.0000
      4 N2         1.6059    7.6469    4.7787 N.pl3     1 RES1    1.0000
      5 N3         2.3350    6.8844    1.4109 N.ar      1 RES1    0.0000
      6 C1         1.7593    6.5510    0.2162 C.ar      1 RES1    0.0000
      7 C2         2.6107    5.8251   -0.7168 C.ar      1 RES1    0.0000
      8 C3         2.0761    5.5018   -1.9342 C.ar      1 RES1    0.0000
      9 C4         0.7921    5.7662   -2.2642 C.ar      1 RES1    0.0000
     10 C5        -0.0897    6.3944   -1.3654 C.ar      1 RES1    0.0000
     11 C6         0.4473    6.7787   -0.0910 C.ar      1 RES1    0.0000
     12 C7        -0.3944    7.4191    0.8875 C.ar      1 RES1    0.0000
     13 C8         0.1690    7.7485    2.0708 C.ar      1 RES1    0.0000
     14 C9         1.5601    7.5005    2.2870 C.ar      1 RES1    0.0000
     15 C10        2.1776    7.9620    3.5385 C.2       1 RES1    0.0000
     16 C11        3.3116    9.2368    5.0973 C.3       1 RES1    0.0000
     17 C12        2.5031    8.1958    5.8938 C.3       1 RES1    0.0000
     18 C13        4.7878    9.3975    5.4955 C.3       1 RES1    0.0000
     19 C14        2.6443   10.6357    5.0518 C.3       1 RES1    0.0000
     20 C15        3.2863    7.0410    6.4171 C.3       1 RES1    0.0000
     21 C16        1.5947    8.7794    6.9747 C.3       1 RES1    0.0000
     22 H1         3.5268    5.5913   -0.5689 H         1 RES1    0.0000
     23 H2         2.6752    4.7170   -2.3894 H         1 RES1    0.0000
     24 H3         0.3671    5.3270   -3.1858 H         1 RES1    0.0000
     25 H4        -0.9342    6.5266   -1.5929 H         1 RES1    0.0000
     26 H5        -1.4397    7.5838    0.7965 H         1 RES1    0.0000
     27 H6        -0.2677    8.0311    2.7307 H         1 RES1    0.0000
     28 H7         5.2590    8.5191    5.3476 H         1 RES1    0.0000
     29 H8         5.2269   10.0237    4.8925 H         1 RES1    0.0000
     30 H9         4.8629    9.5154    6.2579 H         1 RES1    0.0000
     31 H10        3.1129   10.9183    5.9165 H         1 RES1    0.0000
     32 H11        3.3454   11.1013    4.5512 H         1 RES1    0.0000
     33 H12        1.6680   10.7556    5.0063 H         1 RES1    0.0000
     34 H13        2.8078    6.2419    6.4854 H         1 RES1    0.0000
     35 H14        4.2391    6.8316    5.8027 H         1 RES1    0.0000
     36 H15        4.1549    7.6042    6.9405 H         1 RES1    0.0000
     37 H16        2.0578    9.4544    7.7370 H         1 RES1    0.0000
     38 H17        0.8353    9.4950    6.4854 H         1 RES1    0.0000
     39 H18        0.8506    8.3768    7.1681 H         1 RES1    0.0000
@<TRIPOS>BOND
     1    1    3 1
     2    2    4 1
     3    3   15 1
     4    4   15 2
     5    5    6 ar
     6    6    7 ar
     7    7    8 ar
     8    8    9 ar
     9    9   10 ar
    10   10   11 ar
    11   11    6 ar
    12   12   11 ar
    13   13   12 ar
    14   14    5 ar
    15   15   14 1
    16   16    3 1
    17   17    4 1
    18   18   16 1
    19   19   16 1
    20   20   17 1
    21   21   17 1
    22   22    7 1
    23   23    8 1
    24   24    9 1
    25   25   10 1
    26   26   12 1
    27   27   13 1
    28   28   18 1
    29   29   18 1
    30   30   18 1
    31   31   19 1
    32   32   19 1
    33   33   19 1
    34   34   20 1
    35   35   20 1
    36   36   20 1
    37   37   21 1
    38   38   21 1
    39   39   21 1
    40   13   14 ar
    41   16   17 1
@<TRIPOS>SUBSTRUCTURE
     1 RES1 1

@<TRIPOS>CRYSIN
   6.5750   20.3320   11.4090  90.0000  94.2300  90.0000   9 1

