# MOL2 file generated by ConQuest
# Please check atom types

@<TRIPOS>MOLECULE
QIRDAW
    39    41     1
SMALL
USER_CHARGES
****
Generated from CSD

@<TRIPOS>ATOM
      1 O1         9.1745   -1.2545    5.2454 O.2       1 RES1    0.0000
      2 O2         4.8395    0.2728    5.6665 O.2       1 RES1   -1.0000
      3 N1         7.9130   -1.2002    5.3012 N.3       1 RES1    0.0000
      4 N2         5.8495   -0.4912    5.5649 N.pl3     1 RES1    1.0000
      5 N3         8.4989    3.8892    5.9204 N.ar      1 RES1    0.0000
      6 C1         7.1382   -0.1509    5.5755 C.2       1 RES1    0.0000
      7 C2         7.6486    1.2371    5.7575 C.ar      1 RES1    0.0000
      8 C3         8.5332    1.7451    4.8385 C.ar      1 RES1    0.0000
      9 C4         8.9573    3.0746    4.9795 C.ar      1 RES1    0.0000
     10 C5         7.7034    3.3917    6.8557 C.ar      1 RES1    0.0000
     11 C6         7.2118    2.0572    6.8345 C.ar      1 RES1    0.0000
     12 C7         6.3943    1.6000    7.8925 C.ar      1 RES1    0.0000
     13 C8         6.0073    2.4534    8.8729 C.ar      1 RES1    0.0000
     14 C9         6.4352    3.7841    8.8729 C.ar      1 RES1    0.0000
     15 C10        7.2445    4.2476    7.8925 C.ar      1 RES1    0.0000
     16 C11        7.0500   -2.3918    4.8949 C.3       1 RES1    0.0000
     17 C12        5.7115   -1.9987    5.5769 C.3       1 RES1    0.0000
     18 C13        7.0005   -2.3401    3.3644 C.3       1 RES1    0.0000
     19 C14        7.6632   -3.6818    5.3675 C.3       1 RES1    0.0000
     20 C15        4.4553   -2.4262    4.8526 C.3       1 RES1    0.0000
     21 C16        5.6622   -2.4149    7.0461 C.3       1 RES1    0.0000
     22 H1         8.8321    1.2109    4.1162 H         1 RES1    0.0000
     23 H2         9.5901    3.4065    4.3476 H         1 RES1    0.0000
     24 H3         6.0987    0.6973    7.9143 H         1 RES1    0.0000
     25 H4         5.4465    2.1456    9.5761 H         1 RES1    0.0000
     26 H5         6.1468    4.3732    9.5669 H         1 RES1    0.0000
     27 H6         7.5150    5.1648    7.8932 H         1 RES1    0.0000
     28 H7         6.6034   -1.5062    3.0914 H         1 RES1    0.0000
     29 H8         7.8772   -2.3861    3.0068 H         1 RES1    0.0000
     30 H9         6.4760   -3.0515    3.0307 H         1 RES1    0.0000
     31 H10        7.1180   -4.4036    5.0966 H         1 RES1    0.0000
     32 H11        8.5301   -3.7723    4.9887 H         1 RES1    0.0000
     33 H12        7.7305   -3.6632    6.3140 H         1 RES1    0.0000
     34 H13        3.7067   -2.0444    5.2842 H         1 RES1    0.0000
     35 H14        4.5045   -2.1404    3.9568 H         1 RES1    0.0000
     36 H15        4.3965   -3.3767    4.8885 H         1 RES1    0.0000
     37 H16        5.5636   -3.3530    7.1188 H         1 RES1    0.0000
     38 H17        6.4628   -2.1438    7.4869 H         1 RES1    0.0000
     39 H18        4.9197   -1.9884    7.4778 H         1 RES1    0.0000
@<TRIPOS>BOND
     1    1    3 1
     2    2    4 1
     3    3    6 1
     4    4    6 2
     5    5    9 ar
     6    6    7 1
     7    7    8 ar
     8    8    9 ar
     9    9   23 1
    10   10    5 ar
    11   11    7 ar
    12   12   11 ar
    13   13   12 ar
    14   14   13 ar
    15   15   10 ar
    16   16    3 1
    17   17    4 1
    18   18   16 1
    19   19   16 1
    20   20   17 1
    21   21   17 1
    22   22    8 1
    23   24   12 1
    24   25   13 1
    25   26   14 1
    26   27   15 1
    27   28   18 1
    28   29   18 1
    29   30   18 1
    30   31   19 1
    31   32   19 1
    32   33   19 1
    33   34   20 1
    34   35   20 1
    35   36   20 1
    36   37   21 1
    37   38   21 1
    38   39   21 1
    39   10   11 ar
    40   14   15 ar
    41   16   17 1
@<TRIPOS>SUBSTRUCTURE
     1 RES1 1

@<TRIPOS>CRYSIN
  10.4400   10.6780    7.3020 102.2900 102.4100  68.5500   2 1

