# MOL2 file generated by ConQuest
# Please check atom types

@<TRIPOS>MOLECULE
QIRQOZ01
    56    58     2
SMALL
NO_CHARGES
****
Generated from CSD

@<TRIPOS>ATOM
      1 O1         1.2158    8.3618    8.1070 O.2       1 RES1    0.0000
      2 O2         3.8952    9.7465   17.5883 O.2       1 RES1    0.0000
      3 O3         3.2948   11.8080   17.5707 O.2       1 RES1    0.0000
      4 N1         2.8781   11.2045    9.4694 N.2       1 RES1    0.0000
      5 N2         3.1758   11.4587   10.6986 N.2       1 RES1    0.0000
      6 N3         2.6552   10.4566   11.4685 N.pl3     1 RES1    0.0000
      7 N4         3.5049   10.7589   17.0088 N.pl3     1 RES1    0.0000
      8 C1         2.0206    9.5484   10.6956 C.2       1 RES1    0.0000
      9 C2         2.1737   10.0271    9.4226 C.2       1 RES1    0.0000
     10 C3         1.6524    9.5014    8.1649 C.2       1 RES1    0.0000
     11 C4         1.6766   10.3925    6.9598 C.3       1 RES1    0.0000
     12 H1         1.1873    9.9641    6.2259 H         1 RES1    0.0000
     13 H2         2.6053   10.5471    6.6863 H         1 RES1    0.0000
     14 H3         1.2535   11.2491    7.1792 H         1 RES1    0.0000
     15 C5         1.2450    8.4019   11.2170 C.3       1 RES1    0.0000
     16 H4         1.8105    7.6014   11.2251 H         1 RES1    0.0000
     17 H5         0.4665    8.2450   10.6428 H         1 RES1    0.0000
     18 H6         0.9444    8.5989   12.1296 H         1 RES1    0.0000
     19 C6         2.8532   10.5161   12.8678 C.ar      1 RES1    0.0000
     20 C7         2.8283   11.7737   13.5023 C.ar      1 RES1    0.0000
     21 H7         2.6623   12.5617   12.9989 H         1 RES1    0.0000
     22 C8         3.0462   11.8458   14.8520 C.ar      1 RES1    0.0000
     23 H8         3.0412   12.6876   15.2926 H         1 RES1    0.0000
     24 C9         3.2734   10.6811   15.5710 C.ar      1 RES1    0.0000
     25 C10        3.3012    9.4396   14.9520 C.ar      1 RES1    0.0000
     26 H9         3.4600    8.6527   15.4605 H         1 RES1    0.0000
     27 C11        3.0975    9.3594   13.5993 C.ar      1 RES1    0.0000
     28 H10        3.1231    8.5165   13.1614 H         1 RES1    0.0000
     29 O4        -0.4964    3.5882    1.0857 O.2       2 RES2    0.0000
     30 O5         0.5634    4.9397   10.9261 O.2       2 RES2    0.0000
     31 O6         1.4266    2.9686   10.9147 O.2       2 RES2    0.0000
     32 N5         2.3212    4.7713    2.8836 N.2       2 RES2    0.0000
     33 N6         2.5505    4.7358    4.1580 N.2       2 RES2    0.0000
     34 N7         1.4294    4.2319    4.7470 N.pl3     2 RES2    0.0000
     35 N8         1.0520    3.9765   10.3412 N.pl3     2 RES2    0.0000
     36 C12        0.4986    3.9410    3.8328 C.2       2 RES2    0.0000
     37 C13        1.0840    4.2926    2.6420 C.2       2 RES2    0.0000
     38 C14        0.5014    4.2399    1.2807 C.2       2 RES2    0.0000
     39 C15        1.1574    5.0302    0.2221 C.3       2 RES2    0.0000
     40 H11        2.0548    4.6728    0.0569 H         2 RES2    0.0000
     41 H12        1.2257    5.9647    0.5091 H         2 RES2    0.0000
     42 H13        0.6282    4.9775   -0.6012 H         2 RES2    0.0000
     43 C16       -0.8604    3.4290    4.1705 C.3       2 RES2    0.0000
     44 H14       -0.8988    2.4647    3.9999 H         2 RES2    0.0000
     45 H15       -1.5284    3.8860    3.6180 H         2 RES2    0.0000
     46 H16       -1.0484    3.5997    5.1183 H         2 RES2    0.0000
     47 C17        1.3504    4.1574    6.1693 C.ar      2 RES2    0.0000
     48 C18        1.6488    2.9721    6.8217 C.ar      2 RES2    0.0000
     49 H17        1.9180    2.2081    6.3234 H         2 RES2    0.0000
     50 C19        1.5527    2.9079    8.1920 C.ar      2 RES2    0.0000
     51 H18        1.7421    2.1005    8.6551 H         2 RES2    0.0000
     52 C20        1.1745    4.0429    8.8739 C.ar      2 RES2    0.0000
     53 C21        0.8882    5.2363    8.2570 C.ar      2 RES2    0.0000
     54 H19        0.6353    5.9991    8.7634 H         2 RES2    0.0000
     55 C22        0.9779    5.2993    6.8704 C.ar      2 RES2    0.0000
     56 H20        0.7884    6.1079    6.4101 H         2 RES2    0.0000
@<TRIPOS>BOND
     1    1   10 2
     2    2    7 2
     3    3    7 2
     4    4    5 2
     5    5    6 1
     6    6    8 1
     7    7   24 1
     8    8    9 2
     9    9    4 1
    10   10    9 1
    11   11   10 1
    12   12   11 1
    13   13   11 1
    14   14   11 1
    15   15    8 1
    16   16   15 1
    17   17   15 1
    18   18   15 1
    19   19    6 1
    20   20   19 ar
    21   21   20 1
    22   22   20 ar
    23   23   22 1
    24   24   22 ar
    25   25   24 ar
    26   26   25 1
    27   27   19 ar
    28   28   27 1
    29   29   38 2
    30   30   35 2
    31   31   35 2
    32   32   33 2
    33   33   34 1
    34   34   36 1
    35   35   52 1
    36   36   37 2
    37   37   32 1
    38   38   37 1
    39   39   38 1
    40   40   39 1
    41   41   39 1
    42   42   39 1
    43   43   36 1
    44   44   43 1
    45   45   43 1
    46   46   43 1
    47   47   34 1
    48   48   47 ar
    49   49   48 1
    50   50   48 ar
    51   51   50 1
    52   52   50 ar
    53   53   52 ar
    54   54   53 1
    55   55   47 ar
    56   56   55 1
    57   25   27 ar
    58   53   55 ar
@<TRIPOS>SUBSTRUCTURE
     1 RES1 1
     2 RES2 29

@<TRIPOS>CRYSIN
   7.1223   11.4530   27.0810  90.0000  90.0000  90.0000  29 1

