# MOL2 file generated by ConQuest
# Please check atom types

@<TRIPOS>MOLECULE
QIRQOZ
    56    58     2
SMALL
NO_CHARGES
****
Generated from CSD

@<TRIPOS>ATOM
      1 O1         1.2235    8.4186    8.1687 O.2       1 RES1    0.0000
      2 O2         3.9392    9.8314   17.6748 O.2       1 RES1    0.0000
      3 O3         3.3991   11.8794   17.6426 O.2       1 RES1    0.0000
      4 N1         2.9355   11.2282    9.5403 N.2       1 RES1    0.0000
      5 N2         3.2390   11.4940   10.7704 N.2       1 RES1    0.0000
      6 N3         2.6982   10.4953   11.5440 N.pl3     1 RES1    0.0000
      7 N4         3.5760   10.8175   17.0835 N.pl3     1 RES1    0.0000
      8 C1         2.0467    9.5852   10.7848 C.2       1 RES1    0.0000
      9 C2         2.2098   10.0696    9.4919 C.2       1 RES1    0.0000
     10 C3         1.6857    9.5358    8.2311 C.2       1 RES1    0.0000
     11 C4         1.7141   10.4217    7.0364 C.3       1 RES1    0.0000
     12 C5         1.2628    8.4519   11.2919 C.3       1 RES1    0.0000
     13 C6         2.9012   10.5713   12.9551 C.ar      1 RES1    0.0000
     14 C7         2.8678   11.8012   13.5730 C.ar      1 RES1    0.0000
     15 C8         3.0963   11.9013   14.9353 C.ar      1 RES1    0.0000
     16 C9         3.3423   10.7358   15.6403 C.ar      1 RES1    0.0000
     17 C10        3.3729    9.5001   15.0352 C.ar      1 RES1    0.0000
     18 C11        3.1596    9.4173   13.6789 C.ar      1 RES1    0.0000
     19 H1         1.8109    7.6638   11.3045 H         1 RES1    0.0000
     20 H2         2.6909   12.5663   13.0738 H         1 RES1    0.0000
     21 H3         0.5059    8.3047   10.7192 H         1 RES1    0.0000
     22 H4         3.0854   12.7274   15.3630 H         1 RES1    0.0000
     23 H5         0.9593    8.6452   12.1809 H         1 RES1    0.0000
     24 H6         1.2505    9.9971    6.3123 H         1 RES1    0.0000
     25 H7         3.5345    8.7327   15.5345 H         1 RES1    0.0000
     26 H8         2.6247   10.5862    6.7832 H         1 RES1    0.0000
     27 H9         3.1888    8.5935   13.2507 H         1 RES1    0.0000
     28 H10        1.2854   11.2547    7.2460 H         1 RES1    0.0000
     29 O4        -0.5139    3.6277    1.0932 O.2       2 RES2    0.0000
     30 O5         0.5612    4.9566   10.9482 O.2       2 RES2    0.0000
     31 O6         1.4332    2.9914   10.9419 O.2       2 RES2    0.0000
     32 N5         2.3364    4.7713    2.8992 N.2       2 RES2    0.0000
     33 N6         2.5657    4.7311    4.1862 N.2       2 RES2    0.0000
     34 N7         1.4273    4.2455    4.7597 N.pl3     2 RES2    0.0000
     35 N8         1.0598    4.0028   10.3714 N.pl3     2 RES2    0.0000
     36 C12        0.4629    3.9671    3.8612 C.2       2 RES2    0.0000
     37 C13        1.0772    4.3031    2.6526 C.2       2 RES2    0.0000
     38 C14        0.4971    4.2685    1.3017 C.2       2 RES2    0.0000
     39 C15        1.1908    5.0222    0.2308 C.3       2 RES2    0.0000
     40 C16       -0.8807    3.4804    4.1919 C.3       2 RES2    0.0000
     41 C17        1.3349    4.1719    6.1945 C.ar      2 RES2    0.0000
     42 C18        1.6668    3.0133    6.8450 C.ar      2 RES2    0.0000
     43 C19        1.5846    2.9523    8.2234 C.ar      2 RES2    0.0000
     44 C20        1.1682    4.0488    8.8958 C.ar      2 RES2    0.0000
     45 C21        0.8545    5.2442    8.2727 C.ar      2 RES2    0.0000
     46 C22        0.9368    5.3006    6.9030 C.ar      2 RES2    0.0000
     47 H11       -0.9673    2.5657    3.9142 H         2 RES2    0.0000
     48 H12       -1.5358    4.0166    3.7400 H         2 RES2    0.0000
     49 H13       -1.0175    3.5402    5.1419 H         2 RES2    0.0000
     50 H14        2.0598    4.6413    0.0844 H         2 RES2    0.0000
     51 H15        1.2839    5.9403    0.4954 H         2 RES2    0.0000
     52 H16        0.6776    4.9715   -0.5798 H         2 RES2    0.0000
     53 H17        1.9456    2.2689    6.3613 H         2 RES2    0.0000
     54 H18        1.8116    2.1734    8.6777 H         2 RES2    0.0000
     55 H19        0.5947    5.9875    8.7676 H         2 RES2    0.0000
     56 H20        0.7286    6.0876    6.4539 H         2 RES2    0.0000
@<TRIPOS>BOND
     1    1   10 2
     2    2    7 2
     3    3    7 2
     4    4    5 2
     5    5    6 1
     6    6    8 1
     7    7   16 1
     8    8    9 2
     9    9    4 1
    10   10    9 1
    11   11   10 1
    12   12    8 1
    13   13    6 1
    14   14   13 ar
    15   15   14 ar
    16   16   15 ar
    17   17   16 ar
    18   18   13 ar
    19   19   12 1
    20   20   14 1
    21   21   12 1
    22   22   15 1
    23   23   12 1
    24   24   11 1
    25   25   17 1
    26   26   11 1
    27   27   18 1
    28   28   11 1
    29   29   38 2
    30   30   35 2
    31   31   35 2
    32   32   33 2
    33   33   34 1
    34   34   36 1
    35   35   44 1
    36   36   37 2
    37   37   32 1
    38   38   37 1
    39   39   38 1
    40   40   36 1
    41   41   34 1
    42   42   41 ar
    43   43   42 ar
    44   44   43 ar
    45   45   44 ar
    46   46   41 ar
    47   47   40 1
    48   48   40 1
    49   49   40 1
    50   50   39 1
    51   51   39 1
    52   52   39 1
    53   53   42 1
    54   54   43 1
    55   55   45 1
    56   56   46 1
    57   17   18 ar
    58   45   46 ar
@<TRIPOS>SUBSTRUCTURE
     1 RES1 1
     2 RES2 29

@<TRIPOS>CRYSIN
   7.2786   11.5055   27.2200  90.0000  90.0000  90.0000  29 1

