# MOL2 file generated by ConQuest
# Please check atom types

@<TRIPOS>MOLECULE
QIRROA
    36    37     1
SMALL
NO_CHARGES
****
Generated from CSD

@<TRIPOS>ATOM
      1 O1        -0.2275    0.5786    4.2660 O.2       1 RES1    0.0000
      2 O2        -3.2251    3.0148    6.6386 O.3       1 RES1    0.0000
      3 O3        -2.4862    4.7571    8.5552 O.2       1 RES1    0.0000
      4 N1        -2.3639    1.9396    6.6913 N.2       1 RES1    0.0000
      5 N2        -0.5699   -0.1494    6.4173 N.am      1 RES1    0.0000
      6 H1        -1.1105   -0.0435    7.1001 H         1 RES1    0.0000
      7 N3        -2.1102    3.2538    3.4819 N.1       1 RES1    0.0000
      8 C1        -1.7640    1.7722    5.5719 C.2       1 RES1    0.0000
      9 C2        -0.7659    0.6568    5.3607 C.2       1 RES1    0.0000
     10 C3        -1.9753    2.6182    4.4156 C.1       1 RES1    0.0000
     11 C4        -4.0288    3.0941    7.8249 C.3       1 RES1    0.0000
     12 H2        -3.9748    2.2362    8.3160 H         1 RES1    0.0000
     13 H3        -4.9740    3.2430    7.5718 H         1 RES1    0.0000
     14 C5        -3.5644    4.2209    8.7254 C.2       1 RES1    0.0000
     15 C6        -4.4675    4.6387    9.8337 C.ar      1 RES1    0.0000
     16 C7        -5.6076    3.9302   10.1738 C.ar      1 RES1    0.0000
     17 H4        -5.8478    3.1522    9.6839 H         1 RES1    0.0000
     18 C8        -6.3979    4.3567   11.2277 C.ar      1 RES1    0.0000
     19 H5        -7.1685    3.8574   11.4703 H         1 RES1    0.0000
     20 C9        -6.0764    5.4960   11.9235 C.ar      1 RES1    0.0000
     21 H6        -6.6359    5.7954   12.6309 H         1 RES1    0.0000
     22 C10       -4.9442    6.2023   11.5954 C.ar      1 RES1    0.0000
     23 H7        -4.7178    6.9868   12.0802 H         1 RES1    0.0000
     24 C11       -4.1344    5.7747   10.5625 C.ar      1 RES1    0.0000
     25 H8        -3.3454    6.2594   10.3491 H         1 RES1    0.0000
     26 C12        0.3590   -1.2110    6.5182 C.ar      1 RES1    0.0000
     27 C13        1.1936   -1.6022    5.4758 C.ar      1 RES1    0.0000
     28 H9         1.1742   -1.1382    4.6465 H         1 RES1    0.0000
     29 C14        2.0554   -2.6768    5.6576 C.ar      1 RES1    0.0000
     30 H10        2.6271   -2.9420    4.9466 H         1 RES1    0.0000
     31 C15        2.0953   -3.3652    6.8510 C.ar      1 RES1    0.0000
     32 H11        2.6834   -4.1025    6.9599 H         1 RES1    0.0000
     33 C16        1.2671   -2.9697    7.8894 C.ar      1 RES1    0.0000
     34 H12        1.2871   -3.4396    8.7147 H         1 RES1    0.0000
     35 C17        0.4097   -1.8945    7.7315 C.ar      1 RES1    0.0000
     36 H13       -0.1463   -1.6218    8.4522 H         1 RES1    0.0000
@<TRIPOS>BOND
     1    1    9 2
     2    2    4 1
     3    3   14 2
     4    4    8 2
     5    5    6 1
     6    7   10 3
     7    8    9 1
     8    9    5 1
     9   10    8 1
    10   11    2 1
    11   12   11 1
    12   13   11 1
    13   14   11 1
    14   15   14 1
    15   16   15 ar
    16   17   16 1
    17   18   16 ar
    18   19   18 1
    19   20   18 ar
    20   21   20 1
    21   22   20 ar
    22   23   22 1
    23   24   15 ar
    24   25   24 1
    25   26    5 1
    26   27   26 ar
    27   28   27 1
    28   29   27 ar
    29   30   29 1
    30   31   29 ar
    31   32   31 1
    32   33   31 ar
    33   34   33 1
    34   35   26 ar
    35   36   35 1
    36   22   24 ar
    37   33   35 ar
@<TRIPOS>SUBSTRUCTURE
     1 RES1 1

@<TRIPOS>CRYSIN
  13.6577    5.4330   19.7468  90.0000  91.6210  90.0000 231 1

