# MOL2 file generated by ConQuest
# Please check atom types

@<TRIPOS>MOLECULE
QISTUH
    25    28     1
SMALL
NO_CHARGES
****
Generated from CSD

@<TRIPOS>ATOM
      1 O1        -2.8673    1.0739    6.6439 O.2       1 RES1    0.0000
      2 O2         6.2766   -0.8313   12.0277 O.2       1 RES1    0.0000
      3 O3         5.1608    0.8346   12.8276 O.2       1 RES1    0.0000
      4 N1         5.2383   -0.2033   12.1721 N.pl3     1 RES1    0.0000
      5 C1        -0.3569    2.1863    7.1009 C.ar      1 RES1    0.0000
      6 C2         0.8982    2.6949    7.2904 C.ar      1 RES1    0.0000
      7 C3         1.8881    1.8722    7.8049 C.ar      1 RES1    0.0000
      8 C4         1.5952    0.5700    8.1659 C.ar      1 RES1    0.0000
      9 C5         0.3227    0.0454    8.0395 C.ar      1 RES1    0.0000
     10 C6        -1.4637   -3.3273    7.8263 C.ar      1 RES1    0.0000
     11 C7        -2.5892   -3.8642    7.2599 C.ar      1 RES1    0.0000
     12 C8        -3.5405   -3.0456    6.6643 C.ar      1 RES1    0.0000
     13 C9        -3.3354   -1.6774    6.6451 C.ar      1 RES1    0.0000
     14 C10       -2.1954   -1.1230    7.2035 C.ar      1 RES1    0.0000
     15 C11       -1.9886    0.3443    7.0930 C.2       1 RES1    0.0000
     16 C12       -0.6650    0.8651    7.4495 C.ar      1 RES1    0.0000
     17 C13       -0.0413   -1.3391    8.4581 C.2       1 RES1    0.0000
     18 C14       -1.2340   -1.9336    7.8274 C.ar      1 RES1    0.0000
     19 C15        0.6156   -2.0247    9.4182 C.2       1 RES1    0.0000
     20 C16        1.7837   -1.5979   10.2102 C.ar      1 RES1    0.0000
     21 C17        1.7000   -0.5680   11.1567 C.ar      1 RES1    0.0000
     22 C18        2.8205   -0.1223   11.8167 C.ar      1 RES1    0.0000
     23 C19        4.0319   -0.7114   11.5268 C.ar      1 RES1    0.0000
     24 C20        4.1436   -1.7719   10.6468 C.ar      1 RES1    0.0000
     25 C21        3.0098   -2.2237   10.0094 C.ar      1 RES1    0.0000
@<TRIPOS>BOND
     1    1   15 2
     2    2    4 2
     3    3    4 2
     4    4   23 1
     5    5    6 ar
     6    6    7 ar
     7    7    8 ar
     8    8    9 ar
     9    9   16 ar
    10   10   11 ar
    11   11   12 ar
    12   12   13 ar
    13   13   14 ar
    14   14   15 1
    15   15   16 1
    16   16    5 ar
    17   17    9 1
    18   18   10 ar
    19   19   17 2
    20   20   19 1
    21   21   20 ar
    22   22   21 ar
    23   23   22 ar
    24   24   23 ar
    25   25   20 ar
    26   14   18 ar
    27   17   18 1
    28   24   25 ar
@<TRIPOS>SUBSTRUCTURE
     1 RES1 1

@<TRIPOS>CRYSIN
   7.7730    8.6110   11.9200 103.7400 101.6000  94.0900   2 1

