# MOL2 file generated by ConQuest
# Please check atom types

@<TRIPOS>MOLECULE
QITJAG
    72    78     2
SMALL
NO_CHARGES
****
Generated from CSD

@<TRIPOS>ATOM
      1 O1         6.9916    2.2546    4.5191 O.3       1 RES1    0.0000
      2 N1         7.0913    3.0517    3.3265 N.am      1 RES1    0.0000
      3 C1         8.7983    1.5756    7.1675 C.ar      1 RES1    0.0000
      4 H1         9.5627    1.6308    6.6392 H         1 RES1    0.0000
      5 O2         4.7769    3.1808    3.1488 O.2       1 RES1    0.0000
      6 C2         8.8289    0.8524    8.3365 C.ar      1 RES1    0.0000
      7 H2         9.6136    0.4316    8.6081 H         1 RES1    0.0000
      8 O3         9.3373    3.7267    2.8642 O.3       1 RES1    0.0000
      9 H3         9.7680    3.1979    3.3196 H         1 RES1    0.0000
     10 C3         7.7066    0.7606    9.0915 C.ar      1 RES1    0.0000
     11 H4         7.7248    0.2753    9.8839 H         1 RES1    0.0000
     12 O4         9.8012    5.8009    5.1516 O.2       1 RES1    0.0000
     13 C4         6.5493    1.3726    8.6999 C.ar      1 RES1    0.0000
     14 H5         5.7850    1.2956    9.2226 H         1 RES1    0.0000
     15 C5         6.5083    2.1060    7.5272 C.ar      1 RES1    0.0000
     16 H6         5.7215    2.5182    7.2556 H         1 RES1    0.0000
     17 C6         7.6551    2.2141    6.7722 C.ar      1 RES1    0.0000
     18 C7         7.6670    2.9350    5.4908 C.2       1 RES1    0.0000
     19 C8         8.3052    4.0223    5.0384 C.2       1 RES1    0.0000
     20 C9         8.1561    4.0596    3.5281 C.3       1 RES1    0.0000
     21 C10        7.5648    5.2728    2.8288 C.ar      1 RES1    0.0000
     22 C11        8.1546    6.4417    2.4691 C.ar      1 RES1    0.0000
     23 H7         9.0333    6.6252    2.7108 H         1 RES1    0.0000
     24 C12        7.4103    7.3594    1.7291 C.ar      1 RES1    0.0000
     25 H8         7.7935    8.1651    1.4706 H         1 RES1    0.0000
     26 C13        6.0880    7.0732    1.3751 C.ar      1 RES1    0.0000
     27 H9         5.6071    7.6946    0.8786 H         1 RES1    0.0000
     28 C14        5.4852    5.9020    1.7422 C.ar      1 RES1    0.0000
     29 H10        4.6044    5.7161    1.5062 H         1 RES1    0.0000
     30 C15        6.2371    5.0045    2.4766 C.ar      1 RES1    0.0000
     31 C16        5.8636    3.6894    2.9993 C.2       1 RES1    0.0000
     32 C17        9.1278    4.9796    5.7662 C.2       1 RES1    0.0000
     33 C18        9.1335    4.9959    7.2762 C.3       1 RES1    0.0000
     34 H11        9.7260    5.6834    7.5853 H         1 RES1    0.0000
     35 H12        9.4298    4.1444    7.6040 H         1 RES1    0.0000
     36 H13        8.2452    5.1709    7.5965 H         1 RES1    0.0000
     37 O5         2.7246    7.5935    2.4335 O.3       2 RES2    0.0000
     38 O6         3.6390    8.8704    0.1287 O.2       2 RES2    0.0000
     39 O7        -0.2366    8.9513    2.5877 O.3       2 RES2    0.0000
     40 H14       -0.3209    8.3354    3.1229 H         2 RES2    0.0000
     41 O8         0.6494   10.7470    5.0002 O.2       2 RES2    0.0000
     42 N2         1.9078    8.4746    1.6368 N.am      2 RES2    0.0000
     43 C19        4.8943    7.5515    4.7059 C.ar      2 RES2    0.0000
     44 H15        5.2960    8.1425    4.1120 H         2 RES2    0.0000
     45 C20        5.6582    6.8749    5.6370 C.ar      2 RES2    0.0000
     46 H16        6.5756    7.0226    5.6744 H         2 RES2    0.0000
     47 C21        5.0858    6.0007    6.4931 C.ar      2 RES2    0.0000
     48 H17        5.6118    5.5504    7.1150 H         2 RES2    0.0000
     49 C22        3.7262    5.7721    6.4556 C.ar      2 RES2    0.0000
     50 H18        3.3306    5.1701    7.0439 H         2 RES2    0.0000
     51 C23        2.9538    6.4565    5.5227 C.ar      2 RES2    0.0000
     52 H19        2.0385    6.3056    5.4833 H         2 RES2    0.0000
     53 C24        3.5291    7.3462    4.6647 C.ar      2 RES2    0.0000
     54 C25        2.6872    8.1067    3.7036 C.2       2 RES2    0.0000
     55 C26        1.8528    9.1489    3.8425 C.2       2 RES2    0.0000
     56 C27        1.1105    9.3464    2.5384 C.3       2 RES2    0.0000
     57 C28        1.2151   10.6903    1.8509 C.ar      2 RES2    0.0000
     58 C29        0.5256   11.8607    2.1038 C.ar      2 RES2    0.0000
     59 H20       -0.1104   11.9050    2.7820 H         2 RES2    0.0000
     60 C30        0.8034   12.9604    1.3226 C.ar      2 RES2    0.0000
     61 H21        0.3500   13.7567    1.4781 H         2 RES2    0.0000
     62 C31        1.7459   12.9067    0.3110 C.ar      2 RES2    0.0000
     63 H22        1.9199   13.6650   -0.1986 H         2 RES2    0.0000
     64 C32        2.1353   10.6257    0.8393 C.ar      2 RES2    0.0000
     65 C33        2.4211   11.7526    0.0543 C.ar      2 RES2    0.0000
     66 H23        3.0549   11.7129   -0.6238 H         2 RES2    0.0000
     67 C34        2.7026    9.2966    0.7681 C.2       2 RES2    0.0000
     68 C35        1.6054    9.9826    5.0113 C.2       2 RES2    0.0000
     69 C36        2.5495    9.9367    6.1727 C.3       2 RES2    0.0000
     70 H24        2.2430   10.5347    6.8584 H         2 RES2    0.0000
     71 H25        3.4251   10.2042    5.8824 H         2 RES2    0.0000
     72 H26        2.5871    9.0431    6.5193 H         2 RES2    0.0000
@<TRIPOS>BOND
     1    1    2 1
     2    2   20 1
     3    3    4 1
     4    5   31 2
     5    6    3 ar
     6    7    6 1
     7    8    9 1
     8   10    6 ar
     9   11   10 1
    10   12   32 2
    11   13   10 ar
    12   14   13 1
    13   15   13 ar
    14   16   15 1
    15   17    3 ar
    16   18    1 1
    17   19   18 2
    18   20    8 1
    19   21   20 1
    20   22   21 ar
    21   23   22 1
    22   24   22 ar
    23   25   24 1
    24   26   24 ar
    25   27   26 1
    26   28   26 ar
    27   29   28 1
    28   30   21 ar
    29   31    2 1
    30   32   19 1
    31   33   32 1
    32   34   33 1
    33   35   33 1
    34   36   33 1
    35   37   42 1
    36   38   67 2
    37   39   40 1
    38   41   68 2
    39   42   56 1
    40   43   44 1
    41   45   43 ar
    42   46   45 1
    43   47   45 ar
    44   48   47 1
    45   49   47 ar
    46   50   49 1
    47   51   49 ar
    48   52   51 1
    49   53   43 ar
    50   54   37 1
    51   55   54 2
    52   56   39 1
    53   57   56 1
    54   58   57 ar
    55   59   58 1
    56   60   58 ar
    57   61   60 1
    58   62   60 ar
    59   63   62 1
    60   64   57 ar
    61   65   62 ar
    62   66   65 1
    63   67   42 1
    64   68   55 1
    65   69   68 1
    66   70   69 1
    67   71   69 1
    68   72   69 1
    69   15   17 ar
    70   17   18 1
    71   19   20 1
    72   28   30 ar
    73   30   31 1
    74   51   53 ar
    75   53   54 1
    76   55   56 1
    77   64   65 ar
    78   64   67 1
@<TRIPOS>SUBSTRUCTURE
     1 RES1 1
     2 RES2 37

@<TRIPOS>CRYSIN
  20.8560    7.7770   18.7340  90.0000  90.3400  90.0000  14 1

