# MOL2 file generated by ConQuest
# Please check atom types

@<TRIPOS>MOLECULE
QITKAG
   106   110     2
SMALL
NO_CHARGES
****
Generated from CSD

@<TRIPOS>ATOM
      1 O1         4.6976   -3.6303   11.9736 O.2       1 RES1    0.0000
      2 O2         5.3328   -1.9974   10.7404 O.2       1 RES1    0.0000
      3 O3         6.3973    2.5474   14.3073 O.2       1 RES1    0.0000
      4 O4         8.0623    4.0334   14.0623 O.3       1 RES1    0.0000
      5 O5         4.4523    6.1692   14.6425 O.2       1 RES1    0.0000
      6 O6         3.0269    4.8700   15.7667 O.3       1 RES1    0.0000
      7 O7         7.7991   -7.0266   19.9762 O.2       2 RES2    0.0000
      8 O8         6.1823   -8.4131   20.0971 O.2       2 RES2    0.0000
      9 O9         7.3435   -2.2794   14.3424 O.2       2 RES2    0.0000
     10 O10        7.5691   -0.3157   13.2586 O.3       2 RES2    0.0000
     11 O11        8.5606    0.5279   16.9351 O.2       2 RES2    0.0000
     12 O12        9.5044   -1.3275   17.8318 O.3       2 RES2    0.0000
     13 N1         4.6833   -2.4519   11.6476 N.pl3     1 RES1    0.0000
     14 N2         6.1646    4.4126   13.0318 N.am      1 RES1    0.0000
     15 N3         3.3173    2.8880   14.0714 N.2       1 RES1    0.0000
     16 N4         3.8977    4.1381   13.8408 N.am      1 RES1    0.0000
     17 N5         6.6758   -7.3884   19.6785 N.pl3     2 RES2    0.0000
     18 N6         6.4661   -0.3467   15.1588 N.am      2 RES2    0.0000
     19 N7         7.2393   -2.6788   17.6331 N.2       2 RES2    0.0000
     20 N8         7.3681   -1.3727   17.1650 N.am      2 RES2    0.0000
     21 C1         3.6978    2.1073   13.1333 C.2       1 RES1    0.0000
     22 C2         3.3550    0.6850   13.1296 C.ar      1 RES1    0.0000
     23 C3         2.3562    0.1738   13.9418 C.ar      1 RES1    0.0000
     24 C4         2.1173   -1.1897   13.9803 C.ar      1 RES1    0.0000
     25 C5         2.8616   -2.0533   13.2351 C.ar      1 RES1    0.0000
     26 C6         3.8437   -1.5381   12.4393 C.ar      1 RES1    0.0000
     27 C7         4.0956   -0.1919   12.3581 C.ar      1 RES1    0.0000
     28 C8         4.5772    2.7488   12.1022 C.3       1 RES1    0.0000
     29 C9         4.7861    4.1727   12.6635 C.3       1 RES1    0.0000
     30 C10        4.3538    5.2128   11.6417 C.ar      1 RES1    0.0000
     31 C11        5.1309    5.3934   10.5176 C.ar      1 RES1    0.0000
     32 C12        4.7294    6.2584    9.5031 C.ar      1 RES1    0.0000
     33 C13        3.5742    6.9577    9.6206 C.ar      1 RES1    0.0000
     34 C14        2.7887    6.7808   10.7181 C.ar      1 RES1    0.0000
     35 C15        3.1675    5.9051   11.7326 C.ar      1 RES1    0.0000
     36 C16        6.8436    3.5717   13.8527 C.2       1 RES1    0.0000
     37 C17        8.9246    3.1644   14.8490 C.3       1 RES1    0.0000
     38 C18       10.1541    3.7620   14.9867 C.3       1 RES1    0.0000
     39 C19        3.8375    5.1441   14.7656 C.2       1 RES1    0.0000
     40 C20        2.7132    5.9884   16.6695 C.3       1 RES1    0.0000
     41 C21        2.8561    5.6383   18.0019 C.3       1 RES1    0.0000
     42 C22        6.0897   -3.1285   17.2559 C.2       2 RES2    0.0000
     43 C23        5.6316   -4.4581   17.6210 C.ar      2 RES2    0.0000
     44 C24        4.4325   -4.9551   17.0988 C.ar      2 RES2    0.0000
     45 C25        3.9944   -6.2178   17.4268 C.ar      2 RES2    0.0000
     46 C26        4.7067   -7.0112   18.2712 C.ar      2 RES2    0.0000
     47 C27        5.8858   -6.5226   18.7855 C.ar      2 RES2    0.0000
     48 C28        6.3676   -5.2723   18.4895 C.ar      2 RES2    0.0000
     49 C29        5.2972   -2.1651   16.4384 C.3       2 RES2    0.0000
     50 C30        6.1468   -0.8628   16.4722 C.3       2 RES2    0.0000
     51 C31        5.4466    0.1835   17.3010 C.ar      2 RES2    0.0000
     52 C32        4.5512    1.0782   16.7207 C.ar      2 RES2    0.0000
     53 C33        3.8145    1.9487   17.4875 C.ar      2 RES2    0.0000
     54 C34        3.9495    1.9660   18.8422 C.ar      2 RES2    0.0000
     55 C35        4.8400    1.1008   19.4416 C.ar      2 RES2    0.0000
     56 C36        5.5660    0.2110   18.6776 C.ar      2 RES2    0.0000
     57 C37        7.1452   -1.0910   14.2638 C.2       2 RES2    0.0000
     58 C38        8.3601   -0.9851   12.2510 C.3       2 RES2    0.0000
     59 C39        9.0525   -0.0536   11.4795 C.3       2 RES2    0.0000
     60 C40        8.4985   -0.6247   17.2978 C.2       2 RES2    0.0000
     61 C41       10.7155   -0.5517   18.0647 C.3       2 RES2    0.0000
     62 C42       11.7595   -1.4217   18.4777 C.3       2 RES2    0.0000
     63 H1         1.8435    0.7486   14.4623 H         1 RES1    0.0000
     64 H2         1.4378   -1.5206   14.5230 H         1 RES1    0.0000
     65 H3         2.7054   -2.9688   13.2696 H         1 RES1    0.0000
     66 H4         4.7573    0.1289   11.7893 H         1 RES1    0.0000
     67 H5         5.9345    4.9322   10.4366 H         1 RES1    0.0000
     68 H6         5.2557    6.3570    8.7438 H         1 RES1    0.0000
     69 H7         3.3195    7.5544    8.9544 H         1 RES1    0.0000
     70 H8         1.9911    7.2516   10.7930 H         1 RES1    0.0000
     71 H9         2.6165    5.7877   12.4717 H         1 RES1    0.0000
     72 H10        4.1382    2.7760   11.2365 H         1 RES1    0.0000
     73 H11        5.4218    2.2791   12.0222 H         1 RES1    0.0000
     74 H12        3.9267   -4.4263   16.5257 H         2 RES2    0.0000
     75 H13        3.1981   -6.5347   17.0664 H         2 RES2    0.0000
     76 H14        4.4050   -7.8613   18.4960 H         2 RES2    0.0000
     77 H15        7.1665   -4.9716   18.8584 H         2 RES2    0.0000
     78 H16        4.4491    1.0862   15.7967 H         2 RES2    0.0000
     79 H17        3.2184    2.5328   17.0765 H         2 RES2    0.0000
     80 H18        3.4460    2.5548   19.3586 H         2 RES2    0.0000
     81 H19        4.9524    1.1173   20.3650 H         2 RES2    0.0000
     82 H20        6.1463   -0.3829   19.0974 H         2 RES2    0.0000
     83 H21        6.5652    5.1066   12.7208 H         1 RES1    0.0000
     84 H22        9.0251    2.3120   14.3975 H         1 RES1    0.0000
     85 H23        8.5310    3.0220   15.7238 H         1 RES1    0.0000
     86 H24       10.4884    4.0098   14.1221 H         1 RES1    0.0000
     87 H25       10.7636    3.1468   15.4018 H         1 RES1    0.0000
     88 H26       10.0691    4.5463   15.5335 H         1 RES1    0.0000
     89 H27        1.7966    6.2666   16.5156 H         1 RES1    0.0000
     90 H28        3.3129    6.7249   16.4751 H         1 RES1    0.0000
     91 H29        2.2611    4.9133   18.2064 H         1 RES1    0.0000
     92 H30        3.7618    5.3652   18.1659 H         1 RES1    0.0000
     93 H31        2.6440    6.3938   18.5547 H         1 RES1    0.0000
     94 H32        6.2186    0.4488   14.9462 H         2 RES2    0.0000
     95 H33        5.1931   -2.4858   15.5294 H         2 RES2    0.0000
     96 H34        4.4226   -2.0163   16.8315 H         2 RES2    0.0000
     97 H35        8.9965   -1.5761   12.6843 H         2 RES2    0.0000
     98 H36        7.7757   -1.5035   11.6779 H         2 RES2    0.0000
     99 H37        9.5344    0.5447   12.0546 H         2 RES2    0.0000
    100 H38        8.4288    0.4477   10.9469 H         2 RES2    0.0000
    101 H39        9.6691   -0.5100   10.9024 H         2 RES2    0.0000
    102 H40       10.9749   -0.1001   17.2466 H         2 RES2    0.0000
    103 H41       10.5507    0.1070   18.7592 H         2 RES2    0.0000
    104 H42       12.4745   -0.9059   18.8605 H         2 RES2    0.0000
    105 H43       12.0880   -1.9096   17.7184 H         2 RES2    0.0000
    106 H44       11.4232   -2.0374   19.1338 H         2 RES2    0.0000
@<TRIPOS>BOND
     1    1   13 2
     2    2   13 2
     3    3   36 2
     4    4   36 1
     5    5   39 2
     6    6   39 1
     7    7   17 2
     8    8   17 2
     9    9   57 2
    10   10   57 1
    11   11   60 2
    12   12   60 1
    13   13   26 1
    14   14   29 1
    15   15   16 1
    16   16   29 1
    17   17   47 1
    18   18   50 1
    19   19   20 1
    20   20   50 1
    21   21   15 2
    22   22   21 1
    23   23   22 ar
    24   24   23 ar
    25   25   24 ar
    26   26   25 ar
    27   27   22 ar
    28   28   21 1
    29   29   28 1
    30   30   29 1
    31   31   30 ar
    32   32   31 ar
    33   33   32 ar
    34   34   33 ar
    35   35   30 ar
    36   36   14 1
    37   37    4 1
    38   38   37 1
    39   39   16 1
    40   40    6 1
    41   41   40 1
    42   42   19 2
    43   43   42 1
    44   44   43 ar
    45   45   44 ar
    46   46   45 ar
    47   47   46 ar
    48   48   43 ar
    49   49   42 1
    50   50   49 1
    51   51   50 1
    52   52   51 ar
    53   53   52 ar
    54   54   53 ar
    55   55   54 ar
    56   56   51 ar
    57   57   18 1
    58   58   10 1
    59   59   58 1
    60   60   20 1
    61   61   12 1
    62   62   61 1
    63   63   23 1
    64   64   24 1
    65   65   25 1
    66   66   27 1
    67   67   31 1
    68   68   32 1
    69   69   33 1
    70   70   34 1
    71   71   35 1
    72   72   28 1
    73   73   28 1
    74   74   44 1
    75   75   45 1
    76   76   46 1
    77   77   48 1
    78   78   52 1
    79   79   53 1
    80   80   54 1
    81   81   55 1
    82   82   56 1
    83   83   14 1
    84   84   37 1
    85   85   37 1
    86   86   38 1
    87   87   38 1
    88   88   38 1
    89   89   40 1
    90   90   40 1
    91   91   41 1
    92   92   41 1
    93   93   41 1
    94   94   18 1
    95   95   49 1
    96   96   49 1
    97   97   58 1
    98   98   58 1
    99   99   59 1
   100  100   59 1
   101  101   59 1
   102  102   61 1
   103  103   61 1
   104  104   62 1
   105  105   62 1
   106  106   62 1
   107   26   27 ar
   108   34   35 ar
   109   47   48 ar
   110   55   56 ar
@<TRIPOS>SUBSTRUCTURE
     1 RES1 1
     2 RES2 7

@<TRIPOS>CRYSIN
  10.0212   11.0094   20.3173  89.9940  85.4670  75.5870   2 1

