# MOL2 file generated by ConQuest
# Please check atom types

@<TRIPOS>MOLECULE
QIWXOJ
    98   106     2
SMALL
NO_CHARGES
****
Generated from CSD

@<TRIPOS>ATOM
      1 N1        -0.6788   12.1464    0.0787 N.3       1 RES1    0.0000
      2 O1        -1.5329   12.6132    1.1666 O.3       1 RES1    0.0000
      3 C1        -2.7519   12.3297   -1.4465 C.ar      1 RES1    0.0000
      4 C2        -0.8566   10.8544   -2.0578 C.ar      1 RES1    0.0000
      5 C3        -1.6052   11.4760   -0.8518 C.3       1 RES1    0.0000
      6 C4        -1.7170   10.1922   -2.9412 C.ar      1 RES1    0.0000
      7 C5        -3.5773   11.6254   -2.3290 C.ar      1 RES1    0.0000
      8 C6        -3.1315    9.5649   -1.1135 C.ar      1 RES1    0.0000
      9 C7        -2.2795   10.2337   -0.2256 C.ar      1 RES1    0.0000
     10 C8        -3.0446   13.6630   -1.1860 C.ar      1 RES1    0.0000
     11 C9        -3.1664   10.1777   -2.5080 C.3       1 RES1    0.0000
     12 C10        0.5041   10.8233   -2.2869 C.ar      1 RES1    0.0000
     13 C11       -3.5578    7.8756    0.5254 C.ar      1 RES1    0.0000
     14 C12       -2.0450    9.6868    1.0240 C.ar      1 RES1    0.0000
     15 C13        0.0119   13.3432   -0.4914 C.3       1 RES1    0.0000
     16 C14       -4.1167   14.2772   -1.8197 C.ar      1 RES1    0.0000
     17 C15       -0.8181   12.6206    2.4033 C.3       1 RES1    0.0000
     18 C16       -1.2086    9.5660   -4.0708 C.ar      1 RES1    0.0000
     19 C17       -2.6917    8.5028    1.3874 C.ar      1 RES1    0.0000
     20 C18       -4.9148   13.5729   -2.6951 C.ar      1 RES1    0.0000
     21 C19       -4.6470   12.2326   -2.9582 C.ar      1 RES1    0.0000
     22 C20        0.1470    9.5769   -4.3161 C.ar      1 RES1    0.0000
     23 C21        1.0057   10.1857   -3.4290 C.ar      1 RES1    0.0000
     24 C22       -3.7892    8.4088   -0.7384 C.ar      1 RES1    0.0000
     25 C23       -1.8081   12.7189    3.5114 C.3       1 RES1    0.0000
     26 C24        1.4380   13.4815    0.0081 C.3       1 RES1    0.0000
     27 H1        -2.4887   14.1533   -0.5344 H         1 RES1    0.0000
     28 H2        -3.7517    9.6715   -3.1355 H         1 RES1    0.0000
     29 H3        -0.2562   11.8301    2.4677 H         1 RES1    0.0000
     30 H4        -1.4015   10.0929    1.6120 H         1 RES1    0.0000
     31 H5        -0.5370   14.1548   -0.2488 H         1 RES1    0.0000
     32 H6         0.0273   13.2873   -1.4626 H         1 RES1    0.0000
     33 H7        -4.4206    7.9535   -1.3856 H         1 RES1    0.0000
     34 H8        -2.5187    8.1137    2.2860 H         1 RES1    0.0000
     35 H9        -4.3034   15.2215   -1.5914 H         1 RES1    0.0000
     36 H10       -5.6852   14.0052   -3.1113 H         1 RES1    0.0000
     37 H11        1.1063   11.2347   -1.6434 H         1 RES1    0.0000
     38 H12        1.9606   10.1735   -3.6045 H         1 RES1    0.0000
     39 H13       -3.9923    7.0761    0.8145 H         1 RES1    0.0000
     40 H14       -5.1479   11.7400   -3.5526 H         1 RES1    0.0000
     41 H15       -1.8685    9.1493   -4.6043 H         1 RES1    0.0000
     42 H16        0.4701    9.1140   -5.1100 H         1 RES1    0.0000
     43 H17       -1.3035   12.7111    4.3787 H         1 RES1    0.0000
     44 H18       -2.5111   11.9627    3.5042 H         1 RES1    0.0000
     45 H19       -0.1426   13.3694    2.3925 H         1 RES1    0.0000
     46 H20        1.8527   14.2421   -0.4905 H         1 RES1    0.0000
     47 H21        2.0029   12.6875   -0.2417 H         1 RES1    0.0000
     48 H22       -2.3616   13.4949    3.5230 H         1 RES1    0.0000
     49 H23        1.4180   13.7089    0.9219 H         1 RES1    0.0000
     50 N2         6.0979    3.0055    4.4517 N.3       2 RES2    0.0000
     51 C25        4.0104    2.8146    5.9550 C.ar      2 RES2    0.0000
     52 C26        5.9020    4.2979    6.5815 C.ar      2 RES2    0.0000
     53 O2         5.2596    2.5157    3.3643 O.3       2 RES2    0.0000
     54 C27        5.1620    3.6756    5.3717 C.3       2 RES2    0.0000
     55 C28        3.1841    3.5081    6.8384 C.ar      2 RES2    0.0000
     56 C29        3.6225    5.5746    5.6309 C.ar      2 RES2    0.0000
     57 C30        7.2651    4.3451    6.8080 C.ar      2 RES2    0.0000
     58 C31        5.0342    4.9487    7.4667 C.ar      2 RES2    0.0000
     59 C32        4.4840    4.9141    4.7466 C.ar      2 RES2    0.0000
     60 C33        3.5869    4.9563    7.0255 C.3       2 RES2    0.0000
     61 C34        5.5365    5.5766    8.5972 C.ar      2 RES2    0.0000
     62 C35        3.7084    1.4890    5.6632 C.ar      2 RES2    0.0000
     63 C36        4.7170    5.4612    3.4998 C.ar      2 RES2    0.0000
     64 C37        4.0627    6.6399    3.1355 C.ar      2 RES2    0.0000
     65 C38        6.7933    1.8270    5.0357 C.3       2 RES2    0.0000
     66 C39        7.7613    4.9828    7.9519 C.ar      2 RES2    0.0000
     67 C40        3.1916    7.2599    3.9921 C.ar      2 RES2    0.0000
     68 C41        6.8947    5.5794    8.8461 C.ar      2 RES2    0.0000
     69 C42        1.8253    1.5705    7.1615 C.ar      2 RES2    0.0000
     70 C43        2.6186    0.8745    6.2763 C.ar      2 RES2    0.0000
     71 C44        2.1036    2.9007    7.4497 C.ar      2 RES2    0.0000
     72 C45        5.9684    2.5224    2.1267 C.3       2 RES2    0.0000
     73 C46        2.9626    6.7249    5.2550 C.ar      2 RES2    0.0000
     74 C47        8.2139    1.6762    4.5291 C.3       2 RES2    0.0000
     75 C48        5.0017    2.3121    1.0302 C.3       2 RES2    0.0000
     76 H24        3.0064    5.4257    7.6547 H         2 RES2    0.0000
     77 H25        5.3507    5.0367    2.8947 H         2 RES2    0.0000
     78 H26        4.2740    0.9960    5.0473 H         2 RES2    0.0000
     79 H27        1.5193    3.4021    8.0494 H         2 RES2    0.0000
     80 H28        2.3480    7.1659    5.8708 H         2 RES2    0.0000
     81 H29        7.9066    3.9203    6.1653 H         2 RES2    0.0000
     82 H30        4.8820    5.9722    9.1271 H         2 RES2    0.0000
     83 H31        2.7152    8.0691    3.7343 H         2 RES2    0.0000
     84 H32        1.0507    1.1427    7.5598 H         2 RES2    0.0000
     85 H33        6.8024    1.8943    6.0203 H         2 RES2    0.0000
     86 H34        8.7159    4.9829    8.1327 H         2 RES2    0.0000
     87 H35        4.2655    7.0362    2.2601 H         2 RES2    0.0000
     88 H36        7.2174    5.9995    9.6463 H         2 RES2    0.0000
     89 H37        6.2391    1.0196    4.8451 H         2 RES2    0.0000
     90 H38        6.5279    3.3445    2.0658 H         2 RES2    0.0000
     91 H39        2.3907   -0.0860    6.0472 H         2 RES2    0.0000
     92 H40        8.7082    0.9225    4.9990 H         2 RES2    0.0000
     93 H41        6.6372    1.6945    2.1178 H         2 RES2    0.0000
     94 H42        4.2028    3.1250    1.2021 H         2 RES2    0.0000
     95 H43        4.5497    1.4127    1.1887 H         2 RES2    0.0000
     96 H44        5.4804    2.2964    0.1271 H         2 RES2    0.0000
     97 H45        8.1838    1.4385    3.5445 H         2 RES2    0.0000
     98 H46        8.7658    2.4864    4.6848 H         2 RES2    0.0000
@<TRIPOS>BOND
     1    1    2 1
     2    2   17 1
     3    3    5 1
     4    4    5 1
     5    5    1 1
     6    6    4 ar
     7    7    3 ar
     8    8    9 ar
     9    9    5 1
    10   10    3 ar
    11   11    6 1
    12   12    4 ar
    13   13   19 ar
    14   14    9 ar
    15   15    1 1
    16   16   10 ar
    17   17   25 1
    18   18    6 ar
    19   19   14 ar
    20   20   16 ar
    21   21    7 ar
    22   22   18 ar
    23   23   12 ar
    24   24    8 ar
    25   25   43 1
    26   26   15 1
    27   27   10 1
    28   28   11 1
    29   29   17 1
    30   30   14 1
    31   31   15 1
    32   32   15 1
    33   33   24 1
    34   34   19 1
    35   35   16 1
    36   36   20 1
    37   37   12 1
    38   38   23 1
    39   39   13 1
    40   40   21 1
    41   41   18 1
    42   42   22 1
    43   44   25 1
    44   45   17 1
    45   46   26 1
    46   47   26 1
    47   48   25 1
    48   49   26 1
    49   50   53 1
    50   51   54 1
    51   52   54 1
    52   53   72 1
    53   54   50 1
    54   55   51 ar
    55   56   59 ar
    56   57   52 ar
    57   58   52 ar
    58   59   54 1
    59   60   55 1
    60   61   58 ar
    61   62   51 ar
    62   63   59 ar
    63   64   63 ar
    64   65   50 1
    65   66   57 ar
    66   67   64 ar
    67   68   61 ar
    68   69   70 ar
    69   70   62 ar
    70   71   55 ar
    71   72   75 1
    72   73   56 ar
    73   74   65 1
    74   75   94 1
    75   76   60 1
    76   77   63 1
    77   78   62 1
    78   79   71 1
    79   80   73 1
    80   81   57 1
    81   82   61 1
    82   83   67 1
    83   84   69 1
    84   85   65 1
    85   86   66 1
    86   87   64 1
    87   88   68 1
    88   89   65 1
    89   90   72 1
    90   91   70 1
    91   92   74 1
    92   93   72 1
    93   95   75 1
    94   96   75 1
    95   97   74 1
    96   98   74 1
    97    7   11 1
    98    8   11 1
    99   13   24 ar
   100   20   21 ar
   101   22   23 ar
   102   56   60 1
   103   58   60 1
   104   66   68 ar
   105   67   73 ar
   106   69   71 ar
@<TRIPOS>SUBSTRUCTURE
     1 RES1 1
     2 RES2 50

@<TRIPOS>CRYSIN
  13.5830   15.5750    8.9540  91.4500  90.2000 101.7100   2 1

