# MOL2 file generated by ConQuest
# Please check atom types

@<TRIPOS>MOLECULE
QIXLEQ
    70    75     1
SMALL
NO_CHARGES
****
Generated from CSD

@<TRIPOS>ATOM
      1 O1        15.0847   20.5252    0.3574 O.3       1 RES1    0.0000
      2 O2        13.8551   18.9536    1.3981 O.2       1 RES1    0.0000
      3 O3         8.5955   19.8223    4.5031 O.2       1 RES1    0.0000
      4 O4        10.5878   20.6129    4.8233 O.2       1 RES1    0.0000
      5 O5        11.2699   25.1964   -4.9216 O.2       1 RES1    0.0000
      6 O6        12.4575   23.3848   -5.0520 O.2       1 RES1    0.0000
      7 O7        14.4049   20.2163   -2.8021 O.3       1 RES1    0.0000
      8 O8        17.6314   24.7107   -1.1274 O.3       1 RES1    0.0000
      9 N1         9.6702   20.2277    4.0822 N.pl3     1 RES1    0.0000
     10 N2        11.9006   24.2686   -4.4024 N.pl3     1 RES1    0.0000
     11 C1        13.9083   20.0100    0.7940 C.2       1 RES1    0.0000
     12 C2        12.8130   20.8950    0.3986 C.2       1 RES1    0.0000
     13 C3        13.3193   21.9048   -0.3285 C.2       1 RES1    0.0000
     14 C4        14.7901   21.7542   -0.3747 C.3       1 RES1    0.0000
     15 C5        15.7345   22.1580   -1.4320 C.2       1 RES1    0.0000
     16 C6        15.7828   22.8613   -0.3277 C.2       1 RES1    0.0000
     17 C7        11.4288   20.6149    0.8377 C.ar      1 RES1    0.0000
     18 C8        10.4009   20.3120   -0.0512 C.ar      1 RES1    0.0000
     19 H1        10.5644   20.3343   -0.9871 H         1 RES1    0.0000
     20 C9         9.1287   19.9734    0.4226 C.ar      1 RES1    0.0000
     21 H2         8.4355   19.7657   -0.1923 H         1 RES1    0.0000
     22 C10        8.8756   19.9380    1.7819 C.ar      1 RES1    0.0000
     23 H3         8.0154   19.6999    2.1104 H         1 RES1    0.0000
     24 C11        9.8900   20.2520    2.6386 C.ar      1 RES1    0.0000
     25 C12       11.1710   20.5895    2.1996 C.ar      1 RES1    0.0000
     26 H4        11.8560   20.8001    2.8243 H         1 RES1    0.0000
     27 C13       12.6552   23.0499   -0.9747 C.ar      1 RES1    0.0000
     28 C14       12.1389   24.1031   -0.2129 C.ar      1 RES1    0.0000
     29 H5        12.1817   24.0634    0.7354 H         1 RES1    0.0000
     30 C15       11.5665   25.2047   -0.8278 C.ar      1 RES1    0.0000
     31 H6        11.2216   25.9151   -0.2996 H         1 RES1    0.0000
     32 C16       11.4928   25.2756   -2.2053 C.ar      1 RES1    0.0000
     33 H7        11.1102   26.0323   -2.6337 H         1 RES1    0.0000
     34 C17       11.9834   24.2289   -2.9366 C.ar      1 RES1    0.0000
     35 C18       12.5761   23.1127   -2.3539 C.ar      1 RES1    0.0000
     36 H8        12.9190   22.4089   -2.8920 H         1 RES1    0.0000
     37 C19       16.1743   21.7628   -2.7534 C.ar      1 RES1    0.0000
     38 C20       15.4956   20.7404   -3.4450 C.ar      1 RES1    0.0000
     39 C21       15.9554   20.3449   -4.6855 C.ar      1 RES1    0.0000
     40 H9        15.5051   19.6542   -5.1576 H         1 RES1    0.0000
     41 C22       17.0656   20.9487   -5.2451 C.ar      1 RES1    0.0000
     42 H10       17.3653   20.6629   -6.1002 H         1 RES1    0.0000
     43 C23       17.7565   21.9614   -4.5931 C.ar      1 RES1    0.0000
     44 C24       17.3008   22.3515   -3.3451 C.ar      1 RES1    0.0000
     45 H11       17.7625   23.0376   -2.8772 H         1 RES1    0.0000
     46 C25       13.7900   19.0753   -3.3765 C.3       1 RES1    0.0000
     47 H12       13.0276   18.8027   -2.8243 H         1 RES1    0.0000
     48 H13       14.4392   18.3426   -3.4236 H         1 RES1    0.0000
     49 H14       13.4762   19.2913   -4.2794 H         1 RES1    0.0000
     50 C26       18.9490   22.6372   -5.2228 C.3       1 RES1    0.0000
     51 H15       19.2999   23.3176   -4.6112 H         1 RES1    0.0000
     52 H16       18.6769   23.0604   -6.0638 H         1 RES1    0.0000
     53 H17       19.6457   21.9717   -5.4019 H         1 RES1    0.0000
     54 C27       16.2075   23.9208    0.5423 C.ar      1 RES1    0.0000
     55 C28       17.1487   24.8618    0.1387 C.ar      1 RES1    0.0000
     56 C29       17.5065   25.8951    0.9954 C.ar      1 RES1    0.0000
     57 H18       18.1369   26.5495    0.7181 H         1 RES1    0.0000
     58 C30       16.9364   25.9663    2.2590 C.ar      1 RES1    0.0000
     59 H19       17.2025   26.6667    2.8433 H         1 RES1    0.0000
     60 C31       15.9908   25.0476    2.6989 C.ar      1 RES1    0.0000
     61 C32       15.6431   24.0286    1.8315 C.ar      1 RES1    0.0000
     62 H20       15.0050   23.3833    2.1112 H         1 RES1    0.0000
     63 C33       18.5935   25.6654   -1.5797 C.3       1 RES1    0.0000
     64 H21       18.8598   25.4522   -2.4983 H         1 RES1    0.0000
     65 H22       19.3799   25.6379   -0.9962 H         1 RES1    0.0000
     66 H23       18.1997   26.5638   -1.5541 H         1 RES1    0.0000
     67 C34       15.3736   25.1556    4.0739 C.3       1 RES1    0.0000
     68 H24       15.7394   25.9380    4.5361 H         1 RES1    0.0000
     69 H25       15.5794   24.3463    4.5881 H         1 RES1    0.0000
     70 H26       14.4021   25.2522    3.9897 H         1 RES1    0.0000
@<TRIPOS>BOND
     1    1   11 1
     2    2   11 2
     3    3    9 2
     4    4    9 2
     5    5   10 2
     6    6   10 2
     7    7   38 1
     8    8   55 1
     9    9   24 1
    10   10   34 1
    11   11   12 1
    12   12   13 2
    13   13   14 1
    14   14    1 1
    15   15   14 1
    16   16   14 1
    17   17   12 1
    18   18   17 ar
    19   19   18 1
    20   20   18 ar
    21   21   20 1
    22   22   20 ar
    23   23   22 1
    24   24   22 ar
    25   25   17 ar
    26   26   25 1
    27   27   13 1
    28   28   27 ar
    29   29   28 1
    30   30   28 ar
    31   31   30 1
    32   32   30 ar
    33   33   32 1
    34   34   32 ar
    35   35   27 ar
    36   36   35 1
    37   37   15 1
    38   38   37 ar
    39   39   38 ar
    40   40   39 1
    41   41   39 ar
    42   42   41 1
    43   43   41 ar
    44   44   37 ar
    45   45   44 1
    46   46    7 1
    47   47   46 1
    48   48   46 1
    49   49   46 1
    50   50   43 1
    51   51   50 1
    52   52   50 1
    53   53   50 1
    54   54   16 1
    55   55   54 ar
    56   56   55 ar
    57   57   56 1
    58   58   56 ar
    59   59   58 1
    60   60   58 ar
    61   61   54 ar
    62   62   61 1
    63   63    8 1
    64   64   63 1
    65   65   63 1
    66   66   63 1
    67   67   60 1
    68   68   67 1
    69   69   67 1
    70   70   67 1
    71   15   16 2
    72   24   25 ar
    73   34   35 ar
    74   43   44 ar
    75   60   61 ar
@<TRIPOS>SUBSTRUCTURE
     1 RES1 1

@<TRIPOS>CRYSIN
  28.5755   28.5755    8.2535  90.0000  90.0000  90.0000  85 1

