# MOL2 file generated by ConQuest
# Please check atom types

@<TRIPOS>MOLECULE
QIXQOE
    24    24     1
SMALL
NO_CHARGES
****
Generated from CSD

@<TRIPOS>ATOM
      1 O1         0.0016   -0.3055    4.5833 O.3       1 RES1    0.0000
      2 O2        -0.7100   -2.2467    3.6192 O.2       1 RES1    0.0000
      3 N1         1.0810    3.3082    1.9202 N.ar      1 RES1    0.0000
      4 N2         0.1847    0.1899    3.2488 N.2       1 RES1    0.0000
      5 C1         0.9416    1.9716    1.9502 C.ar      1 RES1    0.0000
      6 C2         0.9889    1.1741    0.8040 C.ar      1 RES1    0.0000
      7 C3         1.1173    1.7851   -0.4341 C.ar      1 RES1    0.0000
      8 C4         1.2280    3.1685   -0.4792 C.ar      1 RES1    0.0000
      9 C5         1.2292    3.8780    0.7136 C.ar      1 RES1    0.0000
     10 C6         0.6960    1.3677    3.2961 C.2       1 RES1    0.0000
     11 C7        -0.4793   -1.5882    4.5961 C.2       1 RES1    0.0000
     12 C8        -0.6465   -2.0194    6.0064 C.2       1 RES1    0.0000
     13 C9        -1.0369   -3.2522    6.2830 C.2       1 RES1    0.0000
     14 C10        1.0416    2.1396    4.5298 C.3       1 RES1    0.0000
     15 H1         0.9066    0.2043    0.8805 H         1 RES1    0.0000
     16 H2         1.1232    1.2755   -1.2425 H         1 RES1    0.0000
     17 H3         1.3213    3.6038   -1.2927 H         1 RES1    0.0000
     18 H4         1.3296    4.8333    0.7038 H         1 RES1    0.0000
     19 H5        -0.4333   -1.3362    6.6864 H         1 RES1    0.0000
     20 H6        -1.1524   -3.5670    7.1963 H         1 RES1    0.0000
     21 H7        -1.2220   -3.8651    5.5732 H         1 RES1    0.0000
     22 H8         0.4062    1.9859    5.2141 H         1 RES1    0.0000
     23 H9         1.0748    3.0571    4.3451 H         1 RES1    0.0000
     24 H10        1.9246    1.8829    4.8334 H         1 RES1    0.0000
@<TRIPOS>BOND
     1    1    4 1
     2    2   11 2
     3    3    5 ar
     4    4   10 2
     5    5    6 ar
     6    6    7 ar
     7    7    8 ar
     8    8    9 ar
     9    9    3 ar
    10   10    5 1
    11   11    1 1
    12   12   11 1
    13   13   12 2
    14   14   10 1
    15   15    6 1
    16   16    7 1
    17   17    8 1
    18   18    9 1
    19   19   12 1
    20   20   13 1
    21   21   13 1
    22   22   14 1
    23   23   14 1
    24   24   14 1
@<TRIPOS>SUBSTRUCTURE
     1 RES1 1

@<TRIPOS>CRYSIN
   7.0240   18.4054    7.8642  90.0000 114.0430  90.0000 231 1

