# MOL2 file generated by ConQuest
# Please check atom types

@<TRIPOS>MOLECULE
QIXRAR
    86    73     2
SMALL
NO_CHARGES
****
Generated from CSD

@<TRIPOS>ATOM
      1 N1         3.5806    2.0723    0.6243 N.2       1 RES1    0.0000
      2 N2         9.0789    5.4075    0.7697 N.3       1 RES1    0.0000
      3 O1         2.4024    1.4717    1.1041 O.3       1 RES1    0.0000
      4 O2         5.4410    2.9621   -1.0221 O.3       1 RES1    0.0000
      5 H1         4.7491    2.5818   -0.8020 H         1 RES1    0.0000
      6 C1         1.6775    0.9175    0.0124 C.3       1 RES1    0.0000
      7 H2         2.2147    0.2480   -0.4388 H         1 RES1    0.0000
      8 H3         1.4551    1.6133   -0.6259 H         1 RES1    0.0000
      9 C2         0.4263    0.2962    0.5516 C.3       1 RES1    0.0000
     10 H4        -0.0866    0.9685    1.0263 H         1 RES1    0.0000
     11 H5         0.6624   -0.4009    1.1825 H         1 RES1    0.0000
     12 C3         4.2358    2.6300    1.5692 C.2       1 RES1    0.0000
     13 H6         3.9022    2.5859    2.4356 H         1 RES1    0.0000
     14 C4         5.4727    3.3247    1.3312 C.ar      1 RES1    0.0000
     15 C5         6.0414    3.4759    0.0768 C.ar      1 RES1    0.0000
     16 C6         7.2230    4.1538   -0.1016 C.ar      1 RES1    0.0000
     17 H7         7.5676    4.2392   -0.9619 H         1 RES1    0.0000
     18 C7         7.9140    4.7104    0.9495 C.ar      1 RES1    0.0000
     19 C8         7.3376    4.5643    2.2150 C.ar      1 RES1    0.0000
     20 H8         7.7666    4.9211    2.9587 H         1 RES1    0.0000
     21 C9         6.1552    3.9058    2.3712 C.ar      1 RES1    0.0000
     22 H9         5.7927    3.8465    3.2252 H         1 RES1    0.0000
     23 C10        9.3961    5.9214   -0.5888 C.3       1 RES1    0.0000
     24 H10        9.8717    6.7618   -0.5008 H         1 RES1    0.0000
     25 H11        8.5650    6.1005   -1.0561 H         1 RES1    0.0000
     26 C11       10.2290    4.9763   -1.4229 C.3       1 RES1    0.0000
     27 H12       11.0514    4.7861   -0.9656 H         1 RES1    0.0000
     28 H13       10.4212    5.3841   -2.2708 H         1 RES1    0.0000
     29 H14        9.7435    4.1607   -1.5630 H         1 RES1    0.0000
     30 C12       10.0498    5.4488    1.8357 C.3       1 RES1    0.0000
     31 H15       10.9583    5.4323    1.4936 H         1 RES1    0.0000
     32 H16        9.9264    4.7186    2.4617 H         1 RES1    0.0000
     33 C13        9.7160    6.7769    2.4567 C.3       1 RES1    0.0000
     34 H17        9.7517    7.4630    1.7861 H         1 RES1    0.0000
     35 H18       10.3497    6.9753    3.1508 H         1 RES1    0.0000
     36 H19        8.8324    6.7425    2.8310 H         1 RES1    0.0000
     37 C14        9.9897    5.1953   -0.3458 Du        2 SUP2    0.0000
     38 H20        9.9138    4.2860   -0.6718 Du        2 SUP2    0.0000
     39 H21       10.9057    5.3455   -0.0632 Du        2 SUP2    0.0000
     40 C15        9.6165    6.1680   -1.4316 Du        2 SUP2    0.0000
     41 H22        8.6841    6.0729   -1.6386 Du        2 SUP2    0.0000
     42 H23       10.1393    5.9875   -2.2162 Du        2 SUP2    0.0000
     43 H24        9.7877    7.0635   -1.1317 Du        2 SUP2    0.0000
     44 C16        9.6013    6.4091    1.8407 Du        2 SUP2    0.0000
     45 H25       10.1122    7.1062    1.3982 Du        2 SUP2    0.0000
     46 H26        8.8447    6.8279    2.2782 Du        2 SUP2    0.0000
     47 C17       10.4774    5.7533    2.8930 Du        2 SUP2    0.0000
     48 H27       10.0134    5.0038    3.2723 Du        2 SUP2    0.0000
     49 H28       10.6775    6.3884    3.5834 Du        2 SUP2    0.0000
     50 H29       11.2943    5.4516    2.4877 Du        2 SUP2    0.0000
     51 N1B       -3.5806   -2.0723   -0.6243 N.2       1 RES1    0.0000
     52 N2B       -9.0789   -5.4075   -0.7697 N.3       1 RES1    0.0000
     53 O1B       -2.4024   -1.4717   -1.1041 O.3       1 RES1    0.0000
     54 O2B       -5.4410   -2.9621    1.0221 O.3       1 RES1    0.0000
     55 H1B       -4.7491   -2.5818    0.8020 H         1 RES1    0.0000
     56 C1B       -1.6775   -0.9175   -0.0124 C.3       1 RES1    0.0000
     57 H2B       -2.2147   -0.2480    0.4388 H         1 RES1    0.0000
     58 H3B       -1.4551   -1.6133    0.6259 H         1 RES1    0.0000
     59 C2B       -0.4263   -0.2962   -0.5516 C.3       1 RES1    0.0000
     60 H4B        0.0866   -0.9685   -1.0263 H         1 RES1    0.0000
     61 H5B       -0.6624    0.4009   -1.1825 H         1 RES1    0.0000
     62 C3B       -4.2358   -2.6300   -1.5692 C.2       1 RES1    0.0000
     63 H6B       -3.9022   -2.5859   -2.4356 H         1 RES1    0.0000
     64 C4B       -5.4727   -3.3247   -1.3312 C.ar      1 RES1    0.0000
     65 C5B       -6.0414   -3.4759   -0.0768 C.ar      1 RES1    0.0000
     66 C6B       -7.2230   -4.1538    0.1016 C.ar      1 RES1    0.0000
     67 H7B       -7.5676   -4.2392    0.9619 H         1 RES1    0.0000
     68 C7B       -7.9140   -4.7104   -0.9495 C.ar      1 RES1    0.0000
     69 C8B       -7.3376   -4.5643   -2.2150 C.ar      1 RES1    0.0000
     70 H8B       -7.7666   -4.9211   -2.9587 H         1 RES1    0.0000
     71 C9B       -6.1552   -3.9058   -2.3712 C.ar      1 RES1    0.0000
     72 H9B       -5.7927   -3.8465   -3.2252 H         1 RES1    0.0000
     73 C10B      -9.3961   -5.9214    0.5888 C.3       1 RES1    0.0000
     74 H10B      -9.8717   -6.7618    0.5008 H         1 RES1    0.0000
     75 H11B      -8.5650   -6.1005    1.0561 H         1 RES1    0.0000
     76 C11B     -10.2290   -4.9763    1.4229 C.3       1 RES1    0.0000
     77 H12B     -11.0514   -4.7861    0.9656 H         1 RES1    0.0000
     78 H13B     -10.4212   -5.3841    2.2708 H         1 RES1    0.0000
     79 H14B      -9.7435   -4.1607    1.5630 H         1 RES1    0.0000
     80 C12B     -10.0498   -5.4488   -1.8357 C.3       1 RES1    0.0000
     81 H15B     -10.9583   -5.4323   -1.4936 H         1 RES1    0.0000
     82 H16B      -9.9264   -4.7186   -2.4617 H         1 RES1    0.0000
     83 C13B      -9.7160   -6.7769   -2.4567 C.3       1 RES1    0.0000
     84 H17B      -9.7517   -7.4630   -1.7861 H         1 RES1    0.0000
     85 H18B     -10.3497   -6.9753   -3.1508 H         1 RES1    0.0000
     86 H19B      -8.8324   -6.7425   -2.8310 H         1 RES1    0.0000
@<TRIPOS>BOND
     1    1    3 1
     2    2   18 1
     3    3    6 1
     4    4    5 1
     5    6    7 1
     6    8    6 1
     7    9    6 1
     8   10    9 1
     9   11    9 1
    10   12    1 2
    11   13   12 1
    12   14   12 1
    13   15    4 1
    14   16   15 ar
    15   17   16 1
    16   18   16 ar
    17   19   18 ar
    18   20   19 1
    19   21   14 ar
    20   22   21 1
    21   23    2 1
    22   24   23 1
    23   25   23 1
    24   26   23 1
    25   27   26 1
    26   28   26 1
    27   29   26 1
    28   30    2 1
    29   31   30 1
    30   32   30 1
    31   33   30 1
    32   34   33 1
    33   35   33 1
    34   36   33 1
    35   51   53 1
    36   52   68 1
    37   53   56 1
    38   54   55 1
    39   56   57 1
    40   58   56 1
    41   59    9 1
    42   60   59 1
    43   61   59 1
    44   62   51 2
    45   63   62 1
    46   64   62 1
    47   65   54 1
    48   66   65 ar
    49   67   66 1
    50   68   66 ar
    51   69   68 ar
    52   70   69 1
    53   71   64 ar
    54   72   71 1
    55   73   52 1
    56   74   73 1
    57   75   73 1
    58   76   73 1
    59   77   76 1
    60   78   76 1
    61   79   76 1
    62   80   52 1
    63   81   80 1
    64   82   80 1
    65   83   80 1
    66   84   83 1
    67   85   83 1
    68   86   83 1
    69   14   15 ar
    70   19   21 ar
    71   56   59 1
    72   64   65 ar
    73   69   71 ar
@<TRIPOS>SUBSTRUCTURE
     1 RES1 1
     2 SUP2 37

@<TRIPOS>CRYSIN
   7.6888   13.7770   12.6547  90.0000 101.6270  90.0000  14 1

