# MOL2 file generated by ConQuest
# Please check atom types

@<TRIPOS>MOLECULE
QIXWEZ
    52    55     1
SMALL
NO_CHARGES
****
Generated from CSD

@<TRIPOS>ATOM
      1 O1         1.6340   11.2335    8.8917 O.3       1 RES1    0.0000
      2 O2        -0.2867   11.4002    7.6674 O.3       1 RES1    0.0000
      3 O3         3.4461   10.6025    2.8171 O.3       1 RES1    0.0000
      4 O4         2.6220    8.5896    2.2147 O.2       1 RES1    0.0000
      5 O5         7.2291    8.7133   -2.9559 O.2       1 RES1    0.0000
      6 O6         8.1357   10.4551   -2.1007 O.2       1 RES1    0.0000
      7 N1         7.2952    9.5763   -2.1003 N.pl3     1 RES1    0.0000
      8 C1         0.5811   10.6803    9.6818 C.3       1 RES1    0.0000
      9 H1         0.2550   11.3303   10.3528 H         1 RES1    0.0000
     10 H2         0.8733    9.8551   10.1430 H         1 RES1    0.0000
     11 C2        -0.4806   10.3831    8.6399 C.3       1 RES1    0.0000
     12 H3        -0.3501    9.4847    8.2465 H         1 RES1    0.0000
     13 H4        -1.3883   10.4356    9.0317 H         1 RES1    0.0000
     14 C3         1.0071   11.9786    7.8333 C.3       1 RES1    0.0000
     15 C4         0.8378   13.4255    8.2970 C.3       1 RES1    0.0000
     16 H5         0.5816   13.4197    9.2539 H         1 RES1    0.0000
     17 H6         1.7138   13.8815    8.2257 H         1 RES1    0.0000
     18 C5        -0.1955   14.2418    7.5238 C.3       1 RES1    0.0000
     19 H7        -1.0087   13.6891    7.4135 H         1 RES1    0.0000
     20 H8        -0.4440   15.0280    8.0720 H         1 RES1    0.0000
     21 C6         0.2354   14.7358    6.1516 C.3       1 RES1    0.0000
     22 H9         0.3899   15.7111    6.2150 H         1 RES1    0.0000
     23 H10       -0.5210   14.5983    5.5274 H         1 RES1    0.0000
     24 C7         1.4729   14.1042    5.5332 C.3       1 RES1    0.0000
     25 H11        2.2517   14.3289    6.1028 H         1 RES1    0.0000
     26 H12        1.6242   14.5229    4.6488 H         1 RES1    0.0000
     27 C8         1.4418   12.5727    5.3428 C.3       1 RES1    0.0000
     28 H13        0.5128   12.3021    5.0912 H         1 RES1    0.0000
     29 C9         1.8667   11.7660    6.5878 C.3       1 RES1    0.0000
     30 H14        2.7951   12.0567    6.8215 H         1 RES1    0.0000
     31 C10        1.9366   10.2674    6.2515 C.3       1 RES1    0.0000
     32 H15        2.2146    9.7669    7.0583 H         1 RES1    0.0000
     33 H16        1.0349    9.9513    5.9948 H         1 RES1    0.0000
     34 C11        2.9070    9.9712    5.1255 C.3       1 RES1    0.0000
     35 H17        3.8218   10.2448    5.3862 H         1 RES1    0.0000
     36 H18        2.9158    9.0004    4.9334 H         1 RES1    0.0000
     37 C12        2.4680   10.7386    3.8948 C.3       1 RES1    0.0000
     38 H19        1.5783   10.4019    3.5873 H         1 RES1    0.0000
     39 C13        2.3800   12.2310    4.1826 C.3       1 RES1    0.0000
     40 H20        2.0649   12.6965    3.3671 H         1 RES1    0.0000
     41 H21        3.2861   12.5698    4.3933 H         1 RES1    0.0000
     42 C14        3.4084    9.4869    2.0776 C.2       1 RES1    0.0000
     43 C15        4.4652    9.5165    1.0212 C.ar      1 RES1    0.0000
     44 C16        4.4433    8.5354    0.0395 C.ar      1 RES1    0.0000
     45 H22        3.7830    7.8523    0.0685 H         1 RES1    0.0000
     46 C17        5.3772    8.5451   -0.9825 C.ar      1 RES1    0.0000
     47 H23        5.3679    7.8732   -1.6555 H         1 RES1    0.0000
     48 C18        6.3144    9.5437   -1.0027 C.ar      1 RES1    0.0000
     49 C19        6.3766   10.5202   -0.0312 C.ar      1 RES1    0.0000
     50 H24        7.0478   11.1924   -0.0602 H         1 RES1    0.0000
     51 C20        5.4411   10.5005    0.9836 C.ar      1 RES1    0.0000
     52 H25        5.4668   11.1652    1.6618 H         1 RES1    0.0000
@<TRIPOS>BOND
     1    1    8 1
     2    2   11 1
     3    3   37 1
     4    4   42 2
     5    5    7 2
     6    6    7 2
     7    7   48 1
     8    8    9 1
     9   10    8 1
    10   11    8 1
    11   12   11 1
    12   13   11 1
    13   14    1 1
    14   15   14 1
    15   16   15 1
    16   17   15 1
    17   18   15 1
    18   19   18 1
    19   20   18 1
    20   21   18 1
    21   22   21 1
    22   23   21 1
    23   24   21 1
    24   25   24 1
    25   26   24 1
    26   27   24 1
    27   28   27 1
    28   29   14 1
    29   30   29 1
    30   31   29 1
    31   32   31 1
    32   33   31 1
    33   34   31 1
    34   35   34 1
    35   36   34 1
    36   37   34 1
    37   38   37 1
    38   39   27 1
    39   40   39 1
    40   41   39 1
    41   42    3 1
    42   43   42 1
    43   44   43 ar
    44   45   44 1
    45   46   44 ar
    46   47   46 1
    47   48   46 ar
    48   49   48 ar
    49   50   49 1
    50   51   43 ar
    51   52   51 1
    52    2   14 1
    53   27   29 1
    54   37   39 1
    55   49   51 ar
@<TRIPOS>SUBSTRUCTURE
     1 RES1 1

@<TRIPOS>CRYSIN
   5.4613   16.0350   20.7720  90.0000  90.0000  90.0000  19 1

