# MOL2 file generated by ConQuest
# Please check atom types

@<TRIPOS>MOLECULE
QIXXOL
    31    32     1
SMALL
NO_CHARGES
****
Generated from CSD

@<TRIPOS>ATOM
      1 O1         1.6301   -0.1723    4.0865 O.2       1 RES1    0.0000
      2 O2         3.1607    0.4715    2.6867 O.2       1 RES1    0.0000
      3 O3         1.2863    3.7607    7.2213 O.2       1 RES1    0.0000
      4 O4         1.2283    5.7454    6.3376 O.2       1 RES1    0.0000
      5 O5         0.2342    6.1126    1.7602 O.2       1 RES1    0.0000
      6 O6         0.4806    4.5414    0.3534 O.2       1 RES1    0.0000
      7 N1         2.2009    0.6791    3.4067 N.pl3     1 RES1    0.0000
      8 N2         1.2842    4.5151    6.2628 N.pl3     1 RES1    0.0000
      9 N3         0.5465    4.9811    1.4741 N.pl3     1 RES1    0.0000
     10 N4         0.6647   -0.7942   -3.1718 N.ar      1 RES1    0.0000
     11 C1         1.3458    2.7698    2.3574 C.ar      1 RES1    0.0000
     12 C2         1.7025    2.0708    3.5163 C.ar      1 RES1    0.0000
     13 C3         1.6795    2.5903    4.7962 C.ar      1 RES1    0.0000
     14 H1         1.9008    2.0626    5.5529 H         1 RES1    0.0000
     15 C4         1.3178    3.9167    4.9169 C.ar      1 RES1    0.0000
     16 C5         0.9870    4.6919    3.8390 C.ar      1 RES1    0.0000
     17 H2         0.7642    5.6094    3.9449 H         1 RES1    0.0000
     18 C6         0.9870    4.0935    2.5826 C.ar      1 RES1    0.0000
     19 C7         1.3494    2.1333    1.0206 C.2       1 RES1    0.0000
     20 H3         1.8486    2.5549    0.3303 H         1 RES1    0.0000
     21 C8         0.7033    1.0118    0.7194 C.2       1 RES1    0.0000
     22 H4         0.2256    0.5694    1.4099 H         1 RES1    0.0000
     23 C9         0.6883    0.4180   -0.6284 C.ar      1 RES1    0.0000
     24 C10        0.2636   -0.9003   -0.8024 C.ar      1 RES1    0.0000
     25 H5        -0.0322   -1.4135   -0.0599 H         1 RES1    0.0000
     26 C11        0.2815   -1.4515   -2.0798 C.ar      1 RES1    0.0000
     27 H6         0.0021   -2.3536   -2.1799 H         1 RES1    0.0000
     28 C12        1.0550    0.4769   -2.9947 C.ar      1 RES1    0.0000
     29 H7         1.3250    0.9710   -3.7611 H         1 RES1    0.0000
     30 C13        1.0894    1.1161   -1.7656 C.ar      1 RES1    0.0000
     31 H8         1.3823    2.0173   -1.6989 H         1 RES1    0.0000
@<TRIPOS>BOND
     1    1    7 2
     2    2    7 2
     3    3    8 2
     4    4    8 2
     5    5    9 2
     6    6    9 2
     7    7   12 1
     8    8   15 1
     9    9   18 1
    10   10   26 ar
    11   11   12 ar
    12   12   13 ar
    13   13   14 1
    14   15   13 ar
    15   16   15 ar
    16   17   16 1
    17   18   11 ar
    18   19   11 1
    19   20   19 1
    20   21   19 2
    21   22   21 1
    22   23   21 1
    23   24   23 ar
    24   25   24 1
    25   26   24 ar
    26   27   26 1
    27   28   10 ar
    28   29   28 1
    29   30   23 ar
    30   31   30 1
    31   16   18 ar
    32   28   30 ar
@<TRIPOS>SUBSTRUCTURE
     1 RES1 1

@<TRIPOS>CRYSIN
   7.1622    9.0664   20.6429  90.0000  90.0000  90.0000  19 1

