# MOL2 file generated by ConQuest
# Please check atom types

@<TRIPOS>MOLECULE
QIYJIR
    64    66     2
SMALL
NO_CHARGES
****
Generated from CSD

@<TRIPOS>ATOM
      1 O1        -2.4519   -0.5113   12.9194 O.3       1 RES1    0.0000
      2 O2        -1.4182    1.4487   13.0131 O.2       1 RES1    0.0000
      3 O3         2.4327   -3.5913   16.4341 O.2       1 RES1    0.0000
      4 O4         3.7559   -1.8870   16.2914 O.2       1 RES1    0.0000
      5 O5         1.3875   -0.8400   19.0542 O.3       2 RES2    0.0000
      6 O6         0.1772   -2.7087   19.2097 O.2       2 RES2    0.0000
      7 O7        -3.4830    2.1913   15.4031 O.2       2 RES2    0.0000
      8 O8        -4.7893    0.5600   15.7205 O.2       2 RES2    0.0000
      9 N1        -6.7946   -3.6826   13.0450 N.1       1 RES1    0.0000
     10 N2         2.6867   -2.4713   16.0613 N.pl3     1 RES1    0.0000
     11 N3         5.6089    2.2765   18.8646 N.1       2 RES2    0.0000
     12 N4        -3.7460    1.1078   15.9016 N.pl3     2 RES2    0.0000
     13 C1        -5.9695   -2.8487   13.1238 C.1       1 RES1    0.0000
     14 C2        -4.8329   -1.9357   13.1089 C.2       1 RES1    0.0000
     15 C3        -4.6940   -0.9191   12.2824 C.2       1 RES1    0.0000
     16 C4        -5.6486   -0.5357   11.0896 C.3       1 RES1    0.0000
     17 C5        -4.9874    0.4687   10.4420 C.3       1 RES1    0.0000
     18 C6        -3.5931    0.6330   11.0342 C.3       1 RES1    0.0000
     19 C7        -3.5755    0.0304   12.2569 C.3       1 RES1    0.0000
     20 C8        -1.4061    0.2130   13.1345 C.2       1 RES1    0.0000
     21 C9        -0.3321   -0.5235   13.8545 C.ar      1 RES1    0.0000
     22 C10       -0.5277   -1.7409   14.3551 C.ar      1 RES1    0.0000
     23 C11        0.4751   -2.3983   15.0878 C.ar      1 RES1    0.0000
     24 C12        1.6465   -1.7348   15.2604 C.ar      1 RES1    0.0000
     25 C13        1.9087   -0.5417   14.7662 C.ar      1 RES1    0.0000
     26 C14        0.9534    0.1461   14.0760 C.ar      1 RES1    0.0000
     27 C15        4.7869    1.5826   18.8752 C.1       2 RES2    0.0000
     28 C16        3.8078    0.5478   18.7027 C.2       2 RES2    0.0000
     29 C17        3.6812   -0.4017   19.6229 C.2       2 RES2    0.0000
     30 C18        4.4793   -0.6148   20.7349 C.3       2 RES2    0.0000
     31 C19        3.8982   -1.9174   21.5443 C.3       2 RES2    0.0000
     32 C20        2.4502   -1.8870   21.0736 C.3       2 RES2    0.0000
     33 C21        2.6120   -1.4731   19.5974 C.3       2 RES2    0.0000
     34 C22        0.3140   -1.6739   18.7623 C.2       2 RES2    0.0000
     35 C23       -0.7695   -0.8583   18.0807 C.ar      2 RES2    0.0000
     36 C24       -0.5261    0.4322   17.6057 C.ar      2 RES2    0.0000
     37 C25       -1.5189    1.0713   16.9262 C.ar      2 RES2    0.0000
     38 C26       -2.7396    0.4504   16.6940 C.ar      2 RES2    0.0000
     39 C27       -3.0008   -0.8278   17.2095 C.ar      2 RES2    0.0000
     40 C28       -1.9483   -1.4122   17.9465 C.ar      2 RES2    0.0000
     41 H1        -4.0783   -2.0531   13.7267 H         1 RES1    0.0000
     42 H2        -6.5104   -0.1869   11.3750 H         1 RES1    0.0000
     43 H3        -5.7493   -1.2125   10.4931 H         1 RES1    0.0000
     44 H4        -5.4996    1.3623   10.5421 H         1 RES1    0.0000
     45 H5        -4.9131    0.3567    9.5154 H         1 RES1    0.0000
     46 H6        -3.4266    1.6465   11.0789 H         1 RES1    0.0000
     47 H7        -3.0081    0.2593   10.5251 H         1 RES1    0.0000
     48 H8        -3.8963    0.9076   12.9343 H         1 RES1    0.0000
     49 H9        -1.3468   -2.1055   14.2400 H         1 RES1    0.0000
     50 H10        0.3350   -3.1817   15.4627 H         1 RES1    0.0000
     51 H11        2.7792   -0.0956   14.8876 H         1 RES1    0.0000
     52 H12        1.1082    1.1200   13.7821 H         1 RES1    0.0000
     53 H13        3.2835    0.6087   17.9401 H         2 RES2    0.0000
     54 H14        4.4947    0.2094   21.2802 H         2 RES2    0.0000
     55 H15        5.3580   -0.7414   20.4090 H         2 RES2    0.0000
     56 H16        4.3038   -2.6497   21.2674 H         2 RES2    0.0000
     57 H17        3.9528   -1.7299   22.4645 H         2 RES2    0.0000
     58 H18        1.9041   -1.1833   21.5699 H         2 RES2    0.0000
     59 H19        2.0091   -2.6661   21.1247 H         2 RES2    0.0000
     60 H20        2.8867   -2.0866   19.0648 H         2 RES2    0.0000
     61 H21        0.3286    0.9356   17.7825 H         2 RES2    0.0000
     62 H22       -1.3752    2.0404   16.6216 H         2 RES2    0.0000
     63 H23       -3.8154   -1.2186   17.0604 H         2 RES2    0.0000
     64 H24       -2.1066   -2.1371   18.4109 H         2 RES2    0.0000
@<TRIPOS>BOND
     1    1   19 1
     2    2   20 2
     3    3   10 2
     4    4   10 2
     5    5   33 1
     6    6   34 2
     7    7   12 2
     8    8   12 2
     9    9   13 3
    10   10   24 1
    11   11   27 3
    12   12   38 1
    13   13   14 1
    14   14   15 2
    15   15   16 1
    16   16   17 1
    17   17   18 1
    18   18   19 1
    19   19   15 1
    20   20    1 1
    21   21   20 1
    22   22   21 ar
    23   23   22 ar
    24   24   23 ar
    25   25   24 ar
    26   26   21 ar
    27   27   28 1
    28   28   29 2
    29   29   30 1
    30   30   31 1
    31   31   32 1
    32   32   33 1
    33   33   29 1
    34   34    5 1
    35   35   34 1
    36   36   35 ar
    37   37   36 ar
    38   38   37 ar
    39   39   38 ar
    40   40   35 ar
    41   41   14 1
    42   42   16 1
    43   43   16 1
    44   44   17 1
    45   45   17 1
    46   46   18 1
    47   47   18 1
    48   48   19 1
    49   49   22 1
    50   50   23 1
    51   51   25 1
    52   52   26 1
    53   53   28 1
    54   54   30 1
    55   55   30 1
    56   56   31 1
    57   57   31 1
    58   58   32 1
    59   59   32 1
    60   60   33 1
    61   61   36 1
    62   62   37 1
    63   63   39 1
    64   64   40 1
    65   25   26 ar
    66   39   40 ar
@<TRIPOS>SUBSTRUCTURE
     1 RES1 1
     2 RES2 5

@<TRIPOS>CRYSIN
  10.1230    6.0870   21.6930  90.0000 100.9020  90.0000   4 1

