# MOL2 file generated by ConQuest
# Please check atom types

@<TRIPOS>MOLECULE
QIYRUN
   162   168     2
SMALL
NO_CHARGES
****
Generated from CSD

@<TRIPOS>ATOM
      1 O1         1.2077   -1.4548    3.3602 O.2       1 RES1    0.0000
      2 N1         1.4531   -0.4764    2.6837 N.pl3     1 RES1    0.0000
      3 C1         2.8417   -0.2641    2.2122 C.2       1 RES1    0.0000
      4 C2         3.7930   -0.0218    3.1107 C.2       1 RES1    0.0000
      5 O2         0.6119    0.3017    2.3080 O.2       1 RES1    0.0000
      6 O3         3.9492    1.3709    6.6178 O.3       1 RES1    0.0000
      7 C3         3.5277    0.0633    4.6021 C.3       1 RES1    0.0000
      8 H1         3.9588   -0.7014    5.0597 H         1 RES1    0.0000
      9 H2         2.5535    0.0119    4.7676 H         1 RES1    0.0000
     10 O4         1.7849    1.9384    6.4404 O.2       1 RES1    0.0000
     11 C4         4.0738    1.3712    5.1704 C.3       1 RES1    0.0000
     12 H3         3.5554    2.1379    4.7941 H         1 RES1    0.0000
     13 C5         5.5326    1.5523    4.8503 C.3       1 RES1    0.0000
     14 H4         6.0607    0.8360    5.2845 H         1 RES1    0.0000
     15 H5         5.8457    2.4229    5.2013 H         1 RES1    0.0000
     16 C6         5.7453    1.5008    3.3387 C.3       1 RES1    0.0000
     17 H6         6.7124    1.6017    3.1530 H         1 RES1    0.0000
     18 H7         5.2794    2.2725    2.9282 H         1 RES1    0.0000
     19 C7         5.2440    0.2018    2.6586 C.3       1 RES1    0.0000
     20 C8         5.3321    0.3898    1.1189 C.3       1 RES1    0.0000
     21 H8         4.9848    1.3089    0.9277 H         1 RES1    0.0000
     22 C9         6.7818    0.3571    0.5924 C.3       1 RES1    0.0000
     23 H9         7.3030    1.0645    1.0481 H         1 RES1    0.0000
     24 H10        7.1882   -0.5145    0.8268 H         1 RES1    0.0000
     25 C10        6.8914    0.5600   -0.9185 C.3       1 RES1    0.0000
     26 H11        7.8403    0.5016   -1.1915 H         1 RES1    0.0000
     27 H12        6.5589    1.4622   -1.1560 H         1 RES1    0.0000
     28 C11        6.0775   -0.4996   -1.6675 C.3       1 RES1    0.0000
     29 C12        5.8618   -0.3057   -3.1964 C.3       1 RES1    0.0000
     30 H13        5.6610    0.6609   -3.3531 H         1 RES1    0.0000
     31 C13        4.5589   -1.1071   -3.4708 C.3       1 RES1    0.0000
     32 H14        3.9843   -0.6183   -4.1108 H         1 RES1    0.0000
     33 H15        4.7751   -1.9935   -3.8541 H         1 RES1    0.0000
     34 C14        3.8311   -1.2733   -2.1149 C.3       1 RES1    0.0000
     35 H16        2.8888   -0.9745   -2.1793 H         1 RES1    0.0000
     36 H17        3.8509   -2.2161   -1.8146 H         1 RES1    0.0000
     37 C15        4.6248   -0.3789   -1.1649 C.3       1 RES1    0.0000
     38 H18        4.3380    0.5600   -1.3596 H         1 RES1    0.0000
     39 C16        4.4323   -0.5827    0.3332 C.3       1 RES1    0.0000
     40 H19        4.6879   -1.5206    0.5665 H         1 RES1    0.0000
     41 C17        2.9713   -0.3532    0.7317 C.3       1 RES1    0.0000
     42 H20        2.6438    0.4848    0.3187 H         1 RES1    0.0000
     43 H21        2.4147   -1.1001    0.3948 H         1 RES1    0.0000
     44 C18        6.0813   -1.0002    3.1334 C.3       1 RES1    0.0000
     45 H22        5.8900   -1.1783    4.0772 H         1 RES1    0.0000
     46 H23        7.0338   -0.7974    3.0256 H         1 RES1    0.0000
     47 H24        5.8529   -1.7887    2.5989 H         1 RES1    0.0000
     48 C19        6.6582   -1.9025   -1.4076 C.3       1 RES1    0.0000
     49 H25        7.6108   -1.9084   -1.6358 H         1 RES1    0.0000
     50 H26        6.1855   -2.5584   -1.9616 H         1 RES1    0.0000
     51 H27        6.5469   -2.1320   -0.4621 H         1 RES1    0.0000
     52 C20        2.7395    1.6878    7.1238 C.2       1 RES1    0.0000
     53 C21        2.7343    1.6433    8.6281 C.3       1 RES1    0.0000
     54 H28        2.0656    2.2725    8.9704 H         1 RES1    0.0000
     55 H29        3.6198    1.8916    8.9651 H         1 RES1    0.0000
     56 H30        2.5134    0.7371    8.9280 H         1 RES1    0.0000
     57 C22        6.9986   -0.7074   -4.1588 C.3       1 RES1    0.0000
     58 H31        7.2047   -1.6710   -3.9904 H         1 RES1    0.0000
     59 C23        8.2875    0.0900   -3.9003 C.3       1 RES1    0.0000
     60 H32        8.9427   -0.1118   -4.6012 H         1 RES1    0.0000
     61 H33        8.6557   -0.1593   -3.0273 H         1 RES1    0.0000
     62 H34        8.0853    1.0487   -3.9072 H         1 RES1    0.0000
     63 C24        6.5790   -0.5768   -5.6349 C.3       1 RES1    0.0000
     64 H35        5.6706   -0.9547   -5.7448 H         1 RES1    0.0000
     65 H36        6.5379    0.3829   -5.8741 H         1 RES1    0.0000
     66 C25        7.5315   -1.2871   -6.5994 C.3       1 RES1    0.0000
     67 H37        8.4061   -0.8241   -6.5804 H         1 RES1    0.0000
     68 H38        7.6750   -2.2131   -6.2813 H         1 RES1    0.0000
     69 C26        7.0360   -1.3346   -8.0348 C.3       1 RES1    0.0000
     70 H39        6.2218   -1.8965   -8.0693 H         1 RES1    0.0000
     71 H40        6.7776   -0.4185   -8.3083 H         1 RES1    0.0000
     72 C27        8.0345   -1.8718   -9.0349 C.3       1 RES1    0.0000
     73 H41        8.8286   -1.2644   -9.0129 H         1 RES1    0.0000
     74 C28        7.4623   -1.8085  -10.4498 C.3       1 RES1    0.0000
     75 H42        8.1172   -2.1696  -11.0825 H         1 RES1    0.0000
     76 H43        7.2630   -0.8775  -10.6806 H         1 RES1    0.0000
     77 H44        6.6386   -2.3388  -10.4930 H         1 RES1    0.0000
     78 C29        8.5222   -3.2252   -8.7468 C.3       1 RES1    0.0000
     79 H45        9.0243   -3.2193   -7.9065 H         1 RES1    0.0000
     80 H46        9.1058   -3.5240   -9.4750 H         1 RES1    0.0000
     81 H47        7.7597   -3.8366   -8.6677 H         1 RES1    0.0000
     82 O5        14.1257   -0.1161  -25.3594 O.2       2 RES2    0.0000
     83 N2        15.0400    0.6381  -25.0570 N.pl3     2 RES2    0.0000
     84 C30       15.8113    0.2958  -23.8394 C.2       2 RES2    0.0000
     85 C31       17.1037   -0.0148  -23.9587 C.2       2 RES2    0.0000
     86 O6        15.3209    1.6615  -25.6692 O.2       2 RES2    0.0000
     87 C32       17.8414    0.0317  -25.2737 C.3       2 RES2    0.0000
     88 H48       18.4532    0.8103  -25.2790 H         2 RES2    0.0000
     89 H49       17.1900    0.1504  -26.0102 H         2 RES2    0.0000
     90 O7        19.4189   -1.0578  -26.7304 O.3       2 RES2    0.0000
     91 O8        17.6418   -1.6781  -27.9657 O.2       2 RES2    0.0000
     92 C33       18.6418   -1.2367  -25.5118 C.3       2 RES2    0.0000
     93 H50       18.0227   -2.0153  -25.6154 H         2 RES2    0.0000
     94 C34       19.5993   -1.4929  -24.3733 C.3       2 RES2    0.0000
     95 H51       20.2343   -0.7380  -24.2912 H         2 RES2    0.0000
     96 H52       20.1185   -2.3180  -24.5479 H         2 RES2    0.0000
     97 C35       18.8010   -1.6443  -23.0799 C.3       2 RES2    0.0000
     98 H53       19.4343   -1.8006  -22.3349 H         2 RES2    0.0000
     99 H54       18.2282   -2.4476  -23.1564 H         2 RES2    0.0000
    100 C36       17.9057   -0.4333  -22.7184 C.3       2 RES2    0.0000
    101 C37       16.9362   -0.8508  -21.5705 C.3       2 RES2    0.0000
    102 H55       16.4967   -1.7007  -21.8622 H         2 RES2    0.0000
    103 C38       17.6639   -1.1654  -20.2523 C.3       2 RES2    0.0000
    104 H56       18.2805   -1.9252  -20.4035 H         2 RES2    0.0000
    105 H57       18.2112   -0.3809  -19.9963 H         2 RES2    0.0000
    106 C39       16.7259   -1.5147  -19.0858 C.3       2 RES2    0.0000
    107 H58       16.2619   -2.3665  -19.2846 H         2 RES2    0.0000
    108 H59       17.2618   -1.6443  -18.2631 H         2 RES2    0.0000
    109 C40       15.6888   -0.4215  -18.8436 C.3       2 RES2    0.0000
    110 C41       14.4901   -0.7727  -17.9141 C.3       2 RES2    0.0000
    111 H60       14.2022   -1.7007  -18.1498 H         2 RES2    0.0000
    112 C42       13.3618    0.1900  -18.4003 C.3       2 RES2    0.0000
    113 H61       12.4908   -0.2790  -18.4118 H         2 RES2    0.0000
    114 H62       13.2916    0.9705  -17.7957 H         2 RES2    0.0000
    115 C43       13.7440    0.6490  -19.8249 C.3       2 RES2    0.0000
    116 H63       12.9944    0.5075  -20.4566 H         2 RES2    0.0000
    117 H64       13.9979    1.6057  -19.8334 H         2 RES2    0.0000
    118 C44       14.9322   -0.2345  -20.1807 C.3       2 RES2    0.0000
    119 H65       14.5545   -1.1308  -20.4141 H         2 RES2    0.0000
    120 C45       15.8072    0.1751  -21.3536 C.3       2 RES2    0.0000
    121 H66       16.2164    1.0645  -21.1523 H         2 RES2    0.0000
    122 C46       14.9622    0.2978  -22.6221 C.3       2 RES2    0.0000
    123 H67       14.3250   -0.4581  -22.6660 H         2 RES2    0.0000
    124 H68       14.4396    1.1377  -22.5881 H         2 RES2    0.0000
    125 C47       18.7891    0.7697  -22.3153 C.3       2 RES2    0.0000
    126 H69       19.2573    1.1100  -23.1050 H         2 RES2    0.0000
    127 H70       19.4447    0.4838  -21.6445 H         2 RES2    0.0000
    128 H71       18.2244    1.4781  -21.9401 H         2 RES2    0.0000
    129 C48       16.3592    0.8775  -18.3679 C.3       2 RES2    0.0000
    130 H72       16.8929    0.6955  -17.5656 H         2 RES2    0.0000
    131 H73       15.6698    1.5434  -18.1569 H         2 RES2    0.0000
    132 H74       16.9412    1.2238  -19.0757 H         2 RES2    0.0000
    133 C49       18.7709   -1.2881  -27.8932 C.2       2 RES2    0.0000
    134 C50       19.6632   -0.9923  -29.0685 C.3       2 RES2    0.0000
    135 H75       19.1961   -1.2208  -29.8997 H         2 RES2    0.0000
    136 H76       20.4834   -1.5236  -28.9986 H         2 RES2    0.0000
    137 H77       19.8907   -0.0386  -29.0747 H         2 RES2    0.0000
    138 C51       14.7063   -0.7469  -16.3950 C.3       2 RES2    0.0000
    139 H78       15.0624    0.1573  -16.1581 H         2 RES2    0.0000
    140 C52       15.7340   -1.7818  -15.9363 C.3       2 RES2    0.0000
    141 H79       15.8384   -1.7293  -14.9631 H         2 RES2    0.0000
    142 H80       16.5945   -1.5997  -16.3670 H         2 RES2    0.0000
    143 H81       15.4280   -2.6781  -16.1847 H         2 RES2    0.0000
    144 C53       13.3989   -0.9379  -15.6367 C.3       2 RES2    0.0000
    145 H82       13.0464   -1.8411  -15.8359 H         2 RES2    0.0000
    146 H83       12.7390   -0.2790  -15.9687 H         2 RES2    0.0000
    147 C54       13.5264   -0.7835  -14.1201 C.3       2 RES2    0.0000
    148 H84       14.0928   -1.5166  -13.7717 H         2 RES2    0.0000
    149 H85       13.9862    0.0712  -13.9239 H         2 RES2    0.0000
    150 C55       12.2155   -0.8033  -13.3988 C.3       2 RES2    0.0000
    151 H86       11.7243   -1.6215  -13.6601 H         2 RES2    0.0000
    152 H87       11.6810   -0.0257  -13.6973 H         2 RES2    0.0000
    153 C56       12.3209   -0.7657  -11.8827 C.3       2 RES2    0.0000
    154 H88       12.9049   -1.5255  -11.5977 H         2 RES2    0.0000
    155 C57       12.9588    0.5263  -11.3815 C.3       2 RES2    0.0000
    156 H89       13.8796    0.5867  -11.7145 H         2 RES2    0.0000
    157 H90       12.9646    0.5293  -10.4009 H         2 RES2    0.0000
    158 H91       12.4435    1.2931  -11.7074 H         2 RES2    0.0000
    159 C58       10.9527   -0.9735  -11.2618 C.3       2 RES2    0.0000
    160 H92       10.3532   -0.2513  -11.5428 H         2 RES2    0.0000
    161 H93       11.0342   -0.9705  -10.2858 H         2 RES2    0.0000
    162 H94       10.5881   -1.8342  -11.5569 H         2 RES2    0.0000
@<TRIPOS>BOND
     1    1    2 2
     2    2    3 1
     3    3    4 2
     4    4    7 1
     5    5    2 2
     6    6   11 1
     7    7    8 1
     8    9    7 1
     9   10   52 2
    10   11    7 1
    11   12   11 1
    12   13   11 1
    13   14   13 1
    14   15   13 1
    15   16   13 1
    16   17   16 1
    17   18   16 1
    18   19    4 1
    19   20   19 1
    20   21   20 1
    21   22   20 1
    22   23   22 1
    23   24   22 1
    24   25   22 1
    25   26   25 1
    26   27   25 1
    27   28   25 1
    28   29   28 1
    29   30   29 1
    30   31   29 1
    31   32   31 1
    32   33   31 1
    33   34   31 1
    34   35   34 1
    35   36   34 1
    36   37   28 1
    37   38   37 1
    38   39   20 1
    39   40   39 1
    40   41    3 1
    41   42   41 1
    42   43   41 1
    43   44   19 1
    44   45   44 1
    45   46   44 1
    46   47   44 1
    47   48   28 1
    48   49   48 1
    49   50   48 1
    50   51   48 1
    51   52    6 1
    52   53   52 1
    53   54   53 1
    54   55   53 1
    55   56   53 1
    56   57   29 1
    57   58   57 1
    58   59   57 1
    59   60   59 1
    60   61   59 1
    61   62   59 1
    62   63   57 1
    63   64   63 1
    64   65   63 1
    65   66   63 1
    66   67   66 1
    67   68   66 1
    68   69   66 1
    69   70   69 1
    70   71   69 1
    71   72   69 1
    72   73   72 1
    73   74   72 1
    74   75   74 1
    75   76   74 1
    76   77   74 1
    77   78   72 1
    78   79   78 1
    79   80   78 1
    80   81   78 1
    81   82   83 2
    82   83   84 1
    83   84   85 2
    84   85   87 1
    85   86   83 2
    86   87   88 1
    87   89   87 1
    88   90   92 1
    89   91  133 2
    90   92   87 1
    91   93   92 1
    92   94   92 1
    93   95   94 1
    94   96   94 1
    95   97   94 1
    96   98   97 1
    97   99   97 1
    98  100   85 1
    99  101  100 1
   100  102  101 1
   101  103  101 1
   102  104  103 1
   103  105  103 1
   104  106  103 1
   105  107  106 1
   106  108  106 1
   107  109  106 1
   108  110  109 1
   109  111  110 1
   110  112  110 1
   111  113  112 1
   112  114  112 1
   113  115  112 1
   114  116  115 1
   115  117  115 1
   116  118  109 1
   117  119  118 1
   118  120  101 1
   119  121  120 1
   120  122   84 1
   121  123  122 1
   122  124  122 1
   123  125  100 1
   124  126  125 1
   125  127  125 1
   126  128  125 1
   127  129  109 1
   128  130  129 1
   129  131  129 1
   130  132  129 1
   131  133   90 1
   132  134  133 1
   133  135  134 1
   134  136  134 1
   135  137  134 1
   136  138  110 1
   137  139  138 1
   138  140  138 1
   139  141  140 1
   140  142  140 1
   141  143  140 1
   142  144  138 1
   143  145  144 1
   144  146  144 1
   145  147  144 1
   146  148  147 1
   147  149  147 1
   148  150  147 1
   149  151  150 1
   150  152  150 1
   151  153  150 1
   152  154  153 1
   153  155  153 1
   154  156  155 1
   155  157  155 1
   156  158  155 1
   157  159  153 1
   158  160  159 1
   159  161  159 1
   160  162  159 1
   161   16   19 1
   162   34   37 1
   163   37   39 1
   164   39   41 1
   165   97  100 1
   166  115  118 1
   167  118  120 1
   168  120  122 1
@<TRIPOS>SUBSTRUCTURE
     1 RES1 1
     2 RES2 82

@<TRIPOS>CRYSIN
  15.7729    9.8933   17.8070  90.0000  96.1760  90.0000   4 1

