# MOL2 file generated by ConQuest
# Please check atom types

@<TRIPOS>MOLECULE
QIYYOO
    51    53     1
SMALL
NO_CHARGES
****
Generated from CSD

@<TRIPOS>ATOM
      1 N1         6.1835    0.8772   15.9959 N.2       1 RES1    0.0000
      2 N2         2.6087    1.0914   12.7380 N.2       1 RES1    0.0000
      3 O1        -1.5344    5.0254    8.7458 O.2       1 RES1    0.0000
      4 O2         9.8913    4.5820   20.4895 O.2       1 RES1    0.0000
      5 C1         3.5404    0.3184   13.4597 C.ar      1 RES1    0.0000
      6 C2         4.4678    0.9863   14.2693 C.ar      1 RES1    0.0000
      7 O3        -0.3067    4.5772    7.0545 O.2       1 RES1    0.0000
      8 N3        -0.5693    4.5080    8.2428 N.pl3     1 RES1    0.0000
      9 O4        11.3309    5.0246   18.9449 O.2       1 RES1    0.0000
     10 C3         4.3666   -1.7720   14.2532 C.ar      1 RES1    0.0000
     11 H1         4.3410   -2.7018   14.2372 H         1 RES1    0.0000
     12 C4         5.3299    0.2444   15.0567 C.ar      1 RES1    0.0000
     13 N4        10.3095    4.4952   19.3519 N.pl3     1 RES1    0.0000
     14 C5         9.0769    3.0441   16.1660 C.ar      1 RES1    0.0000
     15 H2         9.2950    3.0433   15.2632 H         1 RES1    0.0000
     16 C6         5.3049   -1.1638   15.0665 C.ar      1 RES1    0.0000
     17 C7         8.3844    3.0910   18.8437 C.ar      1 RES1    0.0000
     18 H3         8.1521    3.1245   19.7446 H         1 RES1    0.0000
     19 C8         3.4701   -1.0898   13.4680 C.ar      1 RES1    0.0000
     20 C9         7.9642    2.3348   16.5991 C.ar      1 RES1    0.0000
     21 C10        9.4920    3.7605   18.3701 C.ar      1 RES1    0.0000
     22 C11        4.4702    2.5067   14.3257 C.3       1 RES1    0.0000
     23 H4         3.8131    2.8506   13.7174 H         1 RES1    0.0000
     24 H5         5.3384    2.8347   14.0793 H         1 RES1    0.0000
     25 H6         4.2621    2.7933   15.2189 H         1 RES1    0.0000
     26 C12        7.1441    1.5881   15.6328 C.2       1 RES1    0.0000
     27 H7         7.3474    1.6462   14.7261 H         1 RES1    0.0000
     28 C13        7.6250    2.3650   17.9370 C.ar      1 RES1    0.0000
     29 H8         6.8801    1.8946   18.2335 H         1 RES1    0.0000
     30 C14        0.0518    3.6483   10.4642 C.ar      1 RES1    0.0000
     31 H9        -0.6816    4.0916   10.8261 H         1 RES1    0.0000
     32 C15        6.2048   -1.9734   15.9293 C.3       1 RES1    0.0000
     33 H10        6.7864   -1.3899   16.4220 H         1 RES1    0.0000
     34 H11        6.7304   -2.5609   15.3806 H         1 RES1    0.0000
     35 H12        5.6786   -2.4924   16.5433 H         1 RES1    0.0000
     36 C16        0.8850    2.8769   11.2612 C.ar      1 RES1    0.0000
     37 H13        0.7128    2.8100   12.1717 H         1 RES1    0.0000
     38 C17        1.9568    2.2114   10.7260 C.ar      1 RES1    0.0000
     39 C18        2.8254    1.3748   11.5576 C.2       1 RES1    0.0000
     40 H14        3.5970    1.0325   11.1668 H         1 RES1    0.0000
     41 C19        9.8651    3.7493   17.0515 C.ar      1 RES1    0.0000
     42 H15       10.6249    4.2031   16.7628 H         1 RES1    0.0000
     43 C20        0.3390    3.7390    9.1283 C.ar      1 RES1    0.0000
     44 C21        1.4051    3.0942    8.5623 C.ar      1 RES1    0.0000
     45 H16        1.5739    3.1603    7.6499 H         1 RES1    0.0000
     46 C22        2.4101   -1.8365   12.7184 C.3       1 RES1    0.0000
     47 H17        1.8717   -1.2156   12.2217 H         1 RES1    0.0000
     48 H18        1.8556   -2.3157   13.3401 H         1 RES1    0.0000
     49 H19        2.8224   -2.4566   12.1139 H         1 RES1    0.0000
     50 C23        2.2114    2.3531    9.3708 C.ar      1 RES1    0.0000
     51 H20        2.9549    1.9304    9.0032 H         1 RES1    0.0000
@<TRIPOS>BOND
     1    1   12 1
     2    2    5 1
     3    3    8 2
     4    4   13 2
     5    5    6 ar
     6    6   12 ar
     7    7    8 2
     8    8   43 1
     9    9   13 2
    10   10   11 1
    11   12   16 ar
    12   13   21 1
    13   14   15 1
    14   16   10 ar
    15   17   18 1
    16   19    5 ar
    17   20   14 ar
    18   21   17 ar
    19   22    6 1
    20   23   22 1
    21   24   22 1
    22   25   22 1
    23   26    1 2
    24   27   26 1
    25   28   17 ar
    26   29   28 1
    27   30   31 1
    28   32   16 1
    29   33   32 1
    30   34   32 1
    31   35   32 1
    32   36   30 ar
    33   37   36 1
    34   38   36 ar
    35   39    2 2
    36   40   39 1
    37   41   14 ar
    38   42   41 1
    39   43   30 ar
    40   44   43 ar
    41   45   44 1
    42   46   19 1
    43   47   46 1
    44   48   46 1
    45   49   46 1
    46   50   38 ar
    47   51   50 1
    48   10   19 ar
    49   20   26 1
    50   20   28 ar
    51   21   41 ar
    52   38   39 1
    53   44   50 ar
@<TRIPOS>SUBSTRUCTURE
     1 RES1 1

@<TRIPOS>CRYSIN
  13.5010    7.9604   20.3340  90.0000 108.7940  90.0000  14 1

