# MOL2 file generated by ConQuest
# Please check atom types

@<TRIPOS>MOLECULE
QIZMER
   116   118     1
SMALL
NO_CHARGES
****
Generated from CSD

@<TRIPOS>ATOM
      1 C1         2.9838    0.6595    9.0156 C.ar      1 RES1    0.0000
      2 C2         3.2975    0.7551    7.6509 C.ar      1 RES1    0.0000
      3 C3         4.3178    1.6194    7.2216 C.ar      1 RES1    0.0000
      4 C4         4.9817    2.4659    8.1076 C.ar      1 RES1    0.0000
      5 C5         4.6221    2.4097    9.4614 C.ar      1 RES1    0.0000
      6 C6         3.6503    1.5068    9.8834 C.ar      1 RES1    0.0000
      7 C7         1.9658   -0.2354    9.6824 C.2       1 RES1    0.0000
      8 O1         1.7799   -0.1573   10.8918 O.2       1 RES1    0.0000
      9 N1         1.3051   -1.1302    8.8859 N.am      1 RES1    0.0000
     10 C8         0.3242   -2.0551    9.2951 C.ar      1 RES1    0.0000
     11 C9        -0.2455   -2.8523    8.2867 C.ar      1 RES1    0.0000
     12 C10       -1.2096   -3.8154    8.5954 C.ar      1 RES1    0.0000
     13 C11       -1.6334   -3.9810    9.9144 C.ar      1 RES1    0.0000
     14 C12       -1.1074   -3.1705   10.9356 C.ar      1 RES1    0.0000
     15 C13       -0.1225   -2.2233   10.5995 C.ar      1 RES1    0.0000
     16 C14       -1.5476   -3.1231   12.3807 C.2       1 RES1    0.0000
     17 O2        -1.1510   -2.2282   13.1224 O.2       1 RES1    0.0000
     18 N2        -2.4127   -4.0910   12.7881 N.am      1 RES1    0.0000
     19 C15       -3.0387   -4.2298   14.0505 C.ar      1 RES1    0.0000
     20 C16       -3.8293   -5.3815   14.2039 C.ar      1 RES1    0.0000
     21 C17       -4.5410   -5.5987   15.3822 C.ar      1 RES1    0.0000
     22 C18       -4.4386   -4.6746   16.4144 C.ar      1 RES1    0.0000
     23 C19       -3.6455   -3.5445   16.2792 C.ar      1 RES1    0.0000
     24 C20       -2.9408   -3.3240   15.0973 C.ar      1 RES1    0.0000
     25 O3        -3.8406   -6.2162   13.1169 O.3       1 RES1    0.0000
     26 C21       -4.6193   -7.4192   13.2156 C.3       1 RES1    0.0000
     27 O4        -2.5592   -4.9344   10.2634 O.3       1 RES1    0.0000
     28 C22       -3.2105   -5.6712    9.2184 C.3       1 RES1    0.0000
     29 O5         0.2239   -2.6267    7.0225 O.3       1 RES1    0.0000
     30 C23       -0.3376   -3.4083    5.9556 C.3       1 RES1    0.0000
     31 N3         5.2276    3.2606   10.4680 N.pl3     1 RES1    0.0000
     32 O6         4.8903    3.0889   11.6481 O.2       1 RES1    0.0000
     33 O7         6.0088    4.1309   10.1483 O.2       1 RES1    0.0000
     34 O8         5.9381    3.3322    7.7149 O.3       1 RES1    0.0000
     35 C24        6.4225    3.2996    6.3539 C.3       1 RES1    0.0000
     36 C25        7.4141    4.4369    6.2315 C.3       1 RES1    0.0000
     37 C26        8.1025    4.4474    4.8741 C.3       1 RES1    0.0000
     38 C27        9.0075    5.6624    4.6750 C.3       1 RES1    0.0000
     39 C28        9.6555    5.7267    3.3030 C.3       1 RES1    0.0000
     40 C29       10.4755    6.9811    3.0783 C.3       1 RES1    0.0000
     41 C30       11.0865    7.0962    1.6844 C.3       1 RES1    0.0000
     42 C31       11.9625    8.3429    1.4980 C.3       1 RES1    0.0000
     43 C32       12.6931    8.3828    0.1681 C.3       1 RES1    0.0000
     44 C33       13.5292    9.6470   -0.0274 C.3       1 RES1    0.0000
     45 O9         2.5970    0.0012    6.7740 O.3       1 RES1    0.0000
     46 C34        2.6813    0.3454    5.3546 C.3       1 RES1    0.0000
     47 C35        1.5115   -0.2862    4.6439 C.3       1 RES1    0.0000
     48 C36        1.5454   -0.0275    3.2135 C.3       1 RES1    0.0000
     49 C37        1.4432    1.4737    2.7604 C.3       1 RES1    0.0000
     50 C38        1.7872    1.7185    1.3117 C.3       1 RES1    0.0000
     51 C39        3.2066    1.5812    0.8769 C.3       1 RES1    0.0000
     52 C40        3.4571    1.8062   -0.6029 C.3       1 RES1    0.0000
     53 C41        2.8526    0.7414   -1.4396 C.3       1 RES1    0.0000
     54 C42        3.1641    0.8343   -2.9321 C.3       1 RES1    0.0000
     55 C43        2.5258   -0.3065   -3.7688 C.3       1 RES1    0.0000
     56 H1         4.5559    1.6274    6.3228 H         1 RES1    0.0000
     57 H2         3.4389    1.4724   10.7877 H         1 RES1    0.0000
     58 H3         1.5095   -1.1277    8.0510 H         1 RES1    0.0000
     59 H4        -1.5695   -4.3458    7.9213 H         1 RES1    0.0000
     60 H5         0.2401   -1.6930   11.2718 H         1 RES1    0.0000
     61 H6        -2.6024   -4.6952   12.2071 H         1 RES1    0.0000
     62 H7        -5.0779   -6.3518   15.4754 H         1 RES1    0.0000
     63 H8        -4.9070   -4.8156   17.2055 H         1 RES1    0.0000
     64 H9        -3.5839   -2.9347   16.9789 H         1 RES1    0.0000
     65 H10       -2.4040   -2.5690   15.0114 H         1 RES1    0.0000
     66 H11       -4.5535   -7.9111   12.3953 H         1 RES1    0.0000
     67 H12       -5.5372   -7.1929   13.3818 H         1 RES1    0.0000
     68 H13       -4.2866   -7.9554   13.9390 H         1 RES1    0.0000
     69 H14       -3.8328   -6.2908    9.6057 H         1 RES1    0.0000
     70 H15       -2.5545   -6.1517    8.7087 H         1 RES1    0.0000
     71 H16       -3.6808   -5.0620    8.6429 H         1 RES1    0.0000
     72 H17        0.0801   -3.1629    5.1262 H         1 RES1    0.0000
     73 H18       -1.2816   -3.2431    5.8990 H         1 RES1    0.0000
     74 H19       -0.1855   -4.3407    6.1255 H         1 RES1    0.0000
     75 H20        5.6902    3.4185    5.7291 H         1 RES1    0.0000
     76 H21        6.8553    2.4511    6.1693 H         1 RES1    0.0000
     77 H22        8.0828    4.3549    6.9293 H         1 RES1    0.0000
     78 H23        6.9502    5.2793    6.3612 H         1 RES1    0.0000
     79 H24        7.4277    4.4377    4.1781 H         1 RES1    0.0000
     80 H25        8.6337    3.6401    4.7827 H         1 RES1    0.0000
     81 H26        8.4836    6.4674    4.8101 H         1 RES1    0.0000
     82 H27        9.7039    5.6482    5.3491 H         1 RES1    0.0000
     83 H28       10.2292    4.9532    3.1915 H         1 RES1    0.0000
     84 H29        8.9616    5.6796    2.6270 H         1 RES1    0.0000
     85 H30       11.1902    7.0055    3.7323 H         1 RES1    0.0000
     86 H31        9.9093    7.7536    3.2336 H         1 RES1    0.0000
     87 H32       10.3720    7.1157    1.0285 H         1 RES1    0.0000
     88 H33       11.6239    6.3074    1.5108 H         1 RES1    0.0000
     89 H34       11.4030    9.1314    1.5711 H         1 RES1    0.0000
     90 H35       12.6148    8.3766    2.2160 H         1 RES1    0.0000
     91 H36       12.0437    8.3211   -0.5481 H         1 RES1    0.0000
     92 H37       13.2759    7.6088    0.1078 H         1 RES1    0.0000
     93 H38       13.9629    9.6136   -0.8824 H         1 RES1    0.0000
     94 H39       14.1909    9.7042    0.6650 H         1 RES1    0.0000
     95 H40       12.9571   10.4168    0.0128 H         1 RES1    0.0000
     96 H41        3.5139    0.0164    4.9819 H         1 RES1    0.0000
     97 H42        2.6568    1.3088    5.2449 H         1 RES1    0.0000
     98 H43        1.5242   -1.2447    4.7955 H         1 RES1    0.0000
     99 H44        0.6857    0.0645    5.0129 H         1 RES1    0.0000
    100 H45        0.8165   -0.5164    2.8024 H         1 RES1    0.0000
    101 H46        2.3725   -0.3913    2.8609 H         1 RES1    0.0000
    102 H47        0.5375    1.7826    2.9193 H         1 RES1    0.0000
    103 H48        2.0356    2.0057    3.3139 H         1 RES1    0.0000
    104 H49        1.2560    1.1097    0.7764 H         1 RES1    0.0000
    105 H50        1.4995    2.6183    1.0906 H         1 RES1    0.0000
    106 H51        3.5123    0.6896    1.1071 H         1 RES1    0.0000
    107 H52        3.7440    2.2140    1.3793 H         1 RES1    0.0000
    108 H53        3.0869    2.6647   -0.8623 H         1 RES1    0.0000
    109 H54        4.4137    1.8325   -0.7636 H         1 RES1    0.0000
    110 H55        1.8894    0.7686   -1.3245 H         1 RES1    0.0000
    111 H56        3.1602   -0.1187   -1.1144 H         1 RES1    0.0000
    112 H57        4.1261    0.8127   -3.0527 H         1 RES1    0.0000
    113 H58        2.8440    1.6861   -3.2664 H         1 RES1    0.0000
    114 H59        2.7548   -0.1906   -4.6932 H         1 RES1    0.0000
    115 H60        1.5716   -0.2805   -3.6684 H         1 RES1    0.0000
    116 H61        2.8572   -1.1532   -3.4601 H         1 RES1    0.0000
@<TRIPOS>BOND
     1    1    2 ar
     2    2    3 ar
     3    3    4 ar
     4    4    5 ar
     5    5    6 ar
     6    6    1 ar
     7    7    1 1
     8    8    7 2
     9    9    7 1
    10   10    9 1
    11   11   10 ar
    12   12   11 ar
    13   13   12 ar
    14   14   13 ar
    15   15   10 ar
    16   16   14 1
    17   17   16 2
    18   18   16 1
    19   19   18 1
    20   20   19 ar
    21   21   20 ar
    22   22   21 ar
    23   23   22 ar
    24   24   19 ar
    25   25   20 1
    26   26   25 1
    27   27   13 1
    28   28   27 1
    29   29   11 1
    30   30   29 1
    31   31    5 1
    32   32   31 2
    33   33   31 2
    34   34    4 1
    35   35   34 1
    36   36   35 1
    37   37   36 1
    38   38   37 1
    39   39   38 1
    40   40   39 1
    41   41   40 1
    42   42   41 1
    43   43   42 1
    44   44   43 1
    45   45    2 1
    46   46   45 1
    47   47   46 1
    48   48   47 1
    49   49   48 1
    50   50   49 1
    51   51   50 1
    52   52   51 1
    53   53   52 1
    54   54   53 1
    55   55   54 1
    56   56    3 1
    57   57    6 1
    58   58    9 1
    59   59   12 1
    60   60   15 1
    61   61   18 1
    62   62   21 1
    63   63   22 1
    64   64   23 1
    65   65   24 1
    66   66   26 1
    67   67   26 1
    68   68   26 1
    69   69   28 1
    70   70   28 1
    71   71   28 1
    72   72   30 1
    73   73   30 1
    74   74   30 1
    75   75   35 1
    76   76   35 1
    77   77   36 1
    78   78   36 1
    79   79   37 1
    80   80   37 1
    81   81   38 1
    82   82   38 1
    83   83   39 1
    84   84   39 1
    85   85   40 1
    86   86   40 1
    87   87   41 1
    88   88   41 1
    89   89   42 1
    90   90   42 1
    91   91   43 1
    92   92   43 1
    93   93   44 1
    94   94   44 1
    95   95   44 1
    96   96   46 1
    97   97   46 1
    98   98   47 1
    99   99   47 1
   100  100   48 1
   101  101   48 1
   102  102   49 1
   103  103   49 1
   104  104   50 1
   105  105   50 1
   106  106   51 1
   107  107   51 1
   108  108   52 1
   109  109   52 1
   110  110   53 1
   111  111   53 1
   112  112   54 1
   113  113   54 1
   114  114   55 1
   115  115   55 1
   116  116   55 1
   117   14   15 ar
   118   23   24 ar
@<TRIPOS>SUBSTRUCTURE
     1 RES1 1

@<TRIPOS>CRYSIN
   9.2931   12.4808   18.4099  84.1100  84.9700  78.7100   2 1

