# MOL2 file generated by ConQuest
# Please check atom types

@<TRIPOS>MOLECULE
QIZMAN
    42    41     2
SMALL
NO_CHARGES
****
Generated from CSD

@<TRIPOS>ATOM
      1 C1         2.4289    5.4293    4.7992 C.ar      1 RES1    0.0000
      2 C2         2.0926    6.7993    4.9241 C.ar      1 RES1    0.0000
      3 C3         1.6948    7.5456    3.8126 C.ar      1 RES1    0.0000
      4 C4         1.6250    6.9756    2.5384 C.ar      1 RES1    0.0000
      5 C5         1.9614    5.6072    2.4135 C.ar      1 RES1    0.0000
      6 C6         2.3464    4.8720    3.5312 C.ar      1 RES1    0.0000
      7 C7         2.8857    4.4909    5.8892 C.2       1 RES1    0.0000
      8 N1         2.9329    5.0020    7.1445 N.am      1 RES1    0.0000
      9 C8         3.3109    4.3586    8.3418 C.ar      1 RES1    0.0000
     10 C9         3.2821    5.1838    9.4961 C.ar      1 RES1    0.0000
     11 C10        3.6494    4.6723   10.7363 C.ar      1 RES1    0.0000
     12 C11        4.0326    3.3365   10.8448 C.ar      1 RES1    0.0000
     13 C12        4.0578    2.5223    9.7194 C.ar      1 RES1    0.0000
     14 C13        3.6993    3.0249    8.4603 C.ar      1 RES1    0.0000
     15 O1         3.1742    3.3250    5.6179 O.2       1 RES1    0.0000
     16 O2         2.1752    7.3480    6.1630 O.3       1 RES1    0.0000
     17 C14        1.8722    8.7401    6.3509 C.3       1 RES1    0.0000
     18 O3         1.2582    7.6744    1.4496 O.3       1 RES1    0.0000
     19 C15        0.9268    9.0706    1.6149 C.3       1 RES1    0.0000
     20 N2         1.9457    4.8978    1.1354 N.pl3     1 RES1    0.0000
     21 O4         1.4261    5.4171    0.1463 O.2       1 RES1    0.0000
     22 O5         1.6970    5.5289    0.1299 Du        2 SUP2    0.0000
     23 O6         2.4585    3.7851    1.1140 O.2       1 RES1    0.0000
     24 O7         2.1657    3.6837    1.1064 Du        2 SUP2    0.0000
     25 O8         2.8735    6.4669    9.2627 O.3       1 RES1    0.0000
     26 C16        2.8346    7.3585   10.3881 C.3       1 RES1    0.0000
     27 H1         1.4723    8.4412    3.9223 H         1 RES1    0.0000
     28 H2         2.5561    3.9717    3.4227 H         1 RES1    0.0000
     29 H3         2.7018    5.8267    7.2202 H         1 RES1    0.0000
     30 H4         3.6406    5.2187   11.4895 H         1 RES1    0.0000
     31 H5         4.2715    2.9889   11.6737 H         1 RES1    0.0000
     32 H6         4.3155    1.6327    9.8014 H         1 RES1    0.0000
     33 H7         3.7213    2.4741    7.7122 H         1 RES1    0.0000
     34 H8         1.9788    8.9681    7.2782 H         1 RES1    0.0000
     35 H9         0.9663    8.9095    6.0822 H         1 RES1    0.0000
     36 H10        2.4687    9.2717    5.8198 H         1 RES1    0.0000
     37 H11        0.6854    9.4455    0.7658 H         1 RES1    0.0000
     38 H12        1.6865    9.5402    1.9681 H         1 RES1    0.0000
     39 H13        0.1894    9.1545    2.2242 H         1 RES1    0.0000
     40 H14        2.5355    8.2243   10.0992 H         1 RES1    0.0000
     41 H15        3.7131    7.4335   10.7678 H         1 RES1    0.0000
     42 H16        2.2287    7.0150   11.0479 H         1 RES1    0.0000
@<TRIPOS>BOND
     1    1    2 ar
     2    2    3 ar
     3    3    4 ar
     4    4    5 ar
     5    5    6 ar
     6    6    1 ar
     7    7    1 1
     8    8    7 1
     9    9    8 1
    10   10    9 ar
    11   11   10 ar
    12   12   11 ar
    13   13   12 ar
    14   14    9 ar
    15   15    7 2
    16   16    2 1
    17   17   16 1
    18   18    4 1
    19   19   18 1
    20   20    5 1
    21   21   20 2
    22   23   20 2
    23   25   10 1
    24   26   25 1
    25   27    3 1
    26   28    6 1
    27   29    8 1
    28   30   11 1
    29   31   12 1
    30   32   13 1
    31   33   14 1
    32   34   17 1
    33   35   17 1
    34   36   17 1
    35   37   19 1
    36   38   19 1
    37   39   19 1
    38   40   26 1
    39   41   26 1
    40   42   26 1
    41   13   14 ar
@<TRIPOS>SUBSTRUCTURE
     1 RES1 1
     2 SUP2 22

@<TRIPOS>CRYSIN
   7.1657    8.3342   13.2149  73.4300  84.6900  88.5000   2 1

