# MOL2 file generated by ConQuest
# Please check atom types

@<TRIPOS>MOLECULE
QOCLUR
    29    31     1
SMALL
NO_CHARGES
****
Generated from CSD

@<TRIPOS>ATOM
      1 N1         4.0321    6.1774    8.2321 N.3       1 RES1    0.0000
      2 C1         5.3523    5.4814    8.3239 C.3       1 RES1    0.0000
      3 H1         5.5038    4.9033    7.5222 H         1 RES1    0.0000
      4 C2         5.2563    4.6263    9.6041 C.3       1 RES1    0.0000
      5 H2         5.1741    3.6646    9.3850 H         1 RES1    0.0000
      6 H3         6.0488    4.7602   10.1824 H         1 RES1    0.0000
      7 C3         3.9800    5.1506   10.2823 C.3       1 RES1    0.0000
      8 H4         4.1287    5.2754   11.2636 H         1 RES1    0.0000
      9 C4         2.7522    4.2908   10.0313 C.3       1 RES1    0.0000
     10 H5         2.9435    3.3521   10.2836 H         1 RES1    0.0000
     11 H6         1.9982    4.6125   10.5870 H         1 RES1    0.0000
     12 C5         2.3766    4.3607    8.5699 C.ar      1 RES1    0.0000
     13 C6         1.4059    3.5238    8.0168 C.ar      1 RES1    0.0000
     14 H7         0.9364    2.9159    8.5758 H         1 RES1    0.0000
     15 C7         1.1167    3.5684    6.6538 C.ar      1 RES1    0.0000
     16 H8         0.4456    3.0029    6.2913 H         1 RES1    0.0000
     17 C8         1.8083    4.4397    5.8273 C.ar      1 RES1    0.0000
     18 H9         1.6274    4.4545    4.8948 H         1 RES1    0.0000
     19 C9         2.7632    5.2880    6.3609 C.ar      1 RES1    0.0000
     20 H10        3.2348    5.8890    5.7973 H         1 RES1    0.0000
     21 C10        3.0292    5.2571    7.7221 C.ar      1 RES1    0.0000
     22 O1         3.7421    6.4367    9.6307 O.3       1 RES1    0.0000
     23 C11        6.4210    6.5599    8.4180 C.2       1 RES1    0.0000
     24 O2         6.9605    6.9319    9.4270 O.2       1 RES1    0.0000
     25 O3         6.6712    7.0856    7.2048 O.3       1 RES1    0.0000
     26 C12        7.6453    8.1535    7.1859 C.3       1 RES1    0.0000
     27 H11        7.3155    8.9068    7.7192 H         1 RES1    0.0000
     28 H12        7.7913    8.4466    6.2624 H         1 RES1    0.0000
     29 H13        8.4905    7.8318    7.5629 H         1 RES1    0.0000
@<TRIPOS>BOND
     1    1    2 1
     2    2    3 1
     3    4    2 1
     4    5    4 1
     5    6    4 1
     6    7    4 1
     7    8    7 1
     8    9    7 1
     9   10    9 1
    10   11    9 1
    11   12    9 1
    12   13   12 ar
    13   14   13 1
    14   15   13 ar
    15   16   15 1
    16   17   15 ar
    17   18   17 1
    18   19   17 ar
    19   20   19 1
    20   21    1 1
    21   22    1 1
    22   23    2 1
    23   24   23 2
    24   25   23 1
    25   26   25 1
    26   27   26 1
    27   28   26 1
    28   29   26 1
    29    7   22 1
    30   12   21 ar
    31   19   21 ar
@<TRIPOS>SUBSTRUCTURE
     1 RES1 1

@<TRIPOS>CRYSIN
   6.8549   11.4483   13.1369  90.0000  90.0000  90.0000  19 1

