# MOL2 file generated by ConQuest
# Please check atom types

@<TRIPOS>MOLECULE
QOCMOM
    41    42     1
SMALL
NO_CHARGES
****
Generated from CSD

@<TRIPOS>ATOM
      1 O1         5.3373    8.2615    5.4311 O.3       1 RES1    0.0000
      2 O2         2.1556    2.9854   11.8689 O.2       1 RES1    0.0000
      3 O3         2.4550    5.0810   12.6536 O.3       1 RES1    0.0000
      4 O4         4.1010    2.7728    9.5191 O.2       1 RES1    0.0000
      5 O5         2.1883    3.3662    8.6918 O.2       1 RES1    0.0000
      6 N1         3.1229    3.5079    9.4705 N.pl3     1 RES1    0.0000
      7 C1         4.9087    7.6008    6.5403 C.ar      1 RES1    0.0000
      8 C2         4.2440    8.3825    7.4843 C.ar      1 RES1    0.0000
      9 H1         4.1198    9.3110    7.3292 H         1 RES1    0.0000
     10 C3         3.7671    7.8073    8.6437 C.ar      1 RES1    0.0000
     11 H2         3.3355    8.3507    9.2921 H         1 RES1    0.0000
     12 C4         3.9105    6.4275    8.8802 C.ar      1 RES1    0.0000
     13 C5         4.6090    5.6690    7.9330 C.ar      1 RES1    0.0000
     14 H3         4.7392    4.7413    8.0874 H         1 RES1    0.0000
     15 C6         5.1152    6.2399    6.7766 C.ar      1 RES1    0.0000
     16 H4         5.5973    5.7118    6.1520 H         1 RES1    0.0000
     17 C7         3.3673    5.8811   10.1157 C.2       1 RES1    0.0000
     18 H5         3.2215    6.5181   10.8057 H         1 RES1    0.0000
     19 C8         3.0406    4.6218   10.4324 C.2       1 RES1    0.0000
     20 C9         2.5028    4.1346   11.7192 C.2       1 RES1    0.0000
     21 C10        6.0278    7.5060    4.4313 C.3       1 RES1    0.0000
     22 H6         5.4282    6.8114    4.0595 H         1 RES1    0.0000
     23 H7         6.8135    7.0562    4.8315 H         1 RES1    0.0000
     24 C11        6.4739    8.4396    3.3368 C.ar      1 RES1    0.0000
     25 C12        6.2311    9.8092    3.3885 C.ar      1 RES1    0.0000
     26 H8         5.7549   10.1804    4.1216 H         1 RES1    0.0000
     27 C13        6.6865   10.6368    2.3646 C.ar      1 RES1    0.0000
     28 H9         6.5231   11.5717    2.4054 H         1 RES1    0.0000
     29 C14        7.3728   10.1091    1.2923 C.ar      1 RES1    0.0000
     30 H10        7.6745   10.6774    0.5927 H         1 RES1    0.0000
     31 C15        7.6219    8.7431    1.2381 C.ar      1 RES1    0.0000
     32 H11        8.0983    8.3771    0.5018 H         1 RES1    0.0000
     33 C16        7.1764    7.9115    2.2564 C.ar      1 RES1    0.0000
     34 H12        7.3513    6.9785    2.2165 H         1 RES1    0.0000
     35 C17        1.9172    4.6344   13.9382 C.3       1 RES1    0.0000
     36 H13        2.4262    3.8499   14.2656 H         1 RES1    0.0000
     37 H14        0.9684    4.3704   13.8355 H         1 RES1    0.0000
     38 C18        2.0335    5.7599   14.9065 C.3       1 RES1    0.0000
     39 H15        2.9690    6.0475   14.9631 H         1 RES1    0.0000
     40 H16        1.7297    5.4640   15.7901 H         1 RES1    0.0000
     41 H17        1.4794    6.5094   14.6047 H         1 RES1    0.0000
@<TRIPOS>BOND
     1    1    7 1
     2    2   20 2
     3    3   20 1
     4    4    6 2
     5    5    6 2
     6    6   19 1
     7    7    8 ar
     8    8    9 1
     9   10    8 ar
    10   11   10 1
    11   12   10 ar
    12   13   12 ar
    13   14   13 1
    14   15    7 ar
    15   16   15 1
    16   17   12 1
    17   18   17 1
    18   19   17 2
    19   20   19 1
    20   21    1 1
    21   22   21 1
    22   23   21 1
    23   24   21 1
    24   25   24 ar
    25   26   25 1
    26   27   25 ar
    27   28   27 1
    28   29   27 ar
    29   30   29 1
    30   31   29 ar
    31   32   31 1
    32   33   24 ar
    33   34   33 1
    34   35    3 1
    35   36   35 1
    36   37   35 1
    37   38   35 1
    38   39   38 1
    39   40   38 1
    40   41   38 1
    41   13   15 ar
    42   31   33 ar
@<TRIPOS>SUBSTRUCTURE
     1 RES1 1

@<TRIPOS>CRYSIN
   7.7957   14.6607   13.9398  90.0000  98.5610  90.0000 231 1

