# MOL2 file generated by ConQuest
# Please check atom types

@<TRIPOS>MOLECULE
QOCNIF02
   184   192     2
SMALL
NO_CHARGES
****
Generated from CSD

@<TRIPOS>ATOM
      1 N1        -6.3805    8.9172   13.0805 N.3       1 RES1    0.0000
      2 N2        -4.5287    6.4010   14.2084 N.3       1 RES1    0.0000
      3 C1        -7.8265   10.3770   14.5106 C.ar      1 RES1    0.0000
      4 C2        -6.7476   11.2027   14.7911 C.ar      1 RES1    0.0000
      5 H1        -5.9061   10.9900   14.4557 H         1 RES1    0.0000
      6 C3        -8.1464   12.6239   16.0743 C.ar      1 RES1    0.0000
      7 C4        -4.8309    1.6056   12.8457 C.ar      1 RES1    0.0000
      8 C5        -3.9446    7.5827   14.8567 C.3       1 RES1    0.0000
      9 H2        -4.0448    7.5023   15.8176 H         1 RES1    0.0000
     10 H3        -4.4273    8.3749   14.5718 H         1 RES1    0.0000
     11 C6        -7.7081    9.1497   13.6484 C.3       1 RES1    0.0000
     12 H4        -7.9556    8.3755   14.1786 H         1 RES1    0.0000
     13 H5        -8.3464    9.2221   12.9209 H         1 RES1    0.0000
     14 C7        -9.0547   10.6924   15.0765 C.ar      1 RES1    0.0000
     15 H6        -9.7826   10.1359   14.9176 H         1 RES1    0.0000
     16 C8        -6.2234    7.4878   12.7429 C.3       1 RES1    0.0000
     17 H7        -5.4955    7.4018   12.1080 H         1 RES1    0.0000
     18 H8        -7.0328    7.1878   12.2993 H         1 RES1    0.0000
     19 C9        -5.9498    6.5670   13.9074 C.3       1 RES1    0.0000
     20 H9        -6.3974    6.9172   14.6932 H         1 RES1    0.0000
     21 H10       -6.3328    5.6972   13.7140 H         1 RES1    0.0000
     22 N3        -4.9419    0.3333   12.1288 N.pl3     1 RES1    0.0000
     23 C10       -4.5439    3.9371   14.2818 C.ar      1 RES1    0.0000
     24 C11       -6.9090   12.3359   15.5616 C.ar      1 RES1    0.0000
     25 H11       -6.1871   12.8974   15.7305 H         1 RES1    0.0000
     26 C12       -4.3328    5.2113   15.0490 C.3       1 RES1    0.0000
     27 H12       -4.9538    5.2416   15.7938 H         1 RES1    0.0000
     28 H13       -3.4323    5.2205   15.4098 H         1 RES1    0.0000
     29 O1        -3.9777   -0.0488   11.4752 O.2       1 RES1    0.0000
     30 C13       -6.1766    9.7330   11.8763 C.3       1 RES1    0.0000
     31 H14       -6.5701   10.6093   12.0143 H         1 RES1    0.0000
     32 H15       -6.6318    9.3164   11.1275 H         1 RES1    0.0000
     33 C14       -3.7380    2.4055   12.6076 C.ar      1 RES1    0.0000
     34 H16       -3.1023    2.1686   11.9707 H         1 RES1    0.0000
     35 C15       -9.2239   11.8080   15.8655 C.ar      1 RES1    0.0000
     36 H17      -10.0488   12.0019   16.2465 H         1 RES1    0.0000
     37 C16       -5.6376    3.1163   14.4797 C.ar      1 RES1    0.0000
     38 H18       -6.2799    3.3523   15.1102 H         1 RES1    0.0000
     39 N4        -8.3174   13.8650   16.8484 N.pl3     1 RES1    0.0000
     40 C17       -3.6089    3.5619   13.3323 C.ar      1 RES1    0.0000
     41 H19       -2.8736    4.1102   13.1822 H         1 RES1    0.0000
     42 C18       -5.7925    1.9502   13.7547 C.ar      1 RES1    0.0000
     43 H20       -6.5378    1.4086   13.8830 H         1 RES1    0.0000
     44 O2        -5.9566   -0.3159   12.2345 O.2       1 RES1    0.0000
     45 O3        -7.4418   14.7134   16.7771 O.2       1 RES1    0.0000
     46 O4        -9.3386   14.0095   17.4792 O.2       1 RES1    0.0000
     47 N5         4.4221   -1.5803    8.0716 N.3       2 RES2    0.0000
     48 N6         3.1882    0.8339    6.3530 N.3       2 RES2    0.0000
     49 C19        4.3988    2.9088    5.6910 C.ar      2 RES2    0.0000
     50 C20        6.2322    4.1591    4.0543 C.ar      2 RES2    0.0000
     51 C21        2.7157    0.1361    7.5590 C.3       2 RES2    0.0000
     52 H21        2.2173   -0.6544    7.2991 H         2 RES2    0.0000
     53 H22        2.1185    0.7179    8.0540 H         2 RES2    0.0000
     54 C22        5.2307    2.1688    4.8658 C.ar      2 RES2    0.0000
     55 H23        5.1714    1.2407    4.8696 H         2 RES2    0.0000
     56 C23        3.6245   -2.6651    8.6623 C.3       2 RES2    0.0000
     57 H24        2.6911   -2.4008    8.6505 H         2 RES2    0.0000
     58 H25        3.8857   -2.7660    9.5914 H         2 RES2    0.0000
     59 C24        3.8747   -0.2701    8.4492 C.3       2 RES2    0.0000
     60 H26        4.5744    0.3989    8.3878 H         2 RES2    0.0000
     61 H27        3.5732   -0.3033    9.3710 H         2 RES2    0.0000
     62 C25        2.2826    0.6688    5.2131 C.3       2 RES2    0.0000
     63 H28        2.4661    1.3654    4.5634 H         2 RES2    0.0000
     64 H29        1.3694    0.7838    5.5189 H         2 RES2    0.0000
     65 C26        5.4319    4.9216    4.8572 C.ar      2 RES2    0.0000
     66 H30        5.5072    5.8481    4.8590 H         2 RES2    0.0000
     67 N7         7.2028    4.8230    3.1652 N.pl3     2 RES2    0.0000
     68 C27        6.7389   -0.8772    7.6187 C.ar      2 RES2    0.0000
     69 C28        8.3857    0.5768    5.9555 C.ar      2 RES2    0.0000
     70 C29        5.8229   -1.6840    8.4934 C.3       2 RES2    0.0000
     71 H31        6.0956   -2.6141    8.4670 H         2 RES2    0.0000
     72 H32        5.9039   -1.3751    9.4093 H         2 RES2    0.0000
     73 N8         9.2152    1.3889    5.0538 N.pl3     2 RES2    0.0000
     74 C30        6.1434    2.7885    4.0400 C.ar      2 RES2    0.0000
     75 H33        6.6911    2.2860    3.4813 H         2 RES2    0.0000
     76 O5         7.3224    6.0278    3.2316 O.2       2 RES2    0.0000
     77 C31        4.5081    4.2893    5.6669 C.ar      2 RES2    0.0000
     78 H34        3.9481    4.8011    6.2064 H         2 RES2    0.0000
     79 C32        7.6390    0.0351    8.1290 C.ar      2 RES2    0.0000
     80 H35        7.6862    0.1585    9.0503 H         2 RES2    0.0000
     81 C33        3.4218    2.2480    6.6335 C.3       2 RES2    0.0000
     82 H36        3.7568    2.3344    7.5393 H         2 RES2    0.0000
     83 H37        2.5756    2.7196    6.5865 H         2 RES2    0.0000
     84 C34        7.5311   -0.3486    5.4100 C.ar      2 RES2    0.0000
     85 H38        7.5128   -0.4914    4.4908 H         2 RES2    0.0000
     86 C35        8.4693    0.7701    7.3076 C.ar      2 RES2    0.0000
     87 H39        9.0716    1.3820    7.6647 H         2 RES2    0.0000
     88 O6         9.2060    1.1353    3.8655 O.2       2 RES2    0.0000
     89 C36        6.7069   -1.0570    6.2405 C.ar      2 RES2    0.0000
     90 H40        6.1121   -1.6722    5.8752 H         2 RES2    0.0000
     91 O7         7.8206    4.1370    2.3872 O.2       2 RES2    0.0000
     92 O8         9.8911    2.2686    5.5487 O.2       2 RES2    0.0000
     93 N1A       -2.2639    8.5608   13.3130 N.3       1 RES1    0.0000
     94 N2A       -4.1157   11.0770   12.1851 N.3       1 RES1    0.0000
     95 C1A       -0.8179    7.1010   11.8829 C.ar      1 RES1    0.0000
     96 C2A       -1.8968    6.2753   11.6023 C.ar      1 RES1    0.0000
     97 H1A       -2.7383    6.4880   11.9378 H         1 RES1    0.0000
     98 C3A       -0.4980    4.8541   10.3192 C.ar      1 RES1    0.0000
     99 C4A       -3.8135   15.8724   13.5478 C.ar      1 RES1    0.0000
    100 C5A       -4.6998    9.8953   11.5367 C.3       1 RES1    0.0000
    101 H2A       -4.5996    9.9758   10.5759 H         1 RES1    0.0000
    102 H3A       -4.2171    9.1031   11.8216 H         1 RES1    0.0000
    103 C6A       -0.9363    8.3283   12.7450 C.3       1 RES1    0.0000
    104 H4A       -0.6888    9.1026   12.2149 H         1 RES1    0.0000
    105 H5A       -0.2980    8.2559   13.4725 H         1 RES1    0.0000
    106 C7A        0.4104    6.7856   11.3170 C.ar      1 RES1    0.0000
    107 H6A        1.1382    7.3421   11.4759 H         1 RES1    0.0000
    108 C8A       -2.4210    9.9902   13.6506 C.3       1 RES1    0.0000
    109 H7A       -3.1489   10.0762   14.2855 H         1 RES1    0.0000
    110 H8A       -1.6116   10.2902   14.0941 H         1 RES1    0.0000
    111 C9A       -2.6946   10.9110   12.4861 C.3       1 RES1    0.0000
    112 H9A       -2.2470   10.5608   11.7002 H         1 RES1    0.0000
    113 H10A      -2.3116   11.7808   12.6794 H         1 RES1    0.0000
    114 N3A       -3.7025   17.1447   14.2646 N.pl3     1 RES1    0.0000
    115 C10A      -4.1005   13.5409   12.1117 C.ar      1 RES1    0.0000
    116 C11A      -1.7354    5.1421   10.8319 C.ar      1 RES1    0.0000
    117 H11A      -2.4573    4.5806   10.6630 H         1 RES1    0.0000
    118 C12A      -4.3116   12.2667   11.3444 C.3       1 RES1    0.0000
    119 H12A      -3.6906   12.2364   10.5996 H         1 RES1    0.0000
    120 H13A      -5.2121   12.2575   10.9836 H         1 RES1    0.0000
    121 O1A       -4.6667   17.5268   14.9182 O.2       1 RES1    0.0000
    122 C13A      -2.4678    7.7450   14.5172 C.3       1 RES1    0.0000
    123 H14A      -2.0743    6.8687   14.3791 H         1 RES1    0.0000
    124 H15A      -2.0126    8.1616   15.2660 H         1 RES1    0.0000
    125 C14A      -4.9064   15.0725   13.7858 C.ar      1 RES1    0.0000
    126 H16A      -5.5421   15.3094   14.4227 H         1 RES1    0.0000
    127 C15A       0.5795    5.6701   10.5279 C.ar      1 RES1    0.0000
    128 H17A       1.4044    5.4761   10.1470 H         1 RES1    0.0000
    129 C16A      -3.0068   14.3617   11.9137 C.ar      1 RES1    0.0000
    130 H18A      -2.3645   14.1257   11.2832 H         1 RES1    0.0000
    131 N4A       -0.3270    3.6130    9.5451 N.pl3     1 RES1    0.0000
    132 C17A      -5.0355   13.9161   13.0612 C.ar      1 RES1    0.0000
    133 H19A      -5.7708   13.3678   13.2112 H         1 RES1    0.0000
    134 C18A      -2.8519   15.5279   12.6388 C.ar      1 RES1    0.0000
    135 H20A      -2.1066   16.0694   12.5105 H         1 RES1    0.0000
    136 O2A       -2.6878   17.7939   14.1589 O.2       1 RES1    0.0000
    137 O3A       -1.2026    2.7646    9.6163 O.2       1 RES1    0.0000
    138 O4A        0.6942    3.4685    8.9143 O.2       1 RES1    0.0000
    139 N5A        1.6069   -1.7633    5.1251 N.3       2 RES2    0.0000
    140 N6A        2.8408   -4.1775    6.8437 N.3       2 RES2    0.0000
    141 C19A       1.6302   -6.2524    7.5058 C.ar      2 RES2    0.0000
    142 C20A      -0.2033   -7.5027    9.1424 C.ar      2 RES2    0.0000
    143 C21A       3.3133   -3.4797    5.6378 C.3       2 RES2    0.0000
    144 H21A       3.8116   -2.6892    5.8976 H         2 RES2    0.0000
    145 H22A       3.9105   -4.0615    5.1428 H         2 RES2    0.0000
    146 C22A       0.7982   -5.5124    8.3310 C.ar      2 RES2    0.0000
    147 H23A       0.8576   -4.5843    8.3271 H         2 RES2    0.0000
    148 C23A       2.4045   -0.6785    4.5344 C.3       2 RES2    0.0000
    149 H24A       3.3378   -0.9428    4.5463 H         2 RES2    0.0000
    150 H25A       2.1432   -0.5776    3.6053 H         2 RES2    0.0000
    151 C24A       2.1543   -3.0735    4.7475 C.3       2 RES2    0.0000
    152 H26A       1.4545   -3.7425    4.8089 H         2 RES2    0.0000
    153 H27A       2.4557   -3.0403    3.8257 H         2 RES2    0.0000
    154 C25A       3.7463   -4.0124    7.9836 C.3       2 RES2    0.0000
    155 H28A       3.5628   -4.7090    8.6333 H         2 RES2    0.0000
    156 H29A       4.6596   -4.1274    7.6779 H         2 RES2    0.0000
    157 C26A       0.5971   -8.2652    8.3395 C.ar      2 RES2    0.0000
    158 H30A       0.5218   -9.1917    8.3377 H         2 RES2    0.0000
    159 N7A       -1.1739   -8.1666   10.0315 N.pl3     2 RES2    0.0000
    160 C27A      -0.7099   -2.4664    5.5780 C.ar      2 RES2    0.0000
    161 C28A      -2.3568   -3.9204    7.2412 C.ar      2 RES2    0.0000
    162 C29A       0.2060   -1.6596    4.7033 C.3       2 RES2    0.0000
    163 H31A      -0.0666   -0.7295    4.7297 H         2 RES2    0.0000
    164 H32A       0.1250   -1.9685    3.7875 H         2 RES2    0.0000
    165 N8A       -3.1862   -4.7325    8.1429 N.pl3     2 RES2    0.0000
    166 C30A      -0.1144   -6.1320    9.1567 C.ar      2 RES2    0.0000
    167 H33A      -0.6621   -5.6296    9.7154 H         2 RES2    0.0000
    168 O5A       -1.2934   -9.3714    9.9651 O.2       2 RES2    0.0000
    169 C31A       1.5209   -7.6329    7.5298 C.ar      2 RES2    0.0000
    170 H34A       2.0808   -8.1447    6.9903 H         2 RES2    0.0000
    171 C32A      -1.6100   -3.3787    5.0677 C.ar      2 RES2    0.0000
    172 H35A      -1.6572   -3.5021    4.1464 H         2 RES2    0.0000
    173 C33A       2.6072   -5.5916    6.5633 C.3       2 RES2    0.0000
    174 H36A       2.2721   -5.6780    5.6574 H         2 RES2    0.0000
    175 H37A       3.4534   -6.0632    6.6102 H         2 RES2    0.0000
    176 C34A      -1.5022   -2.9950    7.7867 C.ar      2 RES2    0.0000
    177 H38A      -1.4838   -2.8522    8.7059 H         2 RES2    0.0000
    178 C35A      -2.4404   -4.1137    5.8892 C.ar      2 RES2    0.0000
    179 H39A      -3.0426   -4.7256    5.5321 H         2 RES2    0.0000
    180 O6A       -3.1771   -4.4789    9.3313 O.2       2 RES2    0.0000
    181 C36A      -0.6779   -2.2866    6.9563 C.ar      2 RES2    0.0000
    182 H40A      -0.0832   -1.6714    7.3215 H         2 RES2    0.0000
    183 O7A       -1.7917   -7.4806   10.8096 O.2       2 RES2    0.0000
    184 O8A       -3.8621   -5.6122    7.6480 O.2       2 RES2    0.0000
@<TRIPOS>BOND
     1    1   11 1
     2    2    8 1
     3    3    4 ar
     4    4    5 1
     5    6   24 ar
     6    7   22 1
     7    8    9 1
     8   10    8 1
     9   11    3 1
    10   12   11 1
    11   13   11 1
    12   14    3 ar
    13   15   14 1
    14   16    1 1
    15   17   16 1
    16   18   16 1
    17   19    2 1
    18   20   19 1
    19   21   19 1
    20   22   29 2
    21   23   26 1
    22   24    4 ar
    23   25   24 1
    24   26    2 1
    25   27   26 1
    26   28   26 1
    27   30    1 1
    28   31   30 1
    29   32   30 1
    30   33    7 ar
    31   34   33 1
    32   35    6 ar
    33   36   35 1
    34   37   23 ar
    35   38   37 1
    36   39    6 1
    37   40   23 ar
    38   41   40 1
    39   42    7 ar
    40   43   42 1
    41   44   22 2
    42   45   39 2
    43   46   39 2
    44   47   56 1
    45   48   51 1
    46   49   54 ar
    47   50   65 ar
    48   51   52 1
    49   53   51 1
    50   54   55 1
    51   56   57 1
    52   58   56 1
    53   59   47 1
    54   60   59 1
    55   61   59 1
    56   62   48 1
    57   63   62 1
    58   64   62 1
    59   65   66 1
    60   67   50 1
    61   68   70 1
    62   69   73 1
    63   70   47 1
    64   71   70 1
    65   72   70 1
    66   73   88 2
    67   74   50 ar
    68   75   74 1
    69   76   67 2
    70   77   49 ar
    71   78   77 1
    72   79   68 ar
    73   80   79 1
    74   81   48 1
    75   82   81 1
    76   83   81 1
    77   84   69 ar
    78   85   84 1
    79   86   69 ar
    80   87   86 1
    81   89   68 ar
    82   90   89 1
    83   91   67 2
    84   92   73 2
    85   93  103 1
    86   94  100 1
    87   95   96 ar
    88   96   97 1
    89   98  116 ar
    90   99  114 1
    91  100   30 1
    92  101  100 1
    93  102  100 1
    94  103   95 1
    95  104  103 1
    96  105  103 1
    97  106   95 ar
    98  107  106 1
    99  108   93 1
   100  109  108 1
   101  110  108 1
   102  111   94 1
   103  112  111 1
   104  113  111 1
   105  114  121 2
   106  115  118 1
   107  116   96 ar
   108  117  116 1
   109  118   94 1
   110  119  118 1
   111  120  118 1
   112  122    8 1
   113  123  122 1
   114  124  122 1
   115  125   99 ar
   116  126  125 1
   117  127   98 ar
   118  128  127 1
   119  129  115 ar
   120  130  129 1
   121  131   98 1
   122  132  115 ar
   123  133  132 1
   124  134   99 ar
   125  135  134 1
   126  136  114 2
   127  137  131 2
   128  138  131 2
   129  139  148 1
   130  140  143 1
   131  141  146 ar
   132  142  157 ar
   133  143  144 1
   134  145  143 1
   135  146  147 1
   136  148   62 1
   137  149  148 1
   138  150  148 1
   139  151  139 1
   140  152  151 1
   141  153  151 1
   142  154   56 1
   143  155  154 1
   144  156  154 1
   145  157  158 1
   146  159  142 1
   147  160  162 1
   148  161  165 1
   149  162  139 1
   150  163  162 1
   151  164  162 1
   152  165  180 2
   153  166  142 ar
   154  167  166 1
   155  168  159 2
   156  169  141 ar
   157  170  169 1
   158  171  160 ar
   159  172  171 1
   160  173  140 1
   161  174  173 1
   162  175  173 1
   163  176  161 ar
   164  177  176 1
   165  178  161 ar
   166  179  178 1
   167  181  160 ar
   168  182  181 1
   169  183  159 2
   170  184  165 2
   171   14   35 ar
   172   16   19 1
   173   33   40 ar
   174   37   42 ar
   175   49   81 1
   176   51   59 1
   177   54   74 ar
   178   65   77 ar
   179   79   86 ar
   180   84   89 ar
   181   93  122 1
   182  106  127 ar
   183  108  111 1
   184  125  132 ar
   185  129  134 ar
   186  140  154 1
   187  141  173 1
   188  143  151 1
   189  146  166 ar
   190  157  169 ar
   191  171  178 ar
   192  176  181 ar
@<TRIPOS>SUBSTRUCTURE
     1 RES1 1
     2 RES2 47

@<TRIPOS>CRYSIN
  11.0721   13.0067   14.5178  94.8960 110.3270 111.7280   2 1

