# MOL2 file generated by ConQuest
# Please check atom types

@<TRIPOS>MOLECULE
QOCNIF
    92    96     1
SMALL
NO_CHARGES
****
Generated from CSD

@<TRIPOS>ATOM
      1 O1         1.3650    2.8376    1.5195 O.2       1 RES1    0.0000
      2 O2        -0.1398    2.9498   -0.0146 O.2       1 RES1    0.0000
      3 O3         5.4890    4.6033    2.4241 O.2       1 RES1    0.0000
      4 O4         6.9514    4.8461    3.9611 O.2       1 RES1    0.0000
      5 N1         2.0036    9.8227    0.4553 N.3       1 RES1    0.0000
      6 N2         4.3805   11.4121    1.9990 N.3       1 RES1    0.0000
      7 N3         0.6512    3.4651    0.7568 N.pl3     1 RES1    0.0000
      8 N4         6.1266    5.3018    3.2004 N.pl3     1 RES1    0.0000
      9 C1         2.1512   11.1853    0.9767 C.3       1 RES1    0.0000
     10 C2         2.9468   11.2220    2.2607 C.3       1 RES1    0.0000
     11 C3         1.8862    9.7769   -0.9971 C.3       1 RES1    0.0000
     12 C4         4.6697   12.8320    1.7558 C.3       1 RES1    0.0000
     13 C5         0.8395    9.1723    1.0623 C.3       1 RES1    0.0000
     14 C6         5.1955   10.9311    3.1070 C.3       1 RES1    0.0000
     15 C7         0.8166    7.6813    0.9018 C.ar      1 RES1    0.0000
     16 C8         1.7339    6.8958    1.5749 C.ar      1 RES1    0.0000
     17 C9         1.7000    5.5331    1.5282 C.ar      1 RES1    0.0000
     18 C10        0.7314    4.9308    0.7665 C.ar      1 RES1    0.0000
     19 C11       -0.1907    5.6614    0.0778 C.ar      1 RES1    0.0000
     20 C12       -0.1306    7.0355    0.1391 C.ar      1 RES1    0.0000
     21 C13        5.4343    9.4448    3.1099 C.ar      1 RES1    0.0000
     22 C14        4.9317    8.6134    2.1294 C.ar      1 RES1    0.0000
     23 C15        5.1408    7.2760    2.1615 C.ar      1 RES1    0.0000
     24 C16        5.8983    6.7378    3.1858 C.ar      1 RES1    0.0000
     25 C17        6.4424    7.5393    4.1556 C.ar      1 RES1    0.0000
     26 C18        6.2030    8.8768    4.1284 C.ar      1 RES1    0.0000
     27 H1         1.3397   11.5005    1.0144 H         1 RES1    0.0000
     28 H2         2.6346   11.8401    0.3123 H         1 RES1    0.0000
     29 H3         2.6835   11.9466    2.8777 H         1 RES1    0.0000
     30 H4         2.8316   10.3444    2.7720 H         1 RES1    0.0000
     31 H5         1.6187    8.8803   -1.2781 H         1 RES1    0.0000
     32 H6         1.1945   10.3778   -1.3634 H         1 RES1    0.0000
     33 H7         3.9722   13.1183    1.3562 H         1 RES1    0.0000
     34 H8         4.6641   13.3935    2.6525 H         1 RES1    0.0000
     35 H9         0.8922    9.4730    2.0395 H         1 RES1    0.0000
     36 H10       -0.0349    9.5930    0.6992 H         1 RES1    0.0000
     37 H11        4.7155   11.2575    4.0093 H         1 RES1    0.0000
     38 H12        5.9646   11.4542    3.1391 H         1 RES1    0.0000
     39 H13        2.3657    7.2457    2.1029 H         1 RES1    0.0000
     40 H14        2.4160    5.0110    2.0592 H         1 RES1    0.0000
     41 H15       -0.9420    5.2913   -0.4791 H         1 RES1    0.0000
     42 H16       -0.7033    7.5375   -0.3415 H         1 RES1    0.0000
     43 H17        4.3425    8.9554    1.5276 H         1 RES1    0.0000
     44 H18        4.8034    6.6320    1.5151 H         1 RES1    0.0000
     45 H19        6.9016    7.1722    4.8555 H         1 RES1    0.0000
     46 H20        6.5476    9.4810    4.7674 H         1 RES1    0.0000
     47 C3B        5.9478   13.1251    0.9971 C.3       1 RES1    0.0000
     48 N1B        5.8304   13.0793   -0.4553 N.3       1 RES1    0.0000
     49 C1B        5.6828   11.7167   -0.9767 C.3       1 RES1    0.0000
     50 C2B        4.8872   11.6800   -2.2607 C.3       1 RES1    0.0000
     51 N2B        3.4535   11.4899   -1.9990 N.3       1 RES1    0.0000
     52 C4B        3.1643   10.0700   -1.7558 C.3       1 RES1    0.0000
     53 H7B        3.8618    9.7837   -1.3562 H         1 RES1    0.0000
     54 H8B        3.1699    9.5085   -2.6525 H         1 RES1    0.0000
     55 C6B        2.6385   11.9709   -3.1070 C.3       1 RES1    0.0000
     56 C13B       2.3997   13.4572   -3.1099 C.ar      1 RES1    0.0000
     57 C14B       2.9023   14.2886   -2.1294 C.ar      1 RES1    0.0000
     58 C15B       2.6932   15.6260   -2.1615 C.ar      1 RES1    0.0000
     59 C16B       1.9357   16.1642   -3.1858 C.ar      1 RES1    0.0000
     60 N4B        1.7074   17.6002   -3.2004 N.pl3     1 RES1    0.0000
     61 O3B        2.3450   18.2987   -2.4241 O.2       1 RES1    0.0000
     62 O4B        0.8826   18.0559   -3.9611 O.2       1 RES1    0.0000
     63 C17B       1.3916   15.3627   -4.1556 C.ar      1 RES1    0.0000
     64 C18B       1.6310   14.0252   -4.1284 C.ar      1 RES1    0.0000
     65 H20B       1.2864   13.4210   -4.7674 H         1 RES1    0.0000
     66 H19B       0.9324   15.7298   -4.8555 H         1 RES1    0.0000
     67 H18B       3.0306   16.2700   -1.5151 H         1 RES1    0.0000
     68 H17B       3.4915   13.9466   -1.5276 H         1 RES1    0.0000
     69 H11B       3.1185   11.6445   -4.0093 H         1 RES1    0.0000
     70 H12B       1.8694   11.4478   -3.1391 H         1 RES1    0.0000
     71 H3B        5.1505   10.9554   -2.8777 H         1 RES1    0.0000
     72 H4B        5.0024   12.5576   -2.7720 H         1 RES1    0.0000
     73 H1B        6.4943   11.4015   -1.0144 H         1 RES1    0.0000
     74 H2B        5.1994   11.0619   -0.3123 H         1 RES1    0.0000
     75 C5B        6.9945   13.7297   -1.0623 C.3       1 RES1    0.0000
     76 C7B        7.0174   15.2207   -0.9018 C.ar      1 RES1    0.0000
     77 C8B        6.1001   16.0062   -1.5749 C.ar      1 RES1    0.0000
     78 C9B        6.1340   17.3689   -1.5282 C.ar      1 RES1    0.0000
     79 C10B       7.1026   17.9712   -0.7665 C.ar      1 RES1    0.0000
     80 N3B        7.1828   19.4369   -0.7568 N.pl3     1 RES1    0.0000
     81 O1B        6.4690   20.0644   -1.5195 O.2       1 RES1    0.0000
     82 O2B        7.9738   19.9522    0.0146 O.2       1 RES1    0.0000
     83 C11B       8.0247   17.2406   -0.0778 C.ar      1 RES1    0.0000
     84 C12B       7.9646   15.8665   -0.1391 C.ar      1 RES1    0.0000
     85 H16B       8.5373   15.3645    0.3415 H         1 RES1    0.0000
     86 H15B       8.7760   17.6107    0.4791 H         1 RES1    0.0000
     87 H14B       5.4180   17.8910   -2.0592 H         1 RES1    0.0000
     88 H13B       5.4683   15.6563   -2.1029 H         1 RES1    0.0000
     89 H9B        6.9418   13.4290   -2.0395 H         1 RES1    0.0000
     90 H10B       7.8689   13.3090   -0.6992 H         1 RES1    0.0000
     91 H5B        6.2153   14.0217    1.2781 H         1 RES1    0.0000
     92 H6B        6.6395   12.5242    1.3634 H         1 RES1    0.0000
@<TRIPOS>BOND
     1    1    7 2
     2    2    7 2
     3    3    8 2
     4    4    8 2
     5    5    9 1
     6    6   10 1
     7    7   18 1
     8    8   24 1
     9    9   10 1
    10   10   29 1
    11   11    5 1
    12   12    6 1
    13   13    5 1
    14   14    6 1
    15   15   13 1
    16   16   15 ar
    17   17   16 ar
    18   18   17 ar
    19   19   18 ar
    20   20   15 ar
    21   21   14 1
    22   22   21 ar
    23   23   22 ar
    24   24   23 ar
    25   25   24 ar
    26   26   21 ar
    27   27    9 1
    28   28    9 1
    29   30   10 1
    30   31   11 1
    31   32   11 1
    32   33   12 1
    33   34   12 1
    34   35   13 1
    35   36   13 1
    36   37   14 1
    37   38   14 1
    38   39   16 1
    39   40   17 1
    40   41   19 1
    41   42   20 1
    42   43   22 1
    43   44   23 1
    44   45   25 1
    45   46   26 1
    46   47   12 1
    47   48   47 1
    48   49   48 1
    49   50   49 1
    50   51   50 1
    51   52   11 1
    52   53   52 1
    53   54   52 1
    54   55   51 1
    55   56   55 1
    56   57   56 ar
    57   58   57 ar
    58   59   58 ar
    59   60   59 1
    60   61   60 2
    61   62   60 2
    62   63   59 ar
    63   64   56 ar
    64   65   64 1
    65   66   63 1
    66   67   58 1
    67   68   57 1
    68   69   55 1
    69   70   55 1
    70   71   50 1
    71   72   50 1
    72   73   49 1
    73   74   49 1
    74   75   48 1
    75   76   75 1
    76   77   76 ar
    77   78   77 ar
    78   79   78 ar
    79   80   79 1
    80   81   80 2
    81   82   80 2
    82   83   79 ar
    83   84   76 ar
    84   85   84 1
    85   86   83 1
    86   87   78 1
    87   88   77 1
    88   89   75 1
    89   90   75 1
    90   91   47 1
    91   92   47 1
    92   19   20 ar
    93   25   26 ar
    94   51   52 1
    95   63   64 ar
    96   83   84 ar
@<TRIPOS>SUBSTRUCTURE
     1 RES1 1

@<TRIPOS>CRYSIN
   7.8340   22.9020   10.1470  90.0000 106.5300  90.0000 231 1

