# MOL2 file generated by ConQuest
# Please check atom types

@<TRIPOS>MOLECULE
QOFGIC
    29    31     1
SMALL
USER_CHARGES
****
Generated from CSD

@<TRIPOS>ATOM
      1 C1         7.6506    5.2378    4.1736 C.ar      1 RES1    0.0000
      2 C2         7.3488    5.7518    5.4176 C.ar      1 RES1    0.0000
      3 H1         7.1500    5.1919    6.1336 H         1 RES1    0.0000
      4 C3         7.3519    7.1466    5.5674 C.ar      1 RES1    0.0000
      5 C4         7.6419    7.9757    4.4957 C.ar      1 RES1    0.0000
      6 H2         7.6375    8.9000    4.5982 H         1 RES1    0.0000
      7 C5         7.9405    7.4002    3.2600 C.ar      1 RES1    0.0000
      8 O1         8.2206    8.2518    2.2069 O.3       1 RES1    0.0000
      9 C6         9.5502    8.1081    1.7858 C.ar      1 RES1    0.0000
     10 C7        10.4464    9.1370    2.0387 C.ar      1 RES1    0.0000
     11 H3        10.1726    9.9034    2.4879 H         1 RES1    0.0000
     12 C8        11.7605    9.0013    1.6088 C.ar      1 RES1    0.0000
     13 H4        12.3728    9.6820    1.7718 H         1 RES1    0.0000
     14 C9        12.1633    7.8567    0.9386 C.ar      1 RES1    0.0000
     15 H5        13.0443    7.7749    0.6520 H         1 RES1    0.0000
     16 C10       11.2585    6.8283    0.6907 C.ar      1 RES1    0.0000
     17 H6        11.5317    6.0649    0.2344 H         1 RES1    0.0000
     18 C11        9.9400    6.9487    1.1302 C.ar      1 RES1    0.0000
     19 N1         9.0163    5.9103    0.8644 N.am      1 RES1    0.0000
     20 H7         9.1108    5.3858    0.2023 H         1 RES1    0.0000
     21 C12        8.0849    5.4097    1.6978 C.2       1 RES1    0.0000
     22 C13        7.9394    6.0199    3.0591 C.ar      1 RES1    0.0000
     23 N2         7.7265    3.7637    4.0790 N.pl3     1 RES1    0.0000
     24 O2         8.7244    3.2825    3.5547 O.2       1 RES1    0.0000
     25 O3         6.8074    3.1097    4.5584 O.2       1 RES1    0.0000
     26 O4         7.3583    4.4614    1.3765 O.2       1 RES1    0.0000
     27 N3         7.0358    7.5911    6.8727 N.2       1 RES1    0.0000
     28 N4         7.0666    8.8226    7.0728 N.1       1 RES1    1.0000
     29 N5         7.0452    9.8960    7.4203 N.2       1 RES1   -1.0000
@<TRIPOS>BOND
     1    1    2 ar
     2    2    3 1
     3    4    2 ar
     4    5    4 ar
     5    6    5 1
     6    7    5 ar
     7    8    7 1
     8    9    8 1
     9   10    9 ar
    10   11   10 1
    11   12   10 ar
    12   13   12 1
    13   14   12 ar
    14   15   14 1
    15   16   14 ar
    16   17   16 1
    17   18    9 ar
    18   19   18 1
    19   20   19 1
    20   21   19 1
    21   22    1 ar
    22   23    1 1
    23   24   23 2
    24   25   23 2
    25   26   21 2
    26   27    4 1
    27   28   27 2
    28   29   28 2
    29    7   22 ar
    30   16   18 ar
    31   21   22 1
@<TRIPOS>SUBSTRUCTURE
     1 RES1 1

@<TRIPOS>CRYSIN
   7.0390    9.2063   10.8010  68.1300  81.2790  71.7960   2 1

