# MOL2 file generated by ConQuest
# Please check atom types

@<TRIPOS>MOLECULE
QOFHUP
    96   102     2
SMALL
NO_CHARGES
****
Generated from CSD

@<TRIPOS>ATOM
      1 O1         5.3639    5.3321    5.2257 O.3       1 RES1    0.0000
      2 N1         5.6426    4.9653    3.8185 N.3       1 RES1    0.0000
      3 C1         7.6336    3.8945    2.7274 C.3       1 RES1    0.0000
      4 C2         8.7242    4.9406    2.9887 C.3       1 RES1    0.0000
      5 H1         8.3210    5.8235    2.9839 H         1 RES1    0.0000
      6 H2         9.1019    4.7909    3.8693 H         1 RES1    0.0000
      7 C3         9.8465    4.9010    1.9504 C.3       1 RES1    0.0000
      8 H3         9.4913    5.1468    1.0823 H         1 RES1    0.0000
      9 H4        10.5293    5.5474    2.1899 H         1 RES1    0.0000
     10 C4        10.4740    3.5079    1.8685 C.3       1 RES1    0.0000
     11 H5        10.9268    3.3097    2.7019 H         1 RES1    0.0000
     12 H6        11.1355    3.4964    1.1580 H         1 RES1    0.0000
     13 C5         9.4199    2.4351    1.5959 C.3       1 RES1    0.0000
     14 H7         9.8368    1.5603    1.6275 H         1 RES1    0.0000
     15 H8         9.0554    2.5608    0.7058 H         1 RES1    0.0000
     16 C6         8.2811    2.4940    2.6263 C.3       1 RES1    0.0000
     17 H9         8.6280    2.2426    3.4960 H         1 RES1    0.0000
     18 H10        7.5997    1.8489    2.3805 H         1 RES1    0.0000
     19 C7         6.5916    3.8158    3.8879 C.3       1 RES1    0.0000
     20 H11        6.0766    2.9897    3.7764 H         1 RES1    0.0000
     21 C8         4.3360    4.5423    3.3030 C.3       1 RES1    0.0000
     22 H12        3.6606    5.1868    3.5669 H         1 RES1    0.0000
     23 H13        4.0994    3.6839    3.6882 H         1 RES1    0.0000
     24 C9         4.3598    4.4270    1.7830 C.3       1 RES1    0.0000
     25 H14        3.5243    4.0273    1.4951 H         1 RES1    0.0000
     26 H15        4.3961    5.3220    1.4116 H         1 RES1    0.0000
     27 C10        5.5018    3.6200    1.1888 C.3       1 RES1    0.0000
     28 H16        5.3506    3.5225    0.2363 H         1 RES1    0.0000
     29 H17        5.4917    2.7323    1.5802 H         1 RES1    0.0000
     30 C11        6.8920    4.2366    1.4056 C.3       1 RES1    0.0000
     31 H18        6.8010    5.2013    1.3565 H         1 RES1    0.0000
     32 H19        7.4574    3.9639    0.6664 H         1 RES1    0.0000
     33 C12        7.1387    3.8451    5.3352 C.3       1 RES1    0.0000
     34 H20        6.7832    3.1102    5.8592 H         1 RES1    0.0000
     35 H21        8.1073    3.8025    5.3456 H         1 RES1    0.0000
     36 C13        6.6388    5.1898    5.8599 C.3       1 RES1    0.0000
     37 H22        7.2401    5.9074    5.5693 H         1 RES1    0.0000
     38 C14        6.4603    5.2389    7.3629 C.ar      1 RES1    0.0000
     39 C15        7.5534    5.5739    8.1585 C.ar      1 RES1    0.0000
     40 H23        8.3706    5.7742    7.7607 H         1 RES1    0.0000
     41 C16        7.4326    5.6118    9.5379 C.ar      1 RES1    0.0000
     42 H24        8.1689    5.8294   10.0625 H         1 RES1    0.0000
     43 C17        6.2222    5.3278   10.1334 C.ar      1 RES1    0.0000
     44 H25        6.1401    5.3621   11.0598 H         1 RES1    0.0000
     45 C18        5.1290    4.9913    9.3551 C.ar      1 RES1    0.0000
     46 H26        4.3132    4.8014    9.7584 H         1 RES1    0.0000
     47 C19        5.2471    4.9383    7.9687 C.ar      1 RES1    0.0000
     48 H27        4.5136    4.7010    7.4488 H         1 RES1    0.0000
     49 O2         7.6769   -0.4109    5.2937 O.3       2 RES2    0.0000
     50 N2         7.2657   -0.7129    3.9106 N.3       2 RES2    0.0000
     51 C20        5.0369   -1.1649    2.9338 C.3       2 RES2    0.0000
     52 C21        4.4002    0.2070    3.2530 C.3       2 RES2    0.0000
     53 H28        4.0332    0.1849    4.1498 H         2 RES2    0.0000
     54 H29        5.0903    0.8887    3.2313 H         2 RES2    0.0000
     55 C22        3.2905    0.5881    2.2665 C.3       2 RES2    0.0000
     56 H30        2.9217    1.4521    2.5081 H         2 RES2    0.0000
     57 H31        3.6583    0.6546    1.3707 H         2 RES2    0.0000
     58 C23        2.1812   -0.4692    2.2907 C.3       2 RES2    0.0000
     59 H32        1.7730   -0.4898    3.1698 H         2 RES2    0.0000
     60 H33        1.4955   -0.2345    1.6464 H         2 RES2    0.0000
     61 C24        2.7406   -1.8537    1.9567 C.3       2 RES2    0.0000
     62 H34        3.0336   -1.8643    1.0319 H         2 RES2    0.0000
     63 H35        2.0376   -2.5144    2.0544 H         2 RES2    0.0000
     64 C25        3.9221   -2.2355    2.8651 C.3       2 RES2    0.0000
     65 H36        4.3058   -3.0658    2.5444 H         2 RES2    0.0000
     66 H37        3.5865   -2.3934    3.7606 H         2 RES2    0.0000
     67 C26        6.0458   -1.5826    4.0348 C.3       2 RES2    0.0000
     68 H38        6.3106   -2.5126    3.8772 H         2 RES2    0.0000
     69 C27        8.4096   -1.4529    3.3597 C.3       2 RES2    0.0000
     70 H39        8.4452   -2.3373    3.7559 H         2 RES2    0.0000
     71 H40        9.2330   -0.9895    3.5795 H         2 RES2    0.0000
     72 C28        8.2808   -1.5759    1.8368 C.3       2 RES2    0.0000
     73 H41        8.9678   -2.1837    1.5203 H         2 RES2    0.0000
     74 H42        8.4576   -0.7064    1.4431 H         2 RES2    0.0000
     75 C29        6.9224   -2.0734    1.3248 C.3       2 RES2    0.0000
     76 H43        6.7055   -2.9081    1.7677 H         2 RES2    0.0000
     77 H44        6.9913   -2.2521    0.3734 H         2 RES2    0.0000
     78 C30        5.7764   -1.0704    1.5625 C.3       2 RES2    0.0000
     79 H45        5.1207   -1.1879    0.8571 H         2 RES2    0.0000
     80 H46        6.1364   -0.1737    1.4746 H         2 RES2    0.0000
     81 C31        5.6094   -1.4411    5.5124 C.3       2 RES2    0.0000
     82 H47        4.6608   -1.2464    5.5819 H         2 RES2    0.0000
     83 H48        5.8063   -2.2465    6.0151 H         2 RES2    0.0000
     84 C32        6.4593   -0.2553    6.0009 C.3       2 RES2    0.0000
     85 H49        6.0310    0.5885    5.7441 H         2 RES2    0.0000
     86 C33        6.7952   -0.2322    7.4888 C.ar      2 RES2    0.0000
     87 C34        7.5621   -1.1937    8.1058 C.ar      2 RES2    0.0000
     88 H50        7.8414   -1.9308    7.6127 H         2 RES2    0.0000
     89 C35        7.9218   -1.0992    9.4008 C.ar      2 RES2    0.0000
     90 H51        8.4594   -1.7552    9.7821 H         2 RES2    0.0000
     91 C36        7.5033   -0.0569   10.1460 C.ar      2 RES2    0.0000
     92 H52        7.7499   -0.0166   11.0424 H         2 RES2    0.0000
     93 C37        6.7258    0.9431    9.6261 C.ar      2 RES2    0.0000
     94 H53        6.4439    1.6512   10.1602 H         2 RES2    0.0000
     95 C38        6.3544    0.8754    8.2350 C.ar      2 RES2    0.0000
     96 H54        5.8389    1.5427    7.8442 H         2 RES2    0.0000
@<TRIPOS>BOND
     1    1    2 1
     2    2   19 1
     3    3    4 1
     4    4    5 1
     5    6    4 1
     6    7    4 1
     7    8    7 1
     8    9    7 1
     9   10    7 1
    10   11   10 1
    11   12   10 1
    12   13   10 1
    13   14   13 1
    14   15   13 1
    15   16    3 1
    16   17   16 1
    17   18   16 1
    18   19    3 1
    19   20   19 1
    20   21    2 1
    21   22   21 1
    22   23   21 1
    23   24   21 1
    24   25   24 1
    25   26   24 1
    26   27   24 1
    27   28   27 1
    28   29   27 1
    29   30    3 1
    30   31   30 1
    31   32   30 1
    32   33   19 1
    33   34   33 1
    34   35   33 1
    35   36    1 1
    36   37   36 1
    37   38   36 1
    38   39   38 ar
    39   40   39 1
    40   41   39 ar
    41   42   41 1
    42   43   41 ar
    43   44   43 1
    44   45   43 ar
    45   46   45 1
    46   47   38 ar
    47   48   47 1
    48   49   50 1
    49   50   67 1
    50   51   52 1
    51   52   53 1
    52   54   52 1
    53   55   52 1
    54   56   55 1
    55   57   55 1
    56   58   55 1
    57   59   58 1
    58   60   58 1
    59   61   58 1
    60   62   61 1
    61   63   61 1
    62   64   51 1
    63   65   64 1
    64   66   64 1
    65   67   51 1
    66   68   67 1
    67   69   50 1
    68   70   69 1
    69   71   69 1
    70   72   69 1
    71   73   72 1
    72   74   72 1
    73   75   72 1
    74   76   75 1
    75   77   75 1
    76   78   51 1
    77   79   78 1
    78   80   78 1
    79   81   67 1
    80   82   81 1
    81   83   81 1
    82   84   49 1
    83   85   84 1
    84   86   84 1
    85   87   86 ar
    86   88   87 1
    87   89   87 ar
    88   90   89 1
    89   91   89 ar
    90   92   91 1
    91   93   91 ar
    92   94   93 1
    93   95   86 ar
    94   96   95 1
    95   13   16 1
    96   27   30 1
    97   33   36 1
    98   45   47 ar
    99   61   64 1
   100   75   78 1
   101   81   84 1
   102   93   95 ar
@<TRIPOS>SUBSTRUCTURE
     1 RES1 1
     2 RES2 49

@<TRIPOS>CRYSIN
   9.8516   10.4560   16.0957 101.0580  92.8330  96.5270   2 1

