# MOL2 file generated by ConQuest
# Please check atom types

@<TRIPOS>MOLECULE
QOFLON
    74    74     2
SMALL
NO_CHARGES
****
Generated from CSD

@<TRIPOS>ATOM
      1 O1         1.9359    3.3678   23.1675 O.3       1 RES1    0.0000
      2 O2        -0.3029    3.5237   23.1251 O.2       1 RES1    0.0000
      3 O3        -2.3994    3.5966   18.7684 O.2       1 RES1    0.0000
      4 O4        -1.3158    3.6317   16.8972 O.2       1 RES1    0.0000
      5 N1        -1.3380    3.6017   18.1388 N.pl3     1 RES1    0.0000
      6 N2         1.3140    3.6141   16.8788 N.3       1 RES1    0.0000
      7 H1         0.5616    3.6509   16.4599 H         1 RES1    0.0000
      8 C1        -0.2092    3.5372   20.2630 C.ar      1 RES1    0.0000
      9 H2        -1.0711    3.5433   20.6617 H         1 RES1    0.0000
     10 C2        -0.0927    3.5669   18.8757 C.ar      1 RES1    0.0000
     11 C3         1.1805    3.5677   18.2183 C.ar      1 RES1    0.0000
     12 C4         2.3096    3.5156   19.0885 C.ar      1 RES1    0.0000
     13 H3         3.1810    3.5008   18.7102 H         1 RES1    0.0000
     14 C5         2.1807    3.4862   20.4484 C.ar      1 RES1    0.0000
     15 H4         2.9619    3.4563   20.9886 H         1 RES1    0.0000
     16 C6         0.9158    3.4990   21.0660 C.ar      1 RES1    0.0000
     17 C7         0.7566    3.4686   22.5355 C.2       1 RES1    0.0000
     18 C8         1.8619    3.3262   24.6140 C.3       1 RES1    0.0000
     19 H5         1.3326    2.5424   24.9069 H         1 RES1    0.0000
     20 H6         1.4246    4.1457   24.9580 H         1 RES1    0.0000
     21 C9         3.2613    3.2285   25.1373 C.3       1 RES1    0.0000
     22 H7         3.2442    3.2392   26.1177 H         1 RES1    0.0000
     23 H8         3.7868    3.9890   24.8099 H         1 RES1    0.0000
     24 H9         3.6682    2.3930   24.8277 H         1 RES1    0.0000
     25 C10        2.5485    3.6360   16.0609 C.3       1 RES1    0.0000
     26 C11        3.3441    2.3356   16.2223 C.3       1 RES1    0.0000
     27 H10        2.7788    1.5741   15.9746 H         1 RES1    0.0000
     28 H11        3.6294    2.2402   17.1546 H         1 RES1    0.0000
     29 H12        4.1328    2.3611   15.6425 H         1 RES1    0.0000
     30 C12        2.0436    3.7293   14.6152 C.3       1 RES1    0.0000
     31 H13        1.4589    2.9655   14.4241 H         1 RES1    0.0000
     32 H14        2.8086    3.7194   14.0001 H         1 RES1    0.0000
     33 H15        1.5399    4.5622   14.4982 H         1 RES1    0.0000
     34 C13        3.3901    4.8818   16.3562 C.3       1 RES1    0.0000
     35 H16        3.6438    4.8876   17.3028 H         1 RES1    0.0000
     36 H17        2.8658    5.6853   16.1534 H         1 RES1    0.0000
     37 H18        4.1987    4.8690   15.8009 H         1 RES1    0.0000
     38 O5         6.2550    2.8699    2.6570 O.3       2 RES2    0.0000
     39 O6         8.5035    2.9926    2.6779 O.2       2 RES2    0.0000
     40 O7        10.6453    3.1482    6.9837 O.2       2 RES2    0.0000
     41 O8         9.5895    3.1586    8.8744 O.2       2 RES2    0.0000
     42 N3         9.5952    3.1383    7.6302 N.pl3     2 RES2    0.0000
     43 N4         6.9547    3.1348    8.9273 N.3       2 RES2    0.0000
     44 H19        7.7023    3.1661    9.3768 H         2 RES2    0.0000
     45 C14        8.4343    3.0628    5.5257 C.ar      2 RES2    0.0000
     46 H20        9.2909    3.0605    5.1137 H         2 RES2    0.0000
     47 C15        8.3393    3.1031    6.9142 C.ar      2 RES2    0.0000
     48 C16        7.0747    3.1041    7.5868 C.ar      2 RES2    0.0000
     49 C17        5.9344    3.0766    6.7347 C.ar      2 RES2    0.0000
     50 H21        5.0684    3.0851    7.1265 H         2 RES2    0.0000
     51 C18        6.0423    3.0379    5.3714 C.ar      2 RES2    0.0000
     52 H22        5.2553    3.0187    4.8404 H         2 RES2    0.0000
     53 C19        7.2999    3.0262    4.7390 C.ar      2 RES2    0.0000
     54 C20        7.4456    2.9668    3.2695 C.2       2 RES2    0.0000
     55 C21        6.2843    2.7756    1.2100 C.3       2 RES2    0.0000
     56 H23        5.4674    2.3140    0.8940 H         2 RES2    0.0000
     57 H24        7.0661    2.2383    0.9323 H         2 RES2    0.0000
     58 C22        6.3629    4.1351    0.5801 C.3       2 RES2    0.0000
     59 H25        6.3487    4.0441   -0.3959 H         2 RES2    0.0000
     60 H26        7.1936    4.5748    0.8557 H         2 RES2    0.0000
     61 H27        5.5971    4.6744    0.8685 H         2 RES2    0.0000
     62 C23        5.7257    3.1211    9.7546 C.3       2 RES2    0.0000
     63 C24        4.9248    1.8328    9.5377 C.3       2 RES2    0.0000
     64 H28        4.6176    1.7919    8.6080 H         2 RES2    0.0000
     65 H29        4.1513    1.8245   10.1380 H         2 RES2    0.0000
     66 H30        5.4932    1.0580    9.7293 H         2 RES2    0.0000
     67 C25        6.2461    3.1449   11.1973 C.3       2 RES2    0.0000
     68 H31        6.7689    3.9611   11.3436 H         2 RES2    0.0000
     69 H32        6.8124    2.3611   11.3538 H         2 RES2    0.0000
     70 H33        5.4871    3.1282   11.8187 H         2 RES2    0.0000
     71 C26        4.8744    4.3707    9.5196 C.3       2 RES2    0.0000
     72 H34        5.4049    5.1699    9.7216 H         2 RES2    0.0000
     73 H35        4.0868    4.3443   10.1022 H         2 RES2    0.0000
     74 H36        4.5869    4.3988    8.5824 H         2 RES2    0.0000
@<TRIPOS>BOND
     1    1   17 1
     2    2   17 2
     3    3    5 2
     4    4    5 2
     5    5   10 1
     6    6    7 1
     7    8    9 1
     8   10    8 ar
     9   11    6 1
    10   12   11 ar
    11   13   12 1
    12   14   12 ar
    13   15   14 1
    14   16    8 ar
    15   17   16 1
    16   18    1 1
    17   19   18 1
    18   20   18 1
    19   21   18 1
    20   22   21 1
    21   23   21 1
    22   24   21 1
    23   25    6 1
    24   26   25 1
    25   27   26 1
    26   28   26 1
    27   29   26 1
    28   30   25 1
    29   31   30 1
    30   32   30 1
    31   33   30 1
    32   34   25 1
    33   35   34 1
    34   36   34 1
    35   37   34 1
    36   38   54 1
    37   39   54 2
    38   40   42 2
    39   41   42 2
    40   42   47 1
    41   43   44 1
    42   45   46 1
    43   47   45 ar
    44   48   43 1
    45   49   48 ar
    46   50   49 1
    47   51   49 ar
    48   52   51 1
    49   53   45 ar
    50   54   53 1
    51   55   38 1
    52   56   55 1
    53   57   55 1
    54   58   55 1
    55   59   58 1
    56   60   58 1
    57   61   58 1
    58   62   43 1
    59   63   62 1
    60   64   63 1
    61   65   63 1
    62   66   63 1
    63   67   62 1
    64   68   67 1
    65   69   67 1
    66   70   67 1
    67   71   62 1
    68   72   71 1
    69   73   71 1
    70   74   71 1
    71   10   11 ar
    72   14   16 ar
    73   47   48 ar
    74   51   53 ar
@<TRIPOS>SUBSTRUCTURE
     1 RES1 1
     2 RES2 38

@<TRIPOS>CRYSIN
  16.0471    6.6417   30.0180  90.0000 121.6880  90.0000  14 1

