# MOL2 file generated by ConQuest
# Please check atom types

@<TRIPOS>MOLECULE
QOFQUX01
    30    25     2
SMALL
NO_CHARGES
****
Generated from CSD

@<TRIPOS>ATOM
      1 H1         2.8804   -3.8797   13.7536 H         1 RES1    0.0000
      2 H2         2.5324   -4.8217   12.4892 Du        2 SUP2    0.0000
      3 H3         4.7575    0.8409   10.4704 H         1 RES1    0.0000
      4 H4         3.3621    1.7817   11.0056 Du        2 SUP2    0.0000
      5 H5         2.9839   -3.3722   11.3868 H         1 RES1    0.0000
      6 H6         3.4799   -2.6208   12.5154 Du        2 SUP2    0.0000
      7 H7         3.6278   -0.5970   12.0498 H         1 RES1    0.0000
      8 H8         2.5289    0.3487   12.1571 Du        2 SUP2    0.0000
      9 O1         2.2132   -3.9569   13.0871 O.3       1 RES1    0.0000
     10 O2         3.6441    0.8145   10.5537 O.3       1 RES1    0.0000
     11 N1         2.6921   -2.9689   12.1297 N.3       1 RES1    0.0000
     12 N2         3.0168   -0.1109   11.4906 N.3       1 RES1    0.0000
     13 C1         1.5676   -2.0741   11.7691 C.3       1 RES1    0.0000
     14 C2         2.1518   -1.0536   10.7260 C.3       1 RES1    0.0000
     15 C3         1.0486   -1.3778   13.0301 C.3       1 RES1    0.0000
     16 H9         0.5930   -2.0238   13.5927 H         1 RES1    0.0000
     17 H10        0.4316   -0.6742   12.7790 H         1 RES1    0.0000
     18 H11        1.7946   -0.9935   13.5174 H         1 RES1    0.0000
     19 C4         0.4412   -2.9002   11.1597 C.3       1 RES1    0.0000
     20 H12       -0.3232   -2.3284   10.9896 H         1 RES1    0.0000
     21 H13        0.1875   -3.6051   11.7759 H         1 RES1    0.0000
     22 H14        0.7415   -3.2931   10.3266 H         1 RES1    0.0000
     23 C5         1.0352   -0.2574   10.0550 C.3       1 RES1    0.0000
     24 H15        0.5219   -0.8440    9.4776 H         1 RES1    0.0000
     25 H16        1.4216    0.4591    9.5278 H         1 RES1    0.0000
     26 H17        0.4531    0.1183   10.7340 H         1 RES1    0.0000
     27 C6         2.9941   -1.7468    9.6408 C.3       1 RES1    0.0000
     28 H18        3.2432   -1.0995    8.9629 H         1 RES1    0.0000
     29 H19        2.4758   -2.4583    9.2345 H         1 RES1    0.0000
     30 H20        3.7956   -2.1188   10.0425 H         1 RES1    0.0000
@<TRIPOS>BOND
     1    1    9 1
     2    3   10 1
     3    5   11 1
     4    7   12 1
     5    9   11 1
     6   10   12 1
     7   11   13 1
     8   12   14 1
     9   13   14 1
    10   14   23 1
    11   15   13 1
    12   16   15 1
    13   17   15 1
    14   18   15 1
    15   19   13 1
    16   20   19 1
    17   21   19 1
    18   22   19 1
    19   23   24 1
    20   25   23 1
    21   26   23 1
    22   27   14 1
    23   28   27 1
    24   29   27 1
    25   30   27 1
@<TRIPOS>SUBSTRUCTURE
     1 RES1 1
     2 SUP2 2

@<TRIPOS>CRYSIN
  23.5669    6.1290   13.4350  90.0000 121.8520  90.0000  15 1

