# MOL2 file generated by ConQuest
# Please check atom types

@<TRIPOS>MOLECULE
QOFQIL
    37    38     1
SMALL
NO_CHARGES
****
Generated from CSD

@<TRIPOS>ATOM
      1 O1         1.6622    4.6982    8.9458 O.2       1 RES1    0.0000
      2 O2         3.2700    3.9042    7.7552 O.2       1 RES1    0.0000
      3 N1         7.0919    5.8990   13.2983 N.3       1 RES1    0.0000
      4 H1         6.3973    5.4098   13.5261 H         1 RES1    0.0000
      5 N2         6.2293    8.0799   12.9997 N.3       1 RES1    0.0000
      6 H2         6.7245    8.7537   12.7171 H         1 RES1    0.0000
      7 N3         2.8554    4.5453    8.7086 N.pl3     1 RES1    0.0000
      8 C1         6.6955    6.8768   12.2897 C.3       1 RES1    0.0000
      9 H3         7.4995    7.1300   11.7392 H         1 RES1    0.0000
     10 C2         7.4540    6.6959   14.4926 C.3       1 RES1    0.0000
     11 C3         7.3986    5.8213   15.7288 C.3       1 RES1    0.0000
     12 H4         7.5755    6.3663   16.5673 H         1 RES1    0.0000
     13 H5         6.5512    5.3857   15.8371 H         1 RES1    0.0000
     14 H6         8.0928    5.1445   15.6749 H         1 RES1    0.0000
     15 C4         8.8876    7.1943   14.2885 C.3       1 RES1    0.0000
     16 H7         9.1998    7.6927   15.0697 H         1 RES1    0.0000
     17 H8         9.4803    6.4146   14.0896 H         1 RES1    0.0000
     18 H9         8.9818    7.7811   13.5437 H         1 RES1    0.0000
     19 C5         6.4181    7.8590   14.4591 C.3       1 RES1    0.0000
     20 C6         5.0711    7.4531   15.0476 C.3       1 RES1    0.0000
     21 H10        5.1374    7.3631   15.9884 H         1 RES1    0.0000
     22 H11        4.4267    8.1589   14.8483 H         1 RES1    0.0000
     23 H12        4.7111    6.5914   14.6378 H         1 RES1    0.0000
     24 C7         6.8654    9.1532   15.1241 C.3       1 RES1    0.0000
     25 H13        6.9922    8.9627   16.0893 H         1 RES1    0.0000
     26 H14        6.1579    9.8148   15.0610 H         1 RES1    0.0000
     27 H15        7.7063    9.5013   14.6992 H         1 RES1    0.0000
     28 C8         5.6606    6.2814   11.3452 C.ar      1 RES1    0.0000
     29 C9         4.3137    6.6002   11.4425 C.ar      1 RES1    0.0000
     30 H16        4.0266    7.1911   12.0659 H         1 RES1    0.0000
     31 C10        3.3889    6.0271   10.5874 C.ar      1 RES1    0.0000
     32 H17        2.4785    6.2136   10.6516 H         1 RES1    0.0000
     33 C11        3.8328    5.1469    9.6288 C.ar      1 RES1    0.0000
     34 C12        5.1641    4.7989    9.5010 C.ar      1 RES1    0.0000
     35 H18        5.4624    4.1799    8.8384 H         1 RES1    0.0000
     36 C13        6.0697    5.3776   10.3734 C.ar      1 RES1    0.0000
     37 H19        6.9710    5.1767   10.3096 H         1 RES1    0.0000
@<TRIPOS>BOND
     1    1    7 2
     2    2    7 2
     3    3    4 1
     4    5    6 1
     5    7   33 1
     6    8    3 1
     7    9    8 1
     8   10    3 1
     9   11   10 1
    10   12   11 1
    11   13   11 1
    12   14   11 1
    13   15   10 1
    14   16   15 1
    15   17   15 1
    16   18   15 1
    17   19    5 1
    18   20   19 1
    19   21   20 1
    20   22   20 1
    21   23   20 1
    22   24   19 1
    23   25   24 1
    24   26   24 1
    25   27   24 1
    26   28    8 1
    27   29   28 ar
    28   30   29 1
    29   31   29 ar
    30   32   31 1
    31   33   31 ar
    32   34   33 ar
    33   35   34 1
    34   36   28 ar
    35   37   36 1
    36    5    8 1
    37   10   19 1
    38   34   36 ar
@<TRIPOS>SUBSTRUCTURE
     1 RES1 1

@<TRIPOS>CRYSIN
   7.4931    8.0383   21.9386  90.0000  91.9430  90.0000 231 1

